# generated using pymatgen
data_Na2MnFe(PO4)2
_symmetry_space_group_name_H-M   'P 1'
_cell_length_a   21.08018714
_cell_length_b   18.93197131
_cell_length_c   20.03932230
_cell_angle_alpha   90.00068158
_cell_angle_beta   89.99867932
_cell_angle_gamma   89.99869469
_symmetry_Int_Tables_number   1
_chemical_formula_structural   Na2MnFe(PO4)2
_chemical_formula_sum   'Na96 Mn48 Fe48 P96 O384'
_cell_volume   7997.48307423
_cell_formula_units_Z   48
loop_
 _symmetry_equiv_pos_site_id
 _symmetry_equiv_pos_as_xyz
  1  'x, y, z'
loop_
 _atom_site_type_symbol
 _atom_site_label
 _atom_site_symmetry_multiplicity
 _atom_site_fract_x
 _atom_site_fract_y
 _atom_site_fract_z
 _atom_site_occupancy
  Na  Na0  1  -0.00040200  0.00009471  0.00027477  1
  Na  Na1  1  -0.00293614  -0.00107087  0.24907111  1
  Na  Na2  1  0.00037704  0.00016888  0.50076119  1
  Na  Na3  1  0.00237442  0.00085838  0.74998849  1
  Na  Na4  1  0.00031139  0.33256382  0.00065843  1
  Na  Na5  1  0.00048194  0.33244431  0.24934295  1
  Na  Na6  1  0.00271561  0.33321704  0.50073902  1
  Na  Na7  1  0.00254439  0.33355022  0.75049718  1
  Na  Na8  1  -0.00026315  0.66684054  0.00009633  1
  Na  Na9  1  0.00000347  0.66679738  0.25003562  1
  Na  Na10  1  0.00056911  0.66699873  0.49849055  1
  Na  Na11  1  -0.00046491  0.66590292  0.75116660  1
  Na  Na12  1  0.50011784  0.00093778  -0.00047784  1
  Na  Na13  1  0.49952446  0.00073899  0.24853110  1
  Na  Na14  1  0.49828080  0.00065835  0.50007601  1
  Na  Na15  1  0.49806057  -0.00012739  0.75129287  1
  Na  Na16  1  0.49928333  0.33354161  -0.00078461  1
  Na  Na17  1  0.49961121  0.33332334  0.24880375  1
  Na  Na18  1  0.50153347  0.33464290  0.49981935  1
  Na  Na19  1  0.49979345  0.33368041  0.75125866  1
  Na  Na20  1  0.49774380  0.66551223  0.00020070  1
  Na  Na21  1  0.50092841  0.66680787  0.24976131  1
  Na  Na22  1  0.50382463  0.66825413  0.50003010  1
  Na  Na23  1  0.49928156  0.66641578  0.75009517  1
  Na  Na24  1  0.25261562  0.00115100  0.12521855  1
  Na  Na25  1  0.25338296  0.00075124  0.37609280  1
  Na  Na26  1  0.25155398  0.00039386  0.62478502  1
  Na  Na27  1  0.24945502  -0.00019361  0.87431475  1
  Na  Na28  1  0.25125309  0.33403879  0.12557664  1
  Na  Na29  1  0.24790468  0.33202067  0.37414368  1
  Na  Na30  1  0.24867249  0.33350683  0.62508714  1
  Na  Na31  1  0.24841427  0.33290072  0.87507466  1
  Na  Na32  1  0.24964706  0.66626594  0.12467524  1
  Na  Na33  1  0.24910755  0.66647055  0.37389507  1
  Na  Na34  1  0.24772073  0.66555129  0.62506451  1
  Na  Na35  1  0.25107231  0.66722725  0.87543993  1
  Na  Na36  1  0.75006657  0.00050837  0.12609080  1
  Na  Na37  1  0.74965000  0.00049947  0.37467315  1
  Na  Na38  1  0.74818867  -0.00015933  0.62363057  1
  Na  Na39  1  0.75005076  0.00068312  0.87558192  1
  Na  Na40  1  0.75039757  0.33333858  0.12583063  1
  Na  Na41  1  0.74954926  0.33346151  0.37506237  1
  Na  Na42  1  0.74925373  0.33317656  0.62396232  1
  Na  Na43  1  0.74997133  0.33291115  0.87567039  1
  Na  Na44  1  0.75122205  0.66713505  0.12460103  1
  Na  Na45  1  0.74845697  0.66681016  0.37555009  1
  Na  Na46  1  0.74812160  0.66574060  0.62524984  1
  Na  Na47  1  0.75252764  0.66751015  0.87525263  1
  Na  Na48  1  0.00099486  0.16698779  0.00037097  1
  Na  Na49  1  0.00047111  0.16668618  0.24961177  1
  Na  Na50  1  0.00089996  0.16758068  0.50019907  1
  Na  Na51  1  0.00379473  0.16605946  0.75099080  1
  Na  Na52  1  0.00034070  0.49982289  0.00058325  1
  Na  Na53  1  0.00091920  0.49927188  0.24936353  1
  Na  Na54  1  0.00120531  0.49951888  0.49954168  1
  Na  Na55  1  -0.00120027  0.50084119  0.75080657  1
  Na  Na56  1  -0.00200007  0.83390129  -0.00010739  1
  Na  Na57  1  -0.00190006  0.83322943  0.24992141  1
  Na  Na58  1  0.00028561  0.83343552  0.49981836  1
  Na  Na59  1  0.00219685  0.83260747  0.74987522  1
  Na  Na60  1  0.49928070  0.16669699  -0.00091695  1
  Na  Na61  1  0.50038132  0.16586159  0.24907276  1
  Na  Na62  1  0.50013393  0.16580426  0.49971692  1
  Na  Na63  1  0.49881703  0.16641970  0.75102912  1
  Na  Na64  1  0.49738774  0.49977430  -0.00011762  1
  Na  Na65  1  0.49951479  0.49954896  0.24982284  1
  Na  Na66  1  0.50205839  0.49910654  0.49952313  1
  Na  Na67  1  0.49829305  0.50013047  0.75034728  1
  Na  Na68  1  0.50102603  0.83296139  -0.00007219  1
  Na  Na69  1  0.50111543  0.83278942  0.24863717  1
  Na  Na70  1  0.49946236  0.83420370  0.50015231  1
  Na  Na71  1  0.50061633  0.83316359  0.75149773  1
  Na  Na72  1  0.25023485  0.16708945  0.12517306  1
  Na  Na73  1  0.25119639  0.16603435  0.37444150  1
  Na  Na74  1  0.24799387  0.16707858  0.62538261  1
  Na  Na75  1  0.24912861  0.16639739  0.87470723  1
  Na  Na76  1  0.25184120  0.49964340  0.12556657  1
  Na  Na77  1  0.24907638  0.50053041  0.37384582  1
  Na  Na78  1  0.25045822  0.49950273  0.62577610  1
  Na  Na79  1  0.25141710  0.49967545  0.87536423  1
  Na  Na80  1  0.25006655  0.83345427  0.12508014  1
  Na  Na81  1  0.25116833  0.83303031  0.37573959  1
  Na  Na82  1  0.24926044  0.83382180  0.62377806  1
  Na  Na83  1  0.24915955  0.83315908  0.87449731  1
  Na  Na84  1  0.75093980  0.16641995  0.12637319  1
  Na  Na85  1  0.74921725  0.16703669  0.37507933  1
  Na  Na86  1  0.74822525  0.16717453  0.62346258  1
  Na  Na87  1  0.75042724  0.16626379  0.87558325  1
  Na  Na88  1  0.74989069  0.49952945  0.12456465  1
  Na  Na89  1  0.74738073  0.50050915  0.37509898  1
  Na  Na90  1  0.74890407  0.50021987  0.62528902  1
  Na  Na91  1  0.75193848  0.49870916  0.87523934  1
  Na  Na92  1  0.75028306  0.83331736  0.12549767  1
  Na  Na93  1  0.75043295  0.83273145  0.37522784  1
  Na  Na94  1  0.74887822  0.83360226  0.62402070  1
  Na  Na95  1  0.75053070  0.83337905  0.87557908  1
  Mn  Mn96  1  0.64080690  0.91646302  0.49719644  1
  Mn  Mn97  1  0.89253401  0.58324439  0.12720529  1
  Mn  Mn98  1  0.89256553  0.91691057  0.87687542  1
  Mn  Mn99  1  0.64157689  0.91704205  0.74762014  1
  Mn  Mn100  1  0.39284865  0.91662238  0.12677843  1
  Mn  Mn101  1  0.14271839  0.58331471  0.24726493  1
  Mn  Mn102  1  0.39138756  0.91582476  0.87776041  1
  Mn  Mn103  1  0.85755186  0.08321491  0.25286548  1
  Mn  Mn104  1  0.35743969  0.41650776  0.50177331  1
  Mn  Mn105  1  0.10831446  0.41708379  0.12229172  1
  Mn  Mn106  1  0.39292450  0.58408415  0.37797844  1
  Mn  Mn107  1  0.60781325  0.08350536  0.87314820  1
  Mn  Mn108  1  0.10821794  0.08307535  0.37255178  1
  Mn  Mn109  1  0.85827643  0.41590548  0.75209207  1
  Mn  Mn110  1  0.85750218  0.08355352  0.50231833  1
  Mn  Mn111  1  0.10862748  0.41753646  0.62261070  1
  Mn  Mn112  1  0.64210741  0.91668509  0.24787001  1
  Mn  Mn113  1  0.39208733  0.24985803  0.37749917  1
  Mn  Mn114  1  0.10736678  0.75041914  0.37221392  1
  Mn  Mn115  1  0.85765144  0.41719268  0.25281662  1
  Mn  Mn116  1  0.89288483  0.91660899  0.62749621  1
  Mn  Mn117  1  0.39246327  0.58385723  0.62633822  1
  Mn  Mn118  1  0.89341697  0.25010761  0.62749137  1
  Mn  Mn119  1  0.89325918  0.25009502  0.87740078  1
  Mn  Mn120  1  0.64184591  0.25016525  0.24732108  1
  Mn  Mn121  1  0.85777347  0.41703419  0.50179656  1
  Mn  Mn122  1  0.14316477  0.91678971  0.49708139  1
  Mn  Mn123  1  0.64237499  0.58303832  0.99734647  1
  Mn  Mn124  1  0.85808421  0.75042745  0.75131689  1
  Mn  Mn125  1  0.64156037  0.24984044  0.74761632  1
  Mn  Mn126  1  0.64172424  0.58349566  0.24703533  1
  Mn  Mn127  1  0.64204503  0.58311925  0.74860531  1
  Mn  Mn128  1  0.85713229  0.74932244  0.50265455  1
  Mn  Mn129  1  0.39086718  0.25048088  0.87766171  1
  Mn  Mn130  1  0.85837358  0.08352771  0.75153520  1
  Mn  Mn131  1  0.89216208  0.58241872  0.37767207  1
  Mn  Mn132  1  0.60736271  0.41711304  0.87340516  1
  Mn  Mn133  1  0.14199316  0.91673142  0.99815918  1
  Mn  Mn134  1  0.60783562  0.74927288  0.87356177  1
  Mn  Mn135  1  0.14191477  0.58350066  0.74790639  1
  Mn  Mn136  1  0.35839714  0.75053151  0.25194451  1
  Mn  Mn137  1  0.39174811  0.25009452  0.62720310  1
  Mn  Mn138  1  0.10787932  0.08210074  0.12302281  1
  Mn  Mn139  1  0.35760409  0.74987039  0.75154019  1
  Mn  Mn140  1  0.64135207  0.25041148  0.49746138  1
  Mn  Mn141  1  0.35822725  0.74932327  0.50232560  1
  Mn  Mn142  1  0.14233203  0.91723159  0.24810573  1
  Mn  Mn143  1  0.10780511  0.75008734  0.87329247  1
  Fe  Fe144  1  0.64309432  0.24962140  0.99931610  1
  Fe  Fe145  1  0.89378554  0.24974720  0.37664097  1
  Fe  Fe146  1  0.85783881  0.08371247  0.00179606  1
  Fe  Fe147  1  0.89172125  0.91677707  0.12657583  1
  Fe  Fe148  1  0.35613858  0.08370293  0.75140920  1
  Fe  Fe149  1  0.60714902  0.41658469  0.62389756  1
  Fe  Fe150  1  0.10753076  0.74980756  0.62299396  1
  Fe  Fe151  1  0.64359769  0.91735104  0.99917916  1
  Fe  Fe152  1  0.10666947  0.75031966  0.12327218  1
  Fe  Fe153  1  0.10777252  0.41635095  0.37311439  1
  Fe  Fe154  1  0.10783289  0.41687275  0.87425738  1
  Fe  Fe155  1  0.60702349  0.08387786  0.12232856  1
  Fe  Fe156  1  0.39322920  0.91620760  0.37601701  1
  Fe  Fe157  1  0.14177798  0.58283574  0.49823434  1
  Fe  Fe158  1  0.10822061  0.08351407  0.87373944  1
  Fe  Fe159  1  0.89261304  0.58344309  0.62614319  1
  Fe  Fe160  1  0.35677484  0.08357849  0.00138685  1
  Fe  Fe161  1  0.39282497  0.91642521  0.62691227  1
  Fe  Fe162  1  0.35712525  0.74997750  0.00229364  1
  Fe  Fe163  1  0.14337829  0.24950808  0.24808257  1
  Fe  Fe164  1  0.35765380  0.08397262  0.50237445  1
  Fe  Fe165  1  0.60713726  0.41641492  0.37245247  1
  Fe  Fe166  1  0.60606650  0.08331236  0.37333359  1
  Fe  Fe167  1  0.10866727  0.08248410  0.62269962  1
  Fe  Fe168  1  0.64209946  0.58301259  0.49880917  1
  Fe  Fe169  1  0.14289512  0.25013907  0.49749357  1
  Fe  Fe170  1  0.35746383  0.41619701  0.25206379  1
  Fe  Fe171  1  0.14304398  0.25040717  0.99922545  1
  Fe  Fe172  1  0.89287150  0.24968130  0.12672423  1
  Fe  Fe173  1  0.35663386  0.41631124  0.00204538  1
  Fe  Fe174  1  0.39280757  0.58307202  0.12616587  1
  Fe  Fe175  1  0.89216133  0.91730318  0.37719488  1
  Fe  Fe176  1  0.14371853  0.58298531  0.99846878  1
  Fe  Fe177  1  0.39135074  0.58362466  0.87685189  1
  Fe  Fe178  1  0.35735600  0.41638053  0.75154187  1
  Fe  Fe179  1  0.85687617  0.74962587  0.25167612  1
  Fe  Fe180  1  0.39248939  0.25032479  0.12591267  1
  Fe  Fe181  1  0.85782379  0.41573054  0.00194887  1
  Fe  Fe182  1  0.60730434  0.75064600  0.37263861  1
  Fe  Fe183  1  0.85751007  0.75037449  0.00242505  1
  Fe  Fe184  1  0.35819339  0.08382107  0.25130526  1
  Fe  Fe185  1  0.60629911  0.41615290  0.12252571  1
  Fe  Fe186  1  0.14324031  0.24982333  0.74857842  1
  Fe  Fe187  1  0.60777566  0.74977062  0.12226992  1
  Fe  Fe188  1  0.14293770  0.91687951  0.74775396  1
  Fe  Fe189  1  0.60604992  0.08337217  0.62369027  1
  Fe  Fe190  1  0.60734409  0.75023078  0.62373427  1
  Fe  Fe191  1  0.89299518  0.58277539  0.87722353  1
  P  P192  1  0.05453200  0.24952994  0.11071139  1
  P  P193  1  0.05492286  0.25037492  0.36011876  1
  P  P194  1  0.05669854  0.24916654  0.61083136  1
  P  P195  1  0.05649158  0.25043246  0.86162155  1
  P  P196  1  0.05445145  0.58437852  0.10927605  1
  P  P197  1  0.05451687  0.58230802  0.36043822  1
  P  P198  1  0.05265801  0.58424063  0.60938557  1
  P  P199  1  0.05384185  0.58236601  0.86204943  1
  P  P200  1  0.05157709  0.91567242  0.11027413  1
  P  P201  1  0.05174893  0.91710102  0.35960776  1
  P  P202  1  0.05548062  0.91645768  0.61094232  1
  P  P203  1  0.05451967  0.91755762  0.85956983  1
  P  P204  1  0.55243283  0.25002266  0.10906403  1
  P  P205  1  0.55291731  0.24982713  0.35945395  1
  P  P206  1  0.55262513  0.24986980  0.61026861  1
  P  P207  1  0.55401021  0.25009899  0.86150998  1
  P  P208  1  0.55228313  0.58265013  0.10965554  1
  P  P209  1  0.55485185  0.58346878  0.36089504  1
  P  P210  1  0.55395469  0.58300172  0.60995634  1
  P  P211  1  0.55134059  0.58314137  0.86034167  1
  P  P212  1  0.55450662  0.91703534  0.10912155  1
  P  P213  1  0.55192361  0.91720697  0.35948539  1
  P  P214  1  0.55182320  0.91742271  0.61043056  1
  P  P215  1  0.55448120  0.91675310  0.86176831  1
  P  P216  1  0.44564810  0.08455782  0.13831857  1
  P  P217  1  0.44550279  0.08266397  0.38899426  1
  P  P218  1  0.44531384  0.08297086  0.63987049  1
  P  P219  1  0.44394200  0.08343151  0.88957305  1
  P  P220  1  0.44517686  0.41619585  0.13874652  1
  P  P221  1  0.44686713  0.41655658  0.38879152  1
  P  P222  1  0.44711444  0.41671003  0.64037243  1
  P  P223  1  0.44387797  0.41739402  0.88968519  1
  P  P224  1  0.44702306  0.74931404  0.13839449  1
  P  P225  1  0.44829077  0.75078418  0.38977005  1
  P  P226  1  0.44817845  0.75078094  0.63991081  1
  P  P227  1  0.44544756  0.74918956  0.89089540  1
  P  P228  1  0.94496897  0.08361814  0.13871852  1
  P  P229  1  0.94681052  0.08374405  0.39010142  1
  P  P230  1  0.94911264  0.08371739  0.64011157  1
  P  P231  1  0.94808428  0.08366597  0.89055193  1
  P  P232  1  0.94565913  0.41561051  0.13902341  1
  P  P233  1  0.94834803  0.41517389  0.38987278  1
  P  P234  1  0.94742668  0.41745264  0.63991967  1
  P  P235  1  0.94766433  0.41672689  0.89088947  1
  P  P236  1  0.94537955  0.75057369  0.13950750  1
  P  P237  1  0.94471631  0.75061859  0.38879359  1
  P  P238  1  0.94823134  0.74904007  0.63962916  1
  P  P239  1  0.94580750  0.74953068  0.89052182  1
  P  P240  1  0.19836343  0.08367005  0.23522741  1
  P  P241  1  0.19745651  0.08378077  0.48584454  1
  P  P242  1  0.19581165  0.08302819  0.73577185  1
  P  P243  1  0.19723665  0.08397781  0.98501082  1
  P  P244  1  0.19673057  0.41575035  0.23590121  1
  P  P245  1  0.19599850  0.41690575  0.48403892  1
  P  P246  1  0.19671865  0.41643318  0.73675652  1
  P  P247  1  0.19744539  0.41700090  0.98523667  1
  P  P248  1  0.19621198  0.75057733  0.23392370  1
  P  P249  1  0.19552149  0.74896900  0.48559616  1
  P  P250  1  0.19587786  0.75063724  0.73428282  1
  P  P251  1  0.19669590  0.74924372  0.98656488  1
  P  P252  1  0.69423991  0.08340054  0.23559794  1
  P  P253  1  0.69397496  0.08334141  0.48494741  1
  P  P254  1  0.69613392  0.08348900  0.73375986  1
  P  P255  1  0.69673709  0.08386943  0.98696127  1
  P  P256  1  0.69457308  0.41661896  0.23480060  1
  P  P257  1  0.69440003  0.41740464  0.48540005  1
  P  P258  1  0.69620161  0.41655309  0.73458117  1
  P  P259  1  0.69658492  0.41540207  0.98652574  1
  P  P260  1  0.69581646  0.75025329  0.23511088  1
  P  P261  1  0.69401980  0.74930807  0.48557043  1
  P  P262  1  0.69613357  0.74996870  0.73453263  1
  P  P263  1  0.69699959  0.75067092  0.98636807  1
  P  P264  1  0.30237402  0.25012001  0.01541919  1
  P  P265  1  0.30425326  0.25004426  0.26349371  1
  P  P266  1  0.30185495  0.24979163  0.51494370  1
  P  P267  1  0.30213997  0.24987785  0.76469967  1
  P  P268  1  0.30415131  0.58319234  0.01452810  1
  P  P269  1  0.30561461  0.58286413  0.26364237  1
  P  P270  1  0.30149866  0.58307876  0.51484345  1
  P  P271  1  0.30387631  0.58285057  0.76534945  1
  P  P272  1  0.30308714  0.91661619  0.01499934  1
  P  P273  1  0.30443792  0.91749389  0.26565090  1
  P  P274  1  0.30618454  0.91709672  0.51435735  1
  P  P275  1  0.30338546  0.91700098  0.76343739  1
  P  P276  1  0.80340148  0.24976679  0.01584406  1
  P  P277  1  0.80498372  0.25014692  0.26509628  1
  P  P278  1  0.80457536  0.25033153  0.51382912  1
  P  P279  1  0.80326844  0.24969663  0.76523563  1
  P  P280  1  0.80493978  0.58277612  0.01384899  1
  P  P281  1  0.80309277  0.58404640  0.26518652  1
  P  P282  1  0.80212264  0.58304321  0.51572740  1
  P  P283  1  0.80539316  0.58317553  0.76475808  1
  P  P284  1  0.80326167  0.91730461  0.01560370  1
  P  P285  1  0.80490572  0.91583259  0.26475566  1
  P  P286  1  0.80381796  0.91679727  0.51408231  1
  P  P287  1  0.80297758  0.91701626  0.76502477  1
  O  O288  1  0.05957268  0.24952118  0.18741627  1
  O  O289  1  0.05953706  0.24965253  0.43690998  1
  O  O290  1  0.06074290  0.24989023  0.68772572  1
  O  O291  1  0.06018170  0.25034229  0.93847355  1
  O  O292  1  0.05736414  0.58330201  0.18610431  1
  O  O293  1  0.05841524  0.58292924  0.43720729  1
  O  O294  1  0.05604255  0.58346490  0.68619906  1
  O  O295  1  0.05909850  0.58292271  0.93864838  1
  O  O296  1  0.05559896  0.91640897  0.18691145  1
  O  O297  1  0.05653558  0.91719931  0.43628511  1
  O  O298  1  0.05932507  0.91680083  0.68772963  1
  O  O299  1  0.05700936  0.91680859  0.93642661  1
  O  O300  1  0.55595200  0.24986321  0.18576850  1
  O  O301  1  0.55557071  0.25005244  0.43625574  1
  O  O302  1  0.55482116  0.24970088  0.68708602  1
  O  O303  1  0.55893535  0.24992055  0.93817936  1
  O  O304  1  0.55580136  0.58289803  0.18636687  1
  O  O305  1  0.55837830  0.58327813  0.43764849  1
  O  O306  1  0.55613950  0.58293507  0.68677609  1
  O  O307  1  0.55572286  0.58280460  0.93702786  1
  O  O308  1  0.55689110  0.91689651  0.18593571  1
  O  O309  1  0.55471099  0.91740343  0.43624462  1
  O  O310  1  0.55495179  0.91745468  0.68717926  1
  O  O311  1  0.55959078  0.91720689  0.93844321  1
  O  O312  1  0.44048585  0.08402735  0.06164741  1
  O  O313  1  0.44136486  0.08381400  0.31220041  1
  O  O314  1  0.44094172  0.08430852  0.56304890  1
  O  O315  1  0.43917765  0.08360666  0.81281161  1
  O  O316  1  0.44033333  0.41603435  0.06199494  1
  O  O317  1  0.44173857  0.41621044  0.31211347  1
  O  O318  1  0.44342892  0.41648744  0.56360206  1
  O  O319  1  0.43987069  0.41613339  0.81288649  1
  O  O320  1  0.44156994  0.74993085  0.06178825  1
  O  O321  1  0.44459381  0.74984614  0.31306108  1
  O  O322  1  0.44455513  0.75006469  0.56321400  1
  O  O323  1  0.44254562  0.75029525  0.81409175  1
  O  O324  1  0.94133396  0.08393253  0.06193679  1
  O  O325  1  0.94382762  0.08361658  0.31327468  1
  O  O326  1  0.94432458  0.08398496  0.56345616  1
  O  O327  1  0.94441999  0.08389186  0.81384991  1
  O  O328  1  0.94135542  0.41599514  0.06227814  1
  O  O329  1  0.94446085  0.41605663  0.31314535  1
  O  O330  1  0.94420805  0.41640736  0.56315623  1
  O  O331  1  0.94416600  0.41596720  0.81415865  1
  O  O332  1  0.94079749  0.75006642  0.06272332  1
  O  O333  1  0.94074462  0.74954802  0.31201451  1
  O  O334  1  0.94427935  0.74978719  0.56290867  1
  O  O335  1  0.94328023  0.75029600  0.81372645  1
  O  O336  1  0.19378410  0.08313002  0.06175139  1
  O  O337  1  0.19462016  0.08281189  0.31192494  1
  O  O338  1  0.19284266  0.08276742  0.56252129  1
  O  O339  1  0.19180324  0.08272172  0.81251082  1
  O  O340  1  0.19433245  0.41726042  0.06195627  1
  O  O341  1  0.19184756  0.41632376  0.31253793  1
  O  O342  1  0.19382276  0.41736494  0.56090181  1
  O  O343  1  0.19215999  0.41740558  0.81340666  1
  O  O344  1  0.19158885  0.75020723  0.06315963  1
  O  O345  1  0.19290939  0.75060682  0.31077013  1
  O  O346  1  0.19132754  0.74951157  0.56235028  1
  O  O347  1  0.19313529  0.74980455  0.81114628  1
  O  O348  1  0.69196554  0.08409416  0.06366030  1
  O  O349  1  0.68947566  0.08339168  0.31233842  1
  O  O350  1  0.68920804  0.08318010  0.56167440  1
  O  O351  1  0.69312904  0.08348611  0.81062648  1
  O  O352  1  0.69111526  0.41638982  0.06317083  1
  O  O353  1  0.69009234  0.41632395  0.31162342  1
  O  O354  1  0.69035885  0.41632581  0.56217115  1
  O  O355  1  0.69305143  0.41656742  0.81142891  1
  O  O356  1  0.69187107  0.74942830  0.06308059  1
  O  O357  1  0.69079470  0.75047250  0.31185589  1
  O  O358  1  0.68977070  0.75059649  0.56237369  1
  O  O359  1  0.69340732  0.74993902  0.81139134  1
  O  O360  1  0.30877887  0.25023538  0.18684291  1
  O  O361  1  0.30574001  0.24996678  0.43820922  1
  O  O362  1  0.30549061  0.25007826  0.68803068  1
  O  O363  1  0.30513873  0.25004638  0.93865116  1
  O  O364  1  0.30994006  0.58353702  0.18684890  1
  O  O365  1  0.30582137  0.58375498  0.43811037  1
  O  O366  1  0.30701490  0.58336676  0.68854585  1
  O  O367  1  0.30786424  0.58363524  0.93777605  1
  O  O368  1  0.30750071  0.91657169  0.18883873  1
  O  O369  1  0.31041811  0.91606506  0.43759026  1
  O  O370  1  0.30834314  0.91620996  0.68675304  1
  O  O371  1  0.30523724  0.91606642  0.93817194  1
  O  O372  1  0.80941577  0.25007426  0.18835310  1
  O  O373  1  0.80938750  0.25022483  0.43711783  1
  O  O374  1  0.80676447  0.24978960  0.68844534  1
  O  O375  1  0.80704806  0.24976782  0.93911046  1
  O  O376  1  0.80661939  0.58313342  0.18840963  1
  O  O377  1  0.80626163  0.58307625  0.43898651  1
  O  O378  1  0.80937529  0.58321847  0.68795894  1
  O  O379  1  0.80896428  0.58261932  0.93705482  1
  O  O380  1  0.80871248  0.91675262  0.18794777  1
  O  O381  1  0.80834312  0.91721016  0.43730895  1
  O  O382  1  0.80643681  0.91698103  0.68820942  1
  O  O383  1  0.80660473  0.91732094  0.93886386  1
  O  O384  1  0.23236142  0.25064550  0.04046062  1
  O  O385  1  0.23398812  0.24938924  0.28762914  1
  O  O386  1  0.23186818  0.25037249  0.53951701  1
  O  O387  1  0.23217359  0.24948864  0.78964391  1
  O  O388  1  0.23390962  0.58277897  0.03893425  1
  O  O389  1  0.23545087  0.58335691  0.28736798  1
  O  O390  1  0.23149057  0.58253862  0.53931720  1
  O  O391  1  0.23410089  0.58363390  0.79032238  1
  O  O392  1  0.23361249  0.91722248  0.04093788  1
  O  O393  1  0.23480016  0.91691150  0.29107767  1
  O  O394  1  0.23598111  0.91697785  0.53802797  1
  O  O395  1  0.23308186  0.91685795  0.78730159  1
  O  O396  1  0.73330987  0.24977825  0.04062348  1
  O  O397  1  0.73471060  0.25015336  0.28854164  1
  O  O398  1  0.73429958  0.25022792  0.53726046  1
  O  O399  1  0.73360979  0.24971917  0.79033059  1
  O  O400  1  0.73494115  0.58301631  0.03838393  1
  O  O401  1  0.73333035  0.58379302  0.28987555  1
  O  O402  1  0.73194969  0.58307476  0.53970055  1
  O  O403  1  0.73537490  0.58310421  0.78921288  1
  O  O404  1  0.73322790  0.91727389  0.04054281  1
  O  O405  1  0.73483059  0.91673429  0.28895730  1
  O  O406  1  0.73359197  0.91657088  0.53762102  1
  O  O407  1  0.73338763  0.91698231  0.79025078  1
  O  O408  1  0.26841635  0.08399662  0.21068245  1
  O  O409  1  0.26783615  0.08342453  0.46214361  1
  O  O410  1  0.26615620  0.08348533  0.71158170  1
  O  O411  1  0.26731884  0.08332283  0.96035191  1
  O  O412  1  0.26708580  0.41645961  0.21221119  1
  O  O413  1  0.26549268  0.41647322  0.45808617  1
  O  O414  1  0.26694251  0.41650702  0.71243822  1
  O  O415  1  0.26756421  0.41646564  0.96064150  1
  O  O416  1  0.26612617  0.75015558  0.20947484  1
  O  O417  1  0.26554689  0.74960949  0.46124902  1
  O  O418  1  0.26556244  0.74975188  0.70897865  1
  O  O419  1  0.26703896  0.74962971  0.96273896  1
  O  O420  1  0.76461681  0.08338046  0.21253931  1
  O  O421  1  0.76419333  0.08360319  0.46133894  1
  O  O422  1  0.76576558  0.08354905  0.70844156  1
  O  O423  1  0.76708578  0.08376196  0.96297357  1
  O  O424  1  0.76482469  0.41659152  0.21145602  1
  O  O425  1  0.76444706  0.41694373  0.46100453  1
  O  O426  1  0.76590545  0.41647480  0.70954152  1
  O  O427  1  0.76705040  0.41550916  0.96308555  1
  O  O428  1  0.76625223  0.75015814  0.21182422  1
  O  O429  1  0.76415613  0.74981457  0.46169263  1
  O  O430  1  0.76572002  0.74995515  0.70906187  1
  O  O431  1  0.76745035  0.75049973  0.96294196  1
  O  O432  1  0.01487929  0.08297749  0.16348594  1
  O  O433  1  0.01647281  0.08378669  0.41543233  1
  O  O434  1  0.01936155  0.08328840  0.66389815  1
  O  O435  1  0.01828894  0.08372447  0.91488497  1
  O  O436  1  0.01578839  0.41624424  0.16292645  1
  O  O437  1  0.01834070  0.41577312  0.41446789  1
  O  O438  1  0.01712356  0.41741854  0.66516395  1
  O  O439  1  0.01777224  0.41618394  0.91551304  1
  O  O440  1  0.01573531  0.74980138  0.16325785  1
  O  O441  1  0.01476858  0.75052396  0.41296425  1
  O  O442  1  0.01815688  0.74927327  0.66450458  1
  O  O443  1  0.01560506  0.75031303  0.91559766  1
  O  O444  1  0.51623700  0.08353284  0.16138722  1
  O  O445  1  0.51580372  0.08339814  0.41294691  1
  O  O446  1  0.51558906  0.08326188  0.66389909  1
  O  O447  1  0.51420348  0.08357453  0.91295402  1
  O  O448  1  0.51573938  0.41616495  0.16210410  1
  O  O449  1  0.51725875  0.41674932  0.41213662  1
  O  O450  1  0.51719304  0.41680267  0.66489752  1
  O  O451  1  0.51395715  0.41678552  0.91378590  1
  O  O452  1  0.51756433  0.74990582  0.16162879  1
  O  O453  1  0.51831045  0.75097822  0.41434848  1
  O  O454  1  0.51810990  0.75009135  0.66488170  1
  O  O455  1  0.51521614  0.74926863  0.91591106  1
  O  O456  1  0.48226157  0.25026237  0.08454610  1
  O  O457  1  0.48337455  0.24964031  0.33386916  1
  O  O458  1  0.48321760  0.25018582  0.58407081  1
  O  O459  1  0.48378166  0.25020705  0.83787721  1
  O  O460  1  0.48211987  0.58248694  0.08523453  1
  O  O461  1  0.48504884  0.58334383  0.33588007  1
  O  O462  1  0.48443505  0.58345715  0.58385647  1
  O  O463  1  0.48130368  0.58337486  0.83605620  1
  O  O464  1  0.48477250  0.91709997  0.08387079  1
  O  O465  1  0.48224640  0.91678415  0.33376081  1
  O  O466  1  0.48195542  0.91742943  0.58519724  1
  O  O467  1  0.48426371  0.91644742  0.83820836  1
  O  O468  1  0.98410051  0.24952689  0.08733280  1
  O  O469  1  0.98460655  0.24963559  0.33634971  1
  O  O470  1  0.98662181  0.25021969  0.58677172  1
  O  O471  1  0.98651066  0.25010112  0.83705395  1
  O  O472  1  0.98463853  0.58357169  0.08461639  1
  O  O473  1  0.98458470  0.58279615  0.33587922  1
  O  O474  1  0.98274349  0.58352870  0.58428964  1
  O  O475  1  0.98345868  0.58293400  0.83844362  1
  O  O476  1  0.98151082  0.91662540  0.08576467  1
  O  O477  1  0.98158346  0.91680269  0.33573684  1
  O  O478  1  0.98556406  0.91666140  0.58632149  1
  O  O479  1  0.98489671  0.91669857  0.83413559  1
  O  O480  1  0.08792409  0.31453590  0.07727144  1
  O  O481  1  0.08819418  0.31559567  0.32702424  1
  O  O482  1  0.09079475  0.31400732  0.57774388  1
  O  O483  1  0.09000306  0.31572092  0.82876673  1
  O  O484  1  0.08818036  0.64976929  0.07720845  1
  O  O485  1  0.08840807  0.64726020  0.32740004  1
  O  O486  1  0.08664543  0.64929039  0.57686307  1
  O  O487  1  0.08714876  0.64732363  0.82840989  1
  O  O488  1  0.08585846  0.98048938  0.07740963  1
  O  O489  1  0.08514010  0.98229059  0.32650955  1
  O  O490  1  0.08932233  0.98150376  0.57787032  1
  O  O491  1  0.08848734  0.98300592  0.82774298  1
  O  O492  1  0.58651757  0.31502568  0.07640176  1
  O  O493  1  0.58709376  0.31491513  0.32706163  1
  O  O494  1  0.58724768  0.31497165  0.57837157  1
  O  O495  1  0.58731885  0.31518270  0.82831509  1
  O  O496  1  0.58613461  0.64769370  0.07687536  1
  O  O497  1  0.58835886  0.64891040  0.32821687  1
  O  O498  1  0.58873720  0.64794572  0.57797578  1
  O  O499  1  0.58535134  0.64816216  0.82781042  1
  O  O500  1  0.58872429  0.98220319  0.07688429  1
  O  O501  1  0.58579938  0.98235359  0.32701858  1
  O  O502  1  0.58563807  0.98249905  0.57763518  1
  O  O503  1  0.58744097  0.98185199  0.82814250  1
  O  O504  1  0.41198498  0.01982701  0.17207604  1
  O  O505  1  0.41249735  0.01726462  0.42169267  1
  O  O506  1  0.41180504  0.01768308  0.67248890  1
  O  O507  1  0.41054580  0.01844052  0.92290175  1
  O  O508  1  0.41197376  0.35100315  0.17210672  1
  O  O509  1  0.41383460  0.35148169  0.42239515  1
  O  O510  1  0.41310965  0.35177156  0.67336441  1
  O  O511  1  0.40986962  0.35269166  0.92327618  1
  O  O512  1  0.41418281  0.68416185  0.17182923  1
  O  O513  1  0.41476398  0.68577089  0.42318540  1
  O  O514  1  0.41389469  0.68582314  0.67239434  1
  O  O515  1  0.41118594  0.68398058  0.92283301  1
  O  O516  1  0.91077291  0.01860802  0.17121755  1
  O  O517  1  0.91260097  0.01862629  0.42242440  1
  O  O518  1  0.91533948  0.01864777  0.67293250  1
  O  O519  1  0.91405328  0.01859080  0.92310788  1
  O  O520  1  0.91251207  0.35035887  0.17199293  1
  O  O521  1  0.91483535  0.34993406  0.42245362  1
  O  O522  1  0.91360469  0.35243169  0.67295762  1
  O  O523  1  0.91343951  0.35185425  0.92386482  1
  O  O524  1  0.91163935  0.68567898  0.17295972  1
  O  O525  1  0.91132614  0.68551362  0.42222294  1
  O  O526  1  0.91435946  0.68384412  0.67191321  1
  O  O527  1  0.91197269  0.68429580  0.92281053  1
  O  O528  1  0.16480212  0.01853070  0.20213629  1
  O  O529  1  0.16412223  0.01894269  0.45199960  1
  O  O530  1  0.16273471  0.01797006  0.70208379  1
  O  O531  1  0.16284103  0.01932455  0.95199595  1
  O  O532  1  0.16382764  0.35044147  0.20270638  1
  O  O533  1  0.16140391  0.35167435  0.45223583  1
  O  O534  1  0.16331490  0.35129710  0.70391368  1
  O  O535  1  0.16316423  0.35204367  0.95290842  1
  O  O536  1  0.16184318  0.68571935  0.20139879  1
  O  O537  1  0.16213545  0.68371609  0.45281851  1
  O  O538  1  0.16104735  0.68583951  0.70194075  1
  O  O539  1  0.16374957  0.68390453  0.95329371  1
  O  O540  1  0.66094998  0.01845342  0.20214451  1
  O  O541  1  0.66053889  0.01829296  0.45149607  1
  O  O542  1  0.66163410  0.01852535  0.70136262  1
  O  O543  1  0.66344521  0.01873298  0.95369616  1
  O  O544  1  0.66098441  0.35169948  0.20142574  1
  O  O545  1  0.66038970  0.35266552  0.45178592  1
  O  O546  1  0.66178707  0.35173825  0.70194589  1
  O  O547  1  0.66339561  0.35013859  0.95358133  1
  O  O548  1  0.66241981  0.68533397  0.20149557  1
  O  O549  1  0.66085147  0.68384893  0.45300608  1
  O  O550  1  0.66169420  0.68492204  0.70246743  1
  O  O551  1  0.66384939  0.68569255  0.95247940  1
  O  O552  1  0.33676879  0.31502021  0.04787499  1
  O  O553  1  0.33713387  0.31530174  0.29705620  1
  O  O554  1  0.33574439  0.31488142  0.54757368  1
  O  O555  1  0.33580709  0.31495641  0.79752982  1
  O  O556  1  0.33774065  0.64809895  0.04797965  1
  O  O557  1  0.33904173  0.64790853  0.29700290  1
  O  O558  1  0.33520883  0.64806411  0.54798279  1
  O  O559  1  0.33839501  0.64769406  0.79798167  1
  O  O560  1  0.33772857  0.98176887  0.04662154  1
  O  O561  1  0.33854764  0.98286612  0.29740096  1
  O  O562  1  0.33960478  0.98239450  0.54713289  1
  O  O563  1  0.33665959  0.98212750  0.79651746  1
  O  O564  1  0.83750137  0.31475512  0.04863019  1
  O  O565  1  0.83856402  0.31508515  0.29840529  1
  O  O566  1  0.83777554  0.31546157  0.54715242  1
  O  O567  1  0.83737935  0.31475068  0.79785496  1
  O  O568  1  0.83852751  0.64800521  0.04666773  1
  O  O569  1  0.83690181  0.64929293  0.29736941  1
  O  O570  1  0.83591421  0.64801931  0.54880066  1
  O  O571  1  0.83923160  0.64821468  0.79763320  1
  O  O572  1  0.83726207  0.98233876  0.04828844  1
  O  O573  1  0.83902726  0.98060374  0.29808107  1
  O  O574  1  0.83716427  0.98177860  0.54751062  1
  O  O575  1  0.83712969  0.98206987  0.79749753  1
  O  O576  1  0.41302078  0.14991059  0.17183060  1
  O  O577  1  0.41165839  0.14730543  0.42287427  1
  O  O578  1  0.41154837  0.14778863  0.67340830  1
  O  O579  1  0.41037454  0.14838919  0.92297530  1
  O  O580  1  0.41199936  0.48126862  0.17215662  1
  O  O581  1  0.41364991  0.48152593  0.42228633  1
  O  O582  1  0.41288401  0.48171570  0.67277887  1
  O  O583  1  0.41054575  0.48277078  0.92224941  1
  O  O584  1  0.41384037  0.81438855  0.17198424  1
  O  O585  1  0.41425092  0.81584918  0.42196023  1
  O  O586  1  0.41459273  0.81601316  0.67254492  1
  O  O587  1  0.41117694  0.81403593  0.92384755  1
  O  O588  1  0.91170774  0.14884148  0.17190022  1
  O  O589  1  0.91283245  0.14908207  0.42228188  1
  O  O590  1  0.91594571  0.14885842  0.67342670  1
  O  O591  1  0.91405716  0.14850183  0.92358719  1
  O  O592  1  0.91209042  0.48066490  0.17227858  1
  O  O593  1  0.91414322  0.48011242  0.42273848  1
  O  O594  1  0.91335134  0.48280243  0.67168134  1
  O  O595  1  0.91368086  0.48179013  0.92337904  1
  O  O596  1  0.91199722  0.81577405  0.17238180  1
  O  O597  1  0.91118682  0.81583725  0.42149966  1
  O  O598  1  0.91436885  0.81408012  0.67261889  1
  O  O599  1  0.91119475  0.81438378  0.92309346  1
  O  O600  1  0.08804427  0.18462030  0.07735784  1
  O  O601  1  0.08877852  0.18553017  0.32665677  1
  O  O602  1  0.08986073  0.18385100  0.57780922  1
  O  O603  1  0.09046208  0.18537355  0.82880932  1
  O  O604  1  0.08910220  0.51965885  0.07655033  1
  O  O605  1  0.08796600  0.51695051  0.32773715  1
  O  O606  1  0.08722240  0.51936824  0.57676348  1
  O  O607  1  0.08671169  0.51707693  0.82862271  1
  O  O608  1  0.08493219  0.85037734  0.07747386  1
  O  O609  1  0.08554196  0.85217892  0.32665685  1
  O  O610  1  0.08887349  0.85111675  0.57814889  1
  O  O611  1  0.08945112  0.85286244  0.82719164  1
  O  O612  1  0.58639089  0.18498694  0.07623126  1
  O  O613  1  0.58711310  0.18465209  0.32734105  1
  O  O614  1  0.58678413  0.18468803  0.57802871  1
  O  O615  1  0.58717757  0.18501825  0.82808679  1
  O  O616  1  0.58590742  0.51745822  0.07694069  1
  O  O617  1  0.58862300  0.51845448  0.32787991  1
  O  O618  1  0.58807087  0.51774341  0.57772129  1
  O  O619  1  0.58509168  0.51815007  0.82744216  1
  O  O620  1  0.58891059  0.85200123  0.07690201  1
  O  O621  1  0.58650590  0.85221399  0.32736082  1
  O  O622  1  0.58589348  0.85231688  0.57795383  1
  O  O623  1  0.58782739  0.85157740  0.82875518  1
  O  O624  1  0.33624608  0.18500020  0.04796633  1
  O  O625  1  0.33792520  0.18505033  0.29659305  1
  O  O626  1  0.33551164  0.18470587  0.54772264  1
  O  O627  1  0.33607772  0.18484866  0.79730631  1
  O  O628  1  0.33785390  0.51796145  0.04727132  1
  O  O629  1  0.33871267  0.51749005  0.29651010  1
  O  O630  1  0.33557111  0.51800419  0.54719147  1
  O  O631  1  0.33775284  0.51765077  0.79772603  1
  O  O632  1  0.33724014  0.85158131  0.04750344  1
  O  O633  1  0.33908423  0.85264843  0.29828845  1
  O  O634  1  0.33975845  0.85222828  0.54803573  1
  O  O635  1  0.33664135  0.85196849  0.79702707  1
  O  O636  1  0.83739979  0.18471835  0.04859710  1
  O  O637  1  0.83847757  0.18510128  0.29837916  1
  O  O638  1  0.83789117  0.18536497  0.54740710  1
  O  O639  1  0.83744147  0.18469201  0.79775245  1
  O  O640  1  0.83838132  0.51757830  0.04686519  1
  O  O641  1  0.83701983  0.51898917  0.29811684  1
  O  O642  1  0.83608153  0.51809778  0.54850462  1
  O  O643  1  0.83929055  0.51817415  0.79783039  1
  O  O644  1  0.83723981  0.85220600  0.04831954  1
  O  O645  1  0.83805325  0.85040182  0.29732219  1
  O  O646  1  0.83730503  0.85169177  0.54713596  1
  O  O647  1  0.83713102  0.85187568  0.79731267  1
  O  O648  1  0.16414196  0.14856017  0.20280810  1
  O  O649  1  0.16435417  0.14908744  0.45292259  1
  O  O650  1  0.16219120  0.14811110  0.70293253  1
  O  O651  1  0.16373434  0.14938234  0.95270766  1
  O  O652  1  0.16320274  0.48057477  0.20229370  1
  O  O653  1  0.16153472  0.48188454  0.45173937  1
  O  O654  1  0.16338607  0.48137461  0.70307233  1
  O  O655  1  0.16375203  0.48208224  0.95222680  1
  O  O656  1  0.16222091  0.81571194  0.20141945  1
  O  O657  1  0.16187422  0.81408714  0.45241165  1
  O  O658  1  0.16211695  0.81593482  0.70210701  1
  O  O659  1  0.16323945  0.81411626  0.95290422  1
  O  O660  1  0.66096609  0.14835258  0.20194336  1
  O  O661  1  0.66029228  0.14831344  0.45171134  1
  O  O662  1  0.66153744  0.14836716  0.70138334  1
  O  O663  1  0.66344519  0.14898746  0.95358764  1
  O  O664  1  0.66105382  0.48160136  0.20154125  1
  O  O665  1  0.66097786  0.48280354  0.45282303  1
  O  O666  1  0.66196897  0.48164262  0.70229477  1
  O  O667  1  0.66350176  0.48039227  0.95250317  1
  O  O668  1  0.66248362  0.81525982  0.20175523  1
  O  O669  1  0.66022141  0.81408288  0.45178102  1
  O  O670  1  0.66168948  0.81488235  0.70203672  1
  O  O671  1  0.66395473  0.81604433  0.95365591  1
