# generated using pymatgen
data_Na2MnFe(PO4)2
_symmetry_space_group_name_H-M   'P 1'
_cell_length_a   21.08156749
_cell_length_b   18.93320295
_cell_length_c   20.04057478
_cell_angle_alpha   90.00021198
_cell_angle_beta   89.99477880
_cell_angle_gamma   89.99834092
_symmetry_Int_Tables_number   1
_chemical_formula_structural   Na2MnFe(PO4)2
_chemical_formula_sum   'Na96 Mn48 Fe48 P96 O384'
_cell_volume   7999.02696058
_cell_formula_units_Z   48
loop_
 _symmetry_equiv_pos_site_id
 _symmetry_equiv_pos_as_xyz
  1  'x, y, z'
loop_
 _atom_site_type_symbol
 _atom_site_label
 _atom_site_symmetry_multiplicity
 _atom_site_fract_x
 _atom_site_fract_y
 _atom_site_fract_z
 _atom_site_occupancy
  Na  Na0  1  -0.00035191  -0.00118822  0.00096166  1
  Na  Na1  1  0.00190788  0.00009562  0.25059273  1
  Na  Na2  1  0.00153914  -0.00025256  0.49968903  1
  Na  Na3  1  0.00110486  -0.00015635  0.74876325  1
  Na  Na4  1  0.00055769  0.33398482  -0.00083976  1
  Na  Na5  1  -0.00040841  0.33296430  0.25072862  1
  Na  Na6  1  0.00028281  0.33348799  0.49998333  1
  Na  Na7  1  -0.00108951  0.33318547  0.74994191  1
  Na  Na8  1  -0.00369564  0.66607957  0.00049619  1
  Na  Na9  1  -0.00157077  0.66609527  0.25034864  1
  Na  Na10  1  0.00184313  0.66759982  0.49933249  1
  Na  Na11  1  -0.00017893  0.66745468  0.74982324  1
  Na  Na12  1  0.50225857  0.00029126  -0.00010536  1
  Na  Na13  1  0.49953982  -0.00052078  0.25073872  1
  Na  Na14  1  0.50028043  0.00020553  0.50029815  1
  Na  Na15  1  0.50242501  0.00006529  0.74941610  1
  Na  Na16  1  0.50110170  0.33379745  -0.00022327  1
  Na  Na17  1  0.50095684  0.33372198  0.25038694  1
  Na  Na18  1  0.50048751  0.33404216  0.50023338  1
  Na  Na19  1  0.49906097  0.33273309  0.74959512  1
  Na  Na20  1  0.50152701  0.66692039  0.00042808  1
  Na  Na21  1  0.49940840  0.66687376  0.24892126  1
  Na  Na22  1  0.49960907  0.66697866  0.50032870  1
  Na  Na23  1  0.50201079  0.66702281  0.74984647  1
  Na  Na24  1  0.25236373  0.00000273  0.12481168  1
  Na  Na25  1  0.25193274  -0.00043068  0.37578087  1
  Na  Na26  1  0.24943116  -0.00081544  0.62420239  1
  Na  Na27  1  0.24905522  -0.00071161  0.87439154  1
  Na  Na28  1  0.24907878  0.33323350  0.12497280  1
  Na  Na29  1  0.24918802  0.33270508  0.37488309  1
  Na  Na30  1  0.24901837  0.33286434  0.62520203  1
  Na  Na31  1  0.24863758  0.33291626  0.87467023  1
  Na  Na32  1  0.25340271  0.66767846  0.12529241  1
  Na  Na33  1  0.25312923  0.66747225  0.37614399  1
  Na  Na34  1  0.24989644  0.66616545  0.62491189  1
  Na  Na35  1  0.25092904  0.66703658  0.87393833  1
  Na  Na36  1  0.74617779  -0.00099242  0.12455145  1
  Na  Na37  1  0.74720020  -0.00000119  0.37538198  1
  Na  Na38  1  0.74777732  -0.00015464  0.62533841  1
  Na  Na39  1  0.74725146  -0.00103856  0.87546989  1
  Na  Na40  1  0.74890079  0.33297502  0.12503303  1
  Na  Na41  1  0.75036543  0.33354374  0.37443180  1
  Na  Na42  1  0.75240085  0.33406347  0.62495530  1
  Na  Na43  1  0.75170155  0.33438752  0.87577309  1
  Na  Na44  1  0.74920103  0.66686684  0.12567540  1
  Na  Na45  1  0.74724258  0.66657641  0.37490231  1
  Na  Na46  1  0.74803042  0.66651205  0.62507761  1
  Na  Na47  1  0.74962342  0.66671159  0.87467385  1
  Na  Na48  1  0.00013351  0.16633674  0.00014022  1
  Na  Na49  1  -0.00184228  0.16735055  0.25089764  1
  Na  Na50  1  -0.00082989  0.16656665  0.49990641  1
  Na  Na51  1  -0.00001374  0.16597018  0.74981050  1
  Na  Na52  1  -0.00121671  0.50017451  -0.00082263  1
  Na  Na53  1  0.00066516  0.49999348  0.25118402  1
  Na  Na54  1  0.00089398  0.49982754  0.49950755  1
  Na  Na55  1  -0.00096217  0.50032697  0.74901667  1
  Na  Na56  1  -0.00153113  0.83391014  0.00133253  1
  Na  Na57  1  0.00137981  0.83317316  0.24958930  1
  Na  Na58  1  0.00280886  0.83359701  0.49954062  1
  Na  Na59  1  0.00114726  0.83312804  0.74958457  1
  Na  Na60  1  0.50087955  0.16601413  -0.00045972  1
  Na  Na61  1  0.49921586  0.16636495  0.25072352  1
  Na  Na62  1  0.49913673  0.16633038  0.49946781  1
  Na  Na63  1  0.50134237  0.16539013  0.74902387  1
  Na  Na64  1  0.50343473  0.49963221  -0.00017968  1
  Na  Na65  1  0.50211288  0.49957514  0.24942305  1
  Na  Na66  1  0.49921705  0.50144929  0.50094253  1
  Na  Na67  1  0.50185859  0.49978446  0.75076491  1
  Na  Na68  1  0.49971017  0.83402196  0.00040713  1
  Na  Na69  1  0.49900658  0.83357849  0.25011894  1
  Na  Na70  1  0.49978589  0.83366521  0.49979373  1
  Na  Na71  1  0.50274661  0.83228791  0.74979499  1
  Na  Na72  1  0.25144541  0.16664502  0.12565366  1
  Na  Na73  1  0.25260754  0.16556598  0.37499212  1
  Na  Na74  1  0.24936781  0.16687657  0.62558162  1
  Na  Na75  1  0.24921275  0.16713268  0.87399724  1
  Na  Na76  1  0.24957366  0.50037199  0.12469509  1
  Na  Na77  1  0.25038840  0.50009799  0.37600349  1
  Na  Na78  1  0.24923394  0.50071035  0.62434545  1
  Na  Na79  1  0.24927764  0.50007340  0.87487898  1
  Na  Na80  1  0.25320753  0.83304455  0.12507561  1
  Na  Na81  1  0.25273774  0.83302864  0.37549324  1
  Na  Na82  1  0.24980601  0.83401538  0.62441374  1
  Na  Na83  1  0.25000650  0.83380180  0.87414258  1
  Na  Na84  1  0.74895727  0.16615108  0.12502564  1
  Na  Na85  1  0.74964739  0.16559807  0.37510202  1
  Na  Na86  1  0.74958083  0.16632902  0.62473231  1
  Na  Na87  1  0.75014429  0.16571667  0.87546593  1
  Na  Na88  1  0.74723257  0.50094373  0.12463592  1
  Na  Na89  1  0.74904246  0.50000802  0.37390959  1
  Na  Na90  1  0.75133640  0.49939629  0.62544551  1
  Na  Na91  1  0.74881336  0.50083228  0.87585398  1
  Na  Na92  1  0.74833519  0.83348025  0.12555700  1
  Na  Na93  1  0.74637716  0.83422369  0.37578299  1
  Na  Na94  1  0.74682224  0.83431824  0.62519201  1
  Na  Na95  1  0.74927733  0.83343857  0.87462846  1
  Mn  Mn96  1  0.85698038  0.41670351  0.25169867  1
  Mn  Mn97  1  0.89150634  0.58351326  0.37765106  1
  Mn  Mn98  1  0.64155348  0.24982607  0.24780155  1
  Mn  Mn99  1  0.14170168  0.58388293  0.99794441  1
  Mn  Mn100  1  0.39306604  0.58265461  0.12697796  1
  Mn  Mn101  1  0.89182170  0.91701153  0.37724381  1
  Mn  Mn102  1  0.10887859  0.08409651  0.12305371  1
  Mn  Mn103  1  0.39367374  0.58327245  0.87710629  1
  Mn  Mn104  1  0.39244011  0.25080253  0.37794650  1
  Mn  Mn105  1  0.89238428  0.25044039  0.12718589  1
  Mn  Mn106  1  0.10768325  0.41649655  0.37295683  1
  Mn  Mn107  1  0.64137554  0.58315081  0.49748559  1
  Mn  Mn108  1  0.60814219  0.41625551  0.62267734  1
  Mn  Mn109  1  0.35812624  0.41691943  0.00193680  1
  Mn  Mn110  1  0.39258461  0.25008746  0.87751555  1
  Mn  Mn111  1  0.85647519  0.75075033  0.25271525  1
  Mn  Mn112  1  0.64155714  0.24994941  0.99721567  1
  Mn  Mn113  1  0.85665290  0.08247497  0.25212842  1
  Mn  Mn114  1  0.35876308  0.08329550  0.00177353  1
  Mn  Mn115  1  0.14306371  0.58429887  0.24740535  1
  Mn  Mn116  1  0.35787550  0.41639966  0.50260824  1
  Mn  Mn117  1  0.35850052  0.41702666  0.25210331  1
  Mn  Mn118  1  0.64273292  0.25025333  0.74741406  1
  Mn  Mn119  1  0.85676445  0.75063957  0.50217223  1
  Mn  Mn120  1  0.10663265  0.41721976  0.87265677  1
  Mn  Mn121  1  0.35806711  0.75017570  0.75202304  1
  Mn  Mn122  1  0.10835931  0.08347494  0.37308799  1
  Mn  Mn123  1  0.85717213  0.41734910  0.00301560  1
  Mn  Mn124  1  0.10928267  0.75008629  0.37249637  1
  Mn  Mn125  1  0.35755605  0.41675326  0.75193751  1
  Mn  Mn126  1  0.14129651  0.58395381  0.74774889  1
  Mn  Mn127  1  0.14287758  0.91664825  0.99803928  1
  Mn  Mn128  1  0.39334077  0.91648800  0.87633349  1
  Mn  Mn129  1  0.85683417  0.08229809  0.00253486  1
  Mn  Mn130  1  0.85745258  0.08303702  0.75196964  1
  Mn  Mn131  1  0.14130934  0.24966621  0.74746188  1
  Mn  Mn132  1  0.35759094  0.08315730  0.75163642  1
  Mn  Mn133  1  0.64228028  0.25006076  0.49785097  1
  Mn  Mn134  1  0.89263031  0.91631265  0.62624217  1
  Mn  Mn135  1  0.10711544  0.75006736  0.87399743  1
  Mn  Mn136  1  0.10836151  0.74908578  0.12269682  1
  Mn  Mn137  1  0.85735381  0.75020985  0.75155195  1
  Mn  Mn138  1  0.60715763  0.75030474  0.12218921  1
  Mn  Mn139  1  0.14245428  0.24908739  0.24767343  1
  Mn  Mn140  1  0.10730815  0.08258772  0.87333354  1
  Mn  Mn141  1  0.89267021  0.24970422  0.62688691  1
  Mn  Mn142  1  0.89273454  0.58423562  0.62621057  1
  Mn  Mn143  1  0.89139391  0.91658784  0.12810861  1
  Fe  Fe144  1  0.60665994  0.75011387  0.62290907  1
  Fe  Fe145  1  0.89174574  0.91652560  0.87650217  1
  Fe  Fe146  1  0.64323919  0.58423312  0.99792279  1
  Fe  Fe147  1  0.64203194  0.91551437  0.99787326  1
  Fe  Fe148  1  0.64155528  0.58369242  0.24831708  1
  Fe  Fe149  1  0.35848605  0.75012545  0.25223588  1
  Fe  Fe150  1  0.64138114  0.91699618  0.49827485  1
  Fe  Fe151  1  0.60635359  0.08340362  0.37334839  1
  Fe  Fe152  1  0.10735891  0.41721054  0.12353538  1
  Fe  Fe153  1  0.39340938  0.91633420  0.37711629  1
  Fe  Fe154  1  0.14499962  0.91637673  0.24870897  1
  Fe  Fe155  1  0.64247459  0.91616814  0.74793789  1
  Fe  Fe156  1  0.39334750  0.91759349  0.12665694  1
  Fe  Fe157  1  0.39288336  0.58327406  0.62735543  1
  Fe  Fe158  1  0.35880203  0.74978366  0.00071346  1
  Fe  Fe159  1  0.14300961  0.24955196  0.49850211  1
  Fe  Fe160  1  0.64337716  0.58336853  0.74826228  1
  Fe  Fe161  1  0.35804349  0.75012875  0.50251041  1
  Fe  Fe162  1  0.89115362  0.58405795  0.87684424  1
  Fe  Fe163  1  0.60679911  0.08333691  0.62272914  1
  Fe  Fe164  1  0.10842310  0.74993450  0.62265921  1
  Fe  Fe165  1  0.85634584  0.75047951  0.00151594  1
  Fe  Fe166  1  0.60573174  0.74983806  0.37337939  1
  Fe  Fe167  1  0.60790563  0.41706616  0.37372160  1
  Fe  Fe168  1  0.60724767  0.41544003  0.12302874  1
  Fe  Fe169  1  0.89204483  0.24957347  0.37743154  1
  Fe  Fe170  1  0.85769609  0.41697941  0.75172138  1
  Fe  Fe171  1  0.60816789  0.41622324  0.87229936  1
  Fe  Fe172  1  0.10694121  0.41673354  0.62281034  1
  Fe  Fe173  1  0.39227182  0.25000233  0.62633710  1
  Fe  Fe174  1  0.60787934  0.08370565  0.87254832  1
  Fe  Fe175  1  0.35767590  0.08326062  0.50242861  1
  Fe  Fe176  1  0.60832731  0.74984810  0.87311506  1
  Fe  Fe177  1  0.35854521  0.08298691  0.25171396  1
  Fe  Fe178  1  0.14465612  0.91674045  0.49786636  1
  Fe  Fe179  1  0.39360401  0.91668759  0.62711539  1
  Fe  Fe180  1  0.14269215  0.24988675  0.99876021  1
  Fe  Fe181  1  0.85633255  0.08272926  0.50151025  1
  Fe  Fe182  1  0.10775727  0.08332805  0.62198454  1
  Fe  Fe183  1  0.39251149  0.24992670  0.12592458  1
  Fe  Fe184  1  0.85741627  0.41650108  0.50107380  1
  Fe  Fe185  1  0.64072549  0.91639599  0.24833398  1
  Fe  Fe186  1  0.89182536  0.58307335  0.12698055  1
  Fe  Fe187  1  0.60615733  0.08395853  0.12390986  1
  Fe  Fe188  1  0.39341180  0.58319051  0.37639475  1
  Fe  Fe189  1  0.14189439  0.91638250  0.74783939  1
  Fe  Fe190  1  0.89235907  0.24921837  0.87716568  1
  Fe  Fe191  1  0.14395961  0.58362082  0.49824801  1
  P  P192  1  0.05405801  0.25113081  0.10955479  1
  P  P193  1  0.05335318  0.24954530  0.36137645  1
  P  P194  1  0.05409526  0.24984853  0.60924663  1
  P  P195  1  0.05281861  0.24972397  0.86115696  1
  P  P196  1  0.05180387  0.58278424  0.11009922  1
  P  P197  1  0.05482343  0.58368593  0.36095665  1
  P  P198  1  0.05442182  0.58362421  0.60896766  1
  P  P199  1  0.05085753  0.58397798  0.86008132  1
  P  P200  1  0.05500679  0.91638668  0.11160949  1
  P  P201  1  0.05613227  0.91677832  0.36017649  1
  P  P202  1  0.05598713  0.91651470  0.60989965  1
  P  P203  1  0.05224822  0.91622254  0.85966868  1
  P  P204  1  0.55190191  0.24938611  0.11019977  1
  P  P205  1  0.55336852  0.25003517  0.36055437  1
  P  P206  1  0.55204240  0.24930414  0.60987541  1
  P  P207  1  0.55357841  0.25002476  0.85928700  1
  P  P208  1  0.55552735  0.58269404  0.11035803  1
  P  P209  1  0.55262441  0.58377064  0.35967147  1
  P  P210  1  0.55358816  0.58388776  0.61158933  1
  P  P211  1  0.55641165  0.58374753  0.86066952  1
  P  P212  1  0.55365568  0.91755966  0.11086241  1
  P  P213  1  0.55346570  0.91659613  0.36123726  1
  P  P214  1  0.55421097  0.91651398  0.61066949  1
  P  P215  1  0.55581628  0.91615673  0.86040070  1
  P  P216  1  0.44713398  0.08325276  0.14023048  1
  P  P217  1  0.44567564  0.08239816  0.38963978  1
  P  P218  1  0.44630702  0.08293797  0.63848411  1
  P  P219  1  0.44864957  0.08272898  0.88923442  1
  P  P220  1  0.44826920  0.41591654  0.13965153  1
  P  P221  1  0.44841536  0.41800185  0.39011703  1
  P  P222  1  0.44671900  0.41684055  0.64012360  1
  P  P223  1  0.44871203  0.41705285  0.88981882  1
  P  P224  1  0.44491493  0.75097168  0.13903820  1
  P  P225  1  0.44575853  0.74975913  0.38933572  1
  P  P226  1  0.44645817  0.75037387  0.63879938  1
  P  P227  1  0.44859875  0.74996166  0.89007093  1
  P  P228  1  0.94688896  0.08317166  0.14056427  1
  P  P229  1  0.94566716  0.08336290  0.39074921  1
  P  P230  1  0.94681386  0.08268492  0.63826764  1
  P  P231  1  0.94589222  0.08230505  0.88994793  1
  P  P232  1  0.94759946  0.41766838  0.14019168  1
  P  P233  1  0.94540311  0.41592494  0.39045756  1
  P  P234  1  0.94589320  0.41694218  0.63885591  1
  P  P235  1  0.94406787  0.41694404  0.88857062  1
  P  P236  1  0.94475759  0.74921494  0.13935975  1
  P  P237  1  0.94684222  0.75075425  0.39021950  1
  P  P238  1  0.94835889  0.75049493  0.63930006  1
  P  P239  1  0.94503654  0.75071426  0.89054111  1
  P  P240  1  0.19905085  0.08189623  0.23560249  1
  P  P241  1  0.19736411  0.08343063  0.48618157  1
  P  P242  1  0.19535414  0.08220802  0.73406309  1
  P  P243  1  0.19745505  0.08423723  0.98488458  1
  P  P244  1  0.19639449  0.41687264  0.23450323  1
  P  P245  1  0.19549694  0.41638572  0.48638319  1
  P  P246  1  0.19535646  0.41697264  0.73403141  1
  P  P247  1  0.19523506  0.41608553  0.98586678  1
  P  P248  1  0.19928025  0.75099248  0.23523715  1
  P  P249  1  0.19763883  0.75010738  0.48629213  1
  P  P250  1  0.19585401  0.75079852  0.73430124  1
  P  P251  1  0.19886218  0.75001729  0.98479235  1
  P  P252  1  0.69363437  0.08244458  0.23557468  1
  P  P253  1  0.69483493  0.08279116  0.48569653  1
  P  P254  1  0.69462106  0.08272267  0.73519125  1
  P  P255  1  0.69378658  0.08242434  0.98590402  1
  P  P256  1  0.69413965  0.41732502  0.23526886  1
  P  P257  1  0.69752021  0.41653176  0.48434849  1
  P  P258  1  0.69731462  0.41720362  0.73605429  1
  P  P259  1  0.69443549  0.41732904  0.98570087  1
  P  P260  1  0.69367956  0.75018583  0.23652955  1
  P  P261  1  0.69361346  0.75091978  0.48559146  1
  P  P262  1  0.69462376  0.74985104  0.73541122  1
  P  P263  1  0.69678095  0.75003297  0.98463976  1
  P  P264  1  0.30287550  0.25023128  0.01544081  1
  P  P265  1  0.30523000  0.24957358  0.26397121  1
  P  P266  1  0.30293586  0.24931731  0.51569978  1
  P  P267  1  0.30421556  0.24992065  0.76400328  1
  P  P268  1  0.30374887  0.58388258  0.01464522  1
  P  P269  1  0.30475761  0.58377874  0.26593826  1
  P  P270  1  0.30513585  0.58396587  0.51446240  1
  P  P271  1  0.30438464  0.58332176  0.76409928  1
  P  P272  1  0.30510687  0.91595312  0.01499268  1
  P  P273  1  0.30585097  0.91680266  0.26462459  1
  P  P274  1  0.30565148  0.91657733  0.51430587  1
  P  P275  1  0.30327333  0.91676057  0.76346751  1
  P  P276  1  0.80374747  0.24963520  0.01439069  1
  P  P277  1  0.80347309  0.24960068  0.26561772  1
  P  P278  1  0.80440360  0.24949714  0.51370460  1
  P  P279  1  0.80429957  0.25034830  0.76562042  1
  P  P280  1  0.80343949  0.58462956  0.01466284  1
  P  P281  1  0.80229948  0.58344513  0.26397560  1
  P  P282  1  0.80249326  0.58289309  0.51494227  1
  P  P283  1  0.80298397  0.58316178  0.76507031  1
  P  P284  1  0.80238133  0.91569667  0.01411489  1
  P  P285  1  0.80028937  0.91674602  0.26558478  1
  P  P286  1  0.80114288  0.91760237  0.51502249  1
  P  P287  1  0.80226514  0.91673234  0.76506773  1
  O  O288  1  0.05679894  0.24984340  0.18644453  1
  O  O289  1  0.05895499  0.24914867  0.43797983  1
  O  O290  1  0.05609974  0.24964542  0.68612691  1
  O  O291  1  0.05802351  0.24976454  0.93775917  1
  O  O292  1  0.05609816  0.58390062  0.18680794  1
  O  O293  1  0.06017792  0.58413264  0.43763823  1
  O  O294  1  0.05617960  0.58383520  0.68583671  1
  O  O295  1  0.05509259  0.58395455  0.93675168  1
  O  O296  1  0.06046520  0.91633342  0.18828076  1
  O  O297  1  0.06132224  0.91672354  0.43695159  1
  O  O298  1  0.05903225  0.91649230  0.68674660  1
  O  O299  1  0.05635870  0.91621126  0.93642128  1
  O  O300  1  0.55520507  0.24958200  0.18687911  1
  O  O301  1  0.55620617  0.24990604  0.43730745  1
  O  O302  1  0.55611365  0.24983444  0.68651747  1
  O  O303  1  0.55609473  0.25015224  0.93609678  1
  O  O304  1  0.55866894  0.58389049  0.18717459  1
  O  O305  1  0.55549781  0.58376554  0.43647931  1
  O  O306  1  0.55880955  0.58307130  0.68820010  1
  O  O307  1  0.55988547  0.58415206  0.93751486  1
  O  O308  1  0.55734370  0.91621984  0.18763351  1
  O  O309  1  0.55750593  0.91686267  0.43796705  1
  O  O310  1  0.55857021  0.91644876  0.68739103  1
  O  O311  1  0.55889264  0.91579714  0.93729096  1
  O  O312  1  0.44438547  0.08305603  0.06345523  1
  O  O313  1  0.44142973  0.08283807  0.31291108  1
  O  O314  1  0.44160805  0.08310888  0.56175667  1
  O  O315  1  0.44442884  0.08245812  0.81255946  1
  O  O316  1  0.44460230  0.41679878  0.06297023  1
  O  O317  1  0.44483797  0.41725098  0.31344739  1
  O  O318  1  0.44378407  0.41712449  0.56331224  1
  O  O319  1  0.44413393  0.41715851  0.81318858  1
  O  O320  1  0.44155610  0.74999883  0.06226619  1
  O  O321  1  0.44186644  0.75001328  0.31254051  1
  O  O322  1  0.44199733  0.75037215  0.56205405  1
  O  O323  1  0.44452391  0.74987464  0.81333191  1
  O  O324  1  0.94308352  0.08243349  0.06379371  1
  O  O325  1  0.94241122  0.08242063  0.31396887  1
  O  O326  1  0.94117059  0.08232951  0.56170768  1
  O  O327  1  0.94347290  0.08235168  0.81310333  1
  O  O328  1  0.94370897  0.41714456  0.06343581  1
  O  O329  1  0.94233931  0.41670479  0.31367157  1
  O  O330  1  0.94104887  0.41688373  0.56218761  1
  O  O331  1  0.94077458  0.41719898  0.81169073  1
  O  O332  1  0.93996173  0.75038240  0.06264531  1
  O  O333  1  0.94284649  0.75087398  0.31343367  1
  O  O334  1  0.94380059  0.75086163  0.56267916  1
  O  O335  1  0.94271390  0.75073689  0.81369208  1
  O  O336  1  0.19482296  0.08364694  0.06168325  1
  O  O337  1  0.19523440  0.08280303  0.31230131  1
  O  O338  1  0.19247638  0.08356423  0.56280906  1
  O  O339  1  0.19234027  0.08288170  0.81089191  1
  O  O340  1  0.19116852  0.41719862  0.06261232  1
  O  O341  1  0.19325889  0.41683824  0.31135651  1
  O  O342  1  0.19149234  0.41648551  0.56309998  1
  O  O343  1  0.19210825  0.41694823  0.81090491  1
  O  O344  1  0.19500966  0.74972299  0.06150290  1
  O  O345  1  0.19557842  0.75019772  0.31194742  1
  O  O346  1  0.19285461  0.74991066  0.56292117  1
  O  O347  1  0.19256876  0.75024574  0.81108490  1
  O  O348  1  0.68952704  0.08375734  0.06268147  1
  O  O349  1  0.68956066  0.08329713  0.31239617  1
  O  O350  1  0.69018734  0.08366563  0.56246319  1
  O  O351  1  0.69094858  0.08364632  0.81202543  1
  O  O352  1  0.69021576  0.41570094  0.06253082  1
  O  O353  1  0.69032351  0.41658252  0.31210683  1
  O  O354  1  0.69382746  0.41640277  0.56113742  1
  O  O355  1  0.69253842  0.41634832  0.81272666  1
  O  O356  1  0.69325584  0.75028769  0.06147090  1
  O  O357  1  0.68947255  0.75011132  0.31325960  1
  O  O358  1  0.68982085  0.75000771  0.56243408  1
  O  O359  1  0.69163304  0.74994153  0.81221203  1
  O  O360  1  0.30956955  0.25044851  0.18722413  1
  O  O361  1  0.30685300  0.25002008  0.43892104  1
  O  O362  1  0.30913748  0.24989671  0.68726589  1
  O  O363  1  0.30659096  0.25030354  0.93862258  1
  O  O364  1  0.30776683  0.58270357  0.18913675  1
  O  O365  1  0.31005642  0.58315107  0.43778977  1
  O  O366  1  0.30908473  0.58324066  0.68731331  1
  O  O367  1  0.30700310  0.58294372  0.93785077  1
  O  O368  1  0.30988906  0.91719328  0.18789719  1
  O  O369  1  0.31023082  0.91642612  0.43755411  1
  O  O370  1  0.30874576  0.91673834  0.68683085  1
  O  O371  1  0.30778875  0.91689285  0.93814022  1
  O  O372  1  0.80650349  0.24967594  0.18875657  1
  O  O373  1  0.80768949  0.24932951  0.43692265  1
  O  O374  1  0.80724253  0.24948728  0.68872935  1
  O  O375  1  0.80834551  0.24945911  0.93764837  1
  O  O376  1  0.80725662  0.58316301  0.18727878  1
  O  O377  1  0.80514662  0.58379722  0.43811793  1
  O  O378  1  0.80690073  0.58373309  0.68836450  1
  O  O379  1  0.80784262  0.58372630  0.93793027  1
  O  O380  1  0.80459554  0.91675569  0.18885734  1
  O  O381  1  0.80508764  0.91704837  0.43838084  1
  O  O382  1  0.80663602  0.91688143  0.68838883  1
  O  O383  1  0.80722581  0.91663162  0.93749219  1
  O  O384  1  0.23291817  0.25000510  0.04006475  1
  O  O385  1  0.23521807  0.24935313  0.28833739  1
  O  O386  1  0.23277862  0.24965285  0.53983563  1
  O  O387  1  0.23399520  0.24996016  0.78750031  1
  O  O388  1  0.23414127  0.58414240  0.04007974  1
  O  O389  1  0.23508825  0.58379808  0.29116448  1
  O  O390  1  0.23456859  0.58356649  0.53769474  1
  O  O391  1  0.23425991  0.58366365  0.78791025  1
  O  O392  1  0.23548932  0.91654661  0.04043379  1
  O  O393  1  0.23571537  0.91630170  0.28918882  1
  O  O394  1  0.23506060  0.91657654  0.53748855  1
  O  O395  1  0.23287142  0.91656185  0.78684551  1
  O  O396  1  0.73361549  0.24975476  0.03830162  1
  O  O397  1  0.73362830  0.24959227  0.29034315  1
  O  O398  1  0.73462585  0.24991143  0.53897708  1
  O  O399  1  0.73458266  0.24998733  0.79072932  1
  O  O400  1  0.73298323  0.58405191  0.03820473  1
  O  O401  1  0.73191729  0.58350026  0.28756991  1
  O  O402  1  0.73289633  0.58285088  0.54044292  1
  O  O403  1  0.73283485  0.58372139  0.78937280  1
  O  O404  1  0.73192036  0.91588249  0.03775311  1
  O  O405  1  0.73012078  0.91683129  0.28960959  1
  O  O406  1  0.73099555  0.91735452  0.53937306  1
  O  O407  1  0.73192357  0.91614148  0.78871085  1
  O  O408  1  0.26910664  0.08271751  0.21101790  1
  O  O409  1  0.26781438  0.08296261  0.46256342  1
  O  O410  1  0.26515847  0.08278380  0.70912630  1
  O  O411  1  0.26694297  0.08355190  0.95901059  1
  O  O412  1  0.26620952  0.41700081  0.20969307  1
  O  O413  1  0.26551195  0.41628216  0.46176775  1
  O  O414  1  0.26513917  0.41692403  0.70920886  1
  O  O415  1  0.26515711  0.41636945  0.96114236  1
  O  O416  1  0.26944732  0.75057058  0.21105400  1
  O  O417  1  0.26814110  0.75044190  0.46279111  1
  O  O418  1  0.26568661  0.75028888  0.70942730  1
  O  O419  1  0.26880239  0.75020136  0.95984601  1
  O  O420  1  0.76360669  0.08275870  0.21118052  1
  O  O421  1  0.76517141  0.08284405  0.46200686  1
  O  O422  1  0.76464101  0.08328243  0.71087969  1
  O  O423  1  0.76386784  0.08243064  0.96185638  1
  O  O424  1  0.76411025  0.41673545  0.21074920  1
  O  O425  1  0.76748986  0.41660200  0.45978459  1
  O  O426  1  0.76764418  0.41699650  0.71223312  1
  O  O427  1  0.76460724  0.41745783  0.96205114  1
  O  O428  1  0.76356411  0.75033613  0.21196933  1
  O  O429  1  0.76354995  0.75037117  0.46110676  1
  O  O430  1  0.76451003  0.75036047  0.71038301  1
  O  O431  1  0.76671155  0.75007971  0.95986571  1
  O  O432  1  0.01670523  0.08386639  0.16532659  1
  O  O433  1  0.01559642  0.08311871  0.41531360  1
  O  O434  1  0.01731319  0.08294979  0.66135312  1
  O  O435  1  0.01537839  0.08230983  0.91582530  1
  O  O436  1  0.01745190  0.41703907  0.16519606  1
  O  O437  1  0.01526026  0.41639024  0.41513862  1
  O  O438  1  0.01634907  0.41672908  0.66229152  1
  O  O439  1  0.01394724  0.41696694  0.91330936  1
  O  O440  1  0.01491040  0.74947161  0.16328093  1
  O  O441  1  0.01682407  0.75081391  0.41433736  1
  O  O442  1  0.01851235  0.75015408  0.66330825  1
  O  O443  1  0.01457423  0.75039107  0.91644752  1
  O  O444  1  0.51697367  0.08305002  0.16558493  1
  O  O445  1  0.51614267  0.08319875  0.41319754  1
  O  O446  1  0.51672316  0.08246326  0.66209241  1
  O  O447  1  0.51874523  0.08303066  0.91348315  1
  O  O448  1  0.51832466  0.41619631  0.16426022  1
  O  O449  1  0.51841430  0.41770873  0.41503961  1
  O  O450  1  0.51642517  0.41650036  0.66534389  1
  O  O451  1  0.51894498  0.41702060  0.91364294  1
  O  O452  1  0.51497514  0.75028318  0.16337674  1
  O  O453  1  0.51610235  0.75016701  0.41334342  1
  O  O454  1  0.51677893  0.75017359  0.66265556  1
  O  O455  1  0.51873474  0.75023241  0.91428560  1
  O  O456  1  0.48207282  0.24959817  0.08480247  1
  O  O457  1  0.48374769  0.25004239  0.33520548  1
  O  O458  1  0.48199559  0.24990734  0.58524069  1
  O  O459  1  0.48405708  0.24949019  0.83365537  1
  O  O460  1  0.48563570  0.58334578  0.08567540  1
  O  O461  1  0.48275610  0.58364301  0.33442435  1
  O  O462  1  0.48320687  0.58406689  0.58798202  1
  O  O463  1  0.48647409  0.58357171  0.83601846  1
  O  O464  1  0.48348445  0.91728634  0.08660585  1
  O  O465  1  0.48305795  0.91625817  0.33737822  1
  O  O466  1  0.48386362  0.91681253  0.58678126  1
  O  O467  1  0.48602476  0.91614002  0.83522095  1
  O  O468  1  0.98441953  0.25027998  0.08422996  1
  O  O469  1  0.98286765  0.24976695  0.33826155  1
  O  O470  1  0.98444911  0.24983647  0.58388571  1
  O  O471  1  0.98248383  0.24967143  0.83739878  1
  O  O472  1  0.98171860  0.58302223  0.08568406  1
  O  O473  1  0.98453343  0.58323798  0.33768268  1
  O  O474  1  0.98488055  0.58386219  0.58309038  1
  O  O475  1  0.98078912  0.58411568  0.83566452  1
  O  O476  1  0.98467399  0.91632049  0.08837232  1
  O  O477  1  0.98576692  0.91677221  0.33701801  1
  O  O478  1  0.98604011  0.91659895  0.58506323  1
  O  O479  1  0.98215068  0.91629686  0.83521183  1
  O  O480  1  0.08774643  0.31670857  0.07773153  1
  O  O481  1  0.08665237  0.31451983  0.32798700  1
  O  O482  1  0.08836418  0.31501928  0.57721950  1
  O  O483  1  0.08603902  0.31474947  0.82758318  1
  O  O484  1  0.08563352  0.64772786  0.07681795  1
  O  O485  1  0.08779912  0.64877992  0.32718167  1
  O  O486  1  0.08923421  0.64854535  0.57684388  1
  O  O487  1  0.08486102  0.64902002  0.82750805  1
  O  O488  1  0.08812860  0.98158745  0.07821254  1
  O  O489  1  0.08963586  0.98187650  0.32704919  1
  O  O490  1  0.08998157  0.98159248  0.57708199  1
  O  O491  1  0.08638573  0.98111612  0.82680976  1
  O  O492  1  0.58629350  0.31418560  0.07755151  1
  O  O493  1  0.58746121  0.31519956  0.32840782  1
  O  O494  1  0.58628633  0.31425836  0.57726047  1
  O  O495  1  0.58758383  0.31532636  0.82699594  1
  O  O496  1  0.58964055  0.64754505  0.07711291  1
  O  O497  1  0.58647525  0.64896301  0.32711179  1
  O  O498  1  0.58679133  0.64895717  0.57828744  1
  O  O499  1  0.59001093  0.64886610  0.82765627  1
  O  O500  1  0.58725924  0.98272201  0.07847706  1
  O  O501  1  0.58663832  0.98171645  0.32793020  1
  O  O502  1  0.58780776  0.98144818  0.57731946  1
  O  O503  1  0.58974143  0.98128178  0.82781620  1
  O  O504  1  0.41304644  0.01819994  0.17288688  1
  O  O505  1  0.41280352  0.01714935  0.42293789  1
  O  O506  1  0.41309998  0.01777602  0.67180118  1
  O  O507  1  0.41529331  0.01763598  0.92226850  1
  O  O508  1  0.41458115  0.35080738  0.17219656  1
  O  O509  1  0.41432796  0.35305258  0.42300432  1
  O  O510  1  0.41246397  0.35155052  0.67196258  1
  O  O511  1  0.41501192  0.35197599  0.92265864  1
  O  O512  1  0.41088869  0.68628465  0.17243814  1
  O  O513  1  0.41263306  0.68451332  0.42245635  1
  O  O514  1  0.41304672  0.68542151  0.67206572  1
  O  O515  1  0.41482755  0.68500251  0.92308181  1
  O  O516  1  0.91314174  0.01808378  0.17355896  1
  O  O517  1  0.91149825  0.01849013  0.42380891  1
  O  O518  1  0.91373730  0.01772380  0.67207999  1
  O  O519  1  0.91170358  0.01695203  0.92202430  1
  O  O520  1  0.91335869  0.35265147  0.17270545  1
  O  O521  1  0.91152221  0.35069016  0.42281190  1
  O  O522  1  0.91234559  0.35204901  0.67233512  1
  O  O523  1  0.91043722  0.35176394  0.92131486  1
  O  O524  1  0.91135436  0.68374726  0.17193665  1
  O  O525  1  0.91295778  0.68561313  0.42274206  1
  O  O526  1  0.91442158  0.68548837  0.67209193  1
  O  O527  1  0.91028309  0.68571277  0.92254585  1
  O  O528  1  0.16581118  0.01653447  0.20303367  1
  O  O529  1  0.16414410  0.01829437  0.45291908  1
  O  O530  1  0.16149674  0.01701872  0.70176402  1
  O  O531  1  0.16288509  0.01919506  0.95270660  1
  O  O532  1  0.16215316  0.35182854  0.20223285  1
  O  O533  1  0.16201460  0.35110160  0.45347556  1
  O  O534  1  0.16103036  0.35198308  0.70168395  1
  O  O535  1  0.16171433  0.35058482  0.95343310  1
  O  O536  1  0.16538013  0.68607144  0.20209986  1
  O  O537  1  0.16472051  0.68496453  0.45269836  1
  O  O538  1  0.16150218  0.68590665  0.70155628  1
  O  O539  1  0.16475965  0.68510570  0.95196450  1
  O  O540  1  0.65984807  0.01729630  0.20302623  1
  O  O541  1  0.66109977  0.01774758  0.45279775  1
  O  O542  1  0.66108944  0.01732734  0.70274505  1
  O  O543  1  0.66019843  0.01713429  0.95342298  1
  O  O544  1  0.66023624  0.35231554  0.20207998  1
  O  O545  1  0.66338667  0.35168478  0.45157664  1
  O  O546  1  0.66414996  0.35225878  0.70221475  1
  O  O547  1  0.66100752  0.35251196  0.95179669  1
  O  O548  1  0.66026110  0.68509060  0.20335513  1
  O  O549  1  0.65944330  0.68619351  0.45233972  1
  O  O550  1  0.66099516  0.68457148  0.70270914  1
  O  O551  1  0.66293046  0.68492512  0.95208765  1
  O  O552  1  0.33692450  0.31517580  0.04827627  1
  O  O553  1  0.33844644  0.31474173  0.29748218  1
  O  O554  1  0.33695506  0.31425372  0.54859222  1
  O  O555  1  0.33744876  0.31497796  0.79737999  1
  O  O556  1  0.33835210  0.64893705  0.04637495  1
  O  O557  1  0.33915486  0.64895640  0.29786093  1
  O  O558  1  0.33824738  0.64918614  0.54773955  1
  O  O559  1  0.33813356  0.64838687  0.79694951  1
  O  O560  1  0.33974119  0.98076438  0.04770741  1
  O  O561  1  0.33922928  0.98185678  0.29802810  1
  O  O562  1  0.33871816  0.98169729  0.54772991  1
  O  O563  1  0.33643423  0.98177554  0.79701667  1
  O  O564  1  0.83704673  0.31491175  0.04740658  1
  O  O565  1  0.83766522  0.31467048  0.29791560  1
  O  O566  1  0.83838218  0.31466275  0.54616930  1
  O  O567  1  0.83840847  0.31554286  0.79757342  1
  O  O568  1  0.83647679  0.64990770  0.04759991  1
  O  O569  1  0.83551307  0.64843594  0.29749883  1
  O  O570  1  0.83649717  0.64804530  0.54755250  1
  O  O571  1  0.83685329  0.64824945  0.79795415  1
  O  O572  1  0.83557519  0.98052926  0.04814327  1
  O  O573  1  0.83405405  0.98174642  0.29839966  1
  O  O574  1  0.83490530  0.98270210  0.54775922  1
  O  O575  1  0.83545517  0.98182136  0.79842956  1
  O  O576  1  0.41302719  0.14832488  0.17260297  1
  O  O577  1  0.41180636  0.14717011  0.42302810  1
  O  O578  1  0.41334243  0.14815858  0.67175052  1
  O  O579  1  0.41475583  0.14767812  0.92206056  1
  O  O580  1  0.41461655  0.48097806  0.17270293  1
  O  O581  1  0.41453222  0.48308993  0.42254468  1
  O  O582  1  0.41292964  0.48207085  0.67262697  1
  O  O583  1  0.41528448  0.48207440  0.92303585  1
  O  O584  1  0.41180418  0.81643056  0.17175212  1
  O  O585  1  0.41210733  0.81465765  0.42268058  1
  O  O586  1  0.41353531  0.81573040  0.67206467  1
  O  O587  1  0.41445606  0.81487809  0.92268042  1
  O  O588  1  0.91249534  0.14824984  0.17253943  1
  O  O589  1  0.91153906  0.14852753  0.42296029  1
  O  O590  1  0.91359608  0.14774462  0.67176512  1
  O  O591  1  0.91156855  0.14742521  0.92209557  1
  O  O592  1  0.91362407  0.48281433  0.17267098  1
  O  O593  1  0.91108019  0.48076099  0.42331173  1
  O  O594  1  0.91256132  0.48205469  0.67216442  1
  O  O595  1  0.91044095  0.48218449  0.92137496  1
  O  O596  1  0.91112728  0.81408883  0.17304105  1
  O  O597  1  0.91299561  0.81578895  0.42304632  1
  O  O598  1  0.91469162  0.81541649  0.67251378  1
  O  O599  1  0.91078668  0.81594418  0.92279241  1
  O  O600  1  0.08904047  0.18652710  0.07690015  1
  O  O601  1  0.08639131  0.18451332  0.32754582  1
  O  O602  1  0.08853224  0.18485438  0.57683276  1
  O  O603  1  0.08614133  0.18462729  0.82780798  1
  O  O604  1  0.08545715  0.51750251  0.07765748  1
  O  O605  1  0.08822056  0.51860526  0.32789786  1
  O  O606  1  0.08871905  0.51832677  0.57710651  1
  O  O607  1  0.08463891  0.51899909  0.82713721  1
  O  O608  1  0.08812272  0.85130826  0.07794152  1
  O  O609  1  0.08979591  0.85192837  0.32671249  1
  O  O610  1  0.08995952  0.85141315  0.57717826  1
  O  O611  1  0.08630255  0.85119447  0.82697769  1
  O  O612  1  0.58570567  0.18412749  0.07779569  1
  O  O613  1  0.58724044  0.18480893  0.32815592  1
  O  O614  1  0.58556237  0.18411846  0.57718111  1
  O  O615  1  0.58810158  0.18499292  0.82731607  1
  O  O616  1  0.58920995  0.51746627  0.07814028  1
  O  O617  1  0.58717508  0.51885566  0.32747328  1
  O  O618  1  0.58662624  0.51882681  0.57782514  1
  O  O619  1  0.59038086  0.51864055  0.82792621  1
  O  O620  1  0.58744138  0.85278056  0.07708363  1
  O  O621  1  0.58678574  0.85157033  0.32788130  1
  O  O622  1  0.58743184  0.85141040  0.57733669  1
  O  O623  1  0.58975323  0.85110337  0.82761555  1
  O  O624  1  0.33725316  0.18524125  0.04786076  1
  O  O625  1  0.33899437  0.18441214  0.29654756  1
  O  O626  1  0.33683239  0.18426556  0.54833313  1
  O  O627  1  0.33738345  0.18467521  0.79714581  1
  O  O628  1  0.33763772  0.51876075  0.04754113  1
  O  O629  1  0.33902302  0.51886176  0.29881120  1
  O  O630  1  0.33846553  0.51906799  0.54823292  1
  O  O631  1  0.33765728  0.51827434  0.79743441  1
  O  O632  1  0.33927842  0.85072993  0.04687999  1
  O  O633  1  0.33972800  0.85173919  0.29759588  1
  O  O634  1  0.33893137  0.85159450  0.54783030  1
  O  O635  1  0.33671111  0.85181235  0.79688645  1
  O  O636  1  0.83705356  0.18459869  0.04758549  1
  O  O637  1  0.83761530  0.18463440  0.29814768  1
  O  O638  1  0.83784503  0.18412313  0.54653410  1
  O  O639  1  0.83863504  0.18534202  0.79816895  1
  O  O640  1  0.83695063  0.51980853  0.04850529  1
  O  O641  1  0.83564078  0.51838648  0.29720608  1
  O  O642  1  0.83684114  0.51769778  0.54666402  1
  O  O643  1  0.83655459  0.51814840  0.79803252  1
  O  O644  1  0.83545013  0.85044604  0.04729152  1
  O  O645  1  0.83395252  0.85180480  0.29863252  1
  O  O646  1  0.83485204  0.85252813  0.54808746  1
  O  O647  1  0.83624829  0.85184235  0.79795297  1
  O  O648  1  0.16472656  0.14666085  0.20271461  1
  O  O649  1  0.16439144  0.14860503  0.45262572  1
  O  O650  1  0.16084485  0.14708768  0.70147814  1
  O  O651  1  0.16333758  0.14950637  0.95288617  1
  O  O652  1  0.16215707  0.48186263  0.20193599  1
  O  O653  1  0.16215485  0.48170828  0.45350912  1
  O  O654  1  0.16113104  0.48199143  0.70166851  1
  O  O655  1  0.16135916  0.48101518  0.95255262  1
  O  O656  1  0.16575709  0.81615562  0.20266485  1
  O  O657  1  0.16451379  0.81523979  0.45290886  1
  O  O658  1  0.16196396  0.81592798  0.70178983  1
  O  O659  1  0.16481804  0.81515357  0.95238318  1
  O  O660  1  0.65986874  0.14739428  0.20220294  1
  O  O661  1  0.66144213  0.14768066  0.45201688  1
  O  O662  1  0.66059504  0.14742591  0.70172720  1
  O  O663  1  0.66029127  0.14729170  0.95208482  1
  O  O664  1  0.66057174  0.48253189  0.20276829  1
  O  O665  1  0.66328526  0.48149953  0.45175451  1
  O  O666  1  0.66401902  0.48242443  0.70307467  1
  O  O667  1  0.66106170  0.48270965  0.95329594  1
  O  O668  1  0.66000299  0.81534223  0.20352690  1
  O  O669  1  0.65993889  0.81625550  0.45320052  1
  O  O670  1  0.66028466  0.81473145  0.70267831  1
  O  O671  1  0.66254756  0.81484740  0.95192088  1
