# generated using pymatgen
data_Na2MnFe(PO4)2
_symmetry_space_group_name_H-M   'P 1'
_cell_length_a   21.08617055
_cell_length_b   18.93979042
_cell_length_c   20.04529137
_cell_angle_alpha   89.99970796
_cell_angle_beta   90.00335710
_cell_angle_gamma   89.99617966
_symmetry_Int_Tables_number   1
_chemical_formula_structural   Na2MnFe(PO4)2
_chemical_formula_sum   'Na96 Mn48 Fe48 P96 O384'
_cell_volume   8005.44090007
_cell_formula_units_Z   48
loop_
 _symmetry_equiv_pos_site_id
 _symmetry_equiv_pos_as_xyz
  1  'x, y, z'
loop_
 _atom_site_type_symbol
 _atom_site_label
 _atom_site_symmetry_multiplicity
 _atom_site_fract_x
 _atom_site_fract_y
 _atom_site_fract_z
 _atom_site_occupancy
  Na  Na0  1  -0.00071739  -0.00061009  0.00053884  1
  Na  Na1  1  0.00239861  0.00025810  0.24955509  1
  Na  Na2  1  0.00240971  0.00024820  0.50052211  1
  Na  Na3  1  -0.00074717  -0.00081536  0.75020855  1
  Na  Na4  1  0.00157628  0.33430827  -0.00059803  1
  Na  Na5  1  0.00133565  0.33415474  0.24969691  1
  Na  Na6  1  -0.00205506  0.33207297  0.50094811  1
  Na  Na7  1  0.00107399  0.33382592  0.74894901  1
  Na  Na8  1  0.00034213  0.66659206  -0.00054944  1
  Na  Na9  1  0.00297255  0.66700143  0.25028235  1
  Na  Na10  1  0.00249295  0.66700362  0.50050072  1
  Na  Na11  1  -0.00003358  0.66655144  0.75045641  1
  Na  Na12  1  0.50302550  0.00074563  -0.00069959  1
  Na  Na13  1  0.50191109  -0.00022868  0.25021253  1
  Na  Na14  1  0.50256378  -0.00003611  0.50124766  1
  Na  Na15  1  0.50310419  0.00054666  0.74973961  1
  Na  Na16  1  0.49689176  0.33311379  -0.00022055  1
  Na  Na17  1  0.49694339  0.33306841  0.25034164  1
  Na  Na18  1  0.49901090  0.33385587  0.50039733  1
  Na  Na19  1  0.49966799  0.33409755  0.74947685  1
  Na  Na20  1  0.49953267  0.66754426  -0.00077908  1
  Na  Na21  1  0.50006342  0.66757548  0.24921371  1
  Na  Na22  1  0.49817997  0.66685878  0.50023440  1
  Na  Na23  1  0.49806232  0.66661632  0.75033196  1
  Na  Na24  1  0.24855199  -0.00093276  0.12551470  1
  Na  Na25  1  0.24816420  -0.00115907  0.37495135  1
  Na  Na26  1  0.24923069  -0.00034576  0.62388726  1
  Na  Na27  1  0.24896423  -0.00084751  0.87479601  1
  Na  Na28  1  0.25065688  0.33349205  0.12381530  1
  Na  Na29  1  0.25358782  0.33484946  0.37521575  1
  Na  Na30  1  0.25205249  0.33363572  0.62538566  1
  Na  Na31  1  0.25117920  0.33358806  0.87566465  1
  Na  Na32  1  0.24647086  0.66638044  0.12519130  1
  Na  Na33  1  0.24790929  0.66605269  0.37475444  1
  Na  Na34  1  0.25084379  0.66774048  0.62608032  1
  Na  Na35  1  0.24769173  0.66633585  0.87441351  1
  Na  Na36  1  0.74926149  -0.00004065  0.12464132  1
  Na  Na37  1  0.74630894  -0.00067064  0.37542457  1
  Na  Na38  1  0.74649849  -0.00107751  0.62570276  1
  Na  Na39  1  0.74985025  -0.00016127  0.87550329  1
  Na  Na40  1  0.75095309  0.33384250  0.12493949  1
  Na  Na41  1  0.75021732  0.33365103  0.37561900  1
  Na  Na42  1  0.74791260  0.33304308  0.62479584  1
  Na  Na43  1  0.74960486  0.33331749  0.87398675  1
  Na  Na44  1  0.75165685  0.66665848  0.12439898  1
  Na  Na45  1  0.74913424  0.66651403  0.37454620  1
  Na  Na46  1  0.75081562  0.66710556  0.62472010  1
  Na  Na47  1  0.75326840  0.66734928  0.87605780  1
  Na  Na48  1  -0.00151328  0.16716566  -0.00027285  1
  Na  Na49  1  0.00048954  0.16593743  0.24927740  1
  Na  Na50  1  0.00029020  0.16642368  0.50054591  1
  Na  Na51  1  -0.00008168  0.16680622  0.74998622  1
  Na  Na52  1  0.00049149  0.50049698  0.00009007  1
  Na  Na53  1  0.00179334  0.50001346  0.25072473  1
  Na  Na54  1  0.00021813  0.50043390  0.50079491  1
  Na  Na55  1  0.00046693  0.50012641  0.74939300  1
  Na  Na56  1  0.00088756  0.83326135  -0.00051671  1
  Na  Na57  1  0.00422116  0.83223898  0.24966034  1
  Na  Na58  1  0.00192937  0.83362322  0.50060640  1
  Na  Na59  1  0.00019209  0.83382350  0.75023700  1
  Na  Na60  1  0.50103085  0.16623744  -0.00110728  1
  Na  Na61  1  0.50103577  0.16626753  0.25061827  1
  Na  Na62  1  0.50191262  0.16643375  0.50098757  1
  Na  Na63  1  0.50167526  0.16611878  0.74975469  1
  Na  Na64  1  0.49867480  0.49984247  -0.00058684  1
  Na  Na65  1  0.49863534  0.49983732  0.24921395  1
  Na  Na66  1  0.49768558  0.50040171  0.49945592  1
  Na  Na67  1  0.49921579  0.49968487  0.75023563  1
  Na  Na68  1  0.49921233  0.83316676  -0.00017217  1
  Na  Na69  1  0.49978514  0.83308811  0.24999497  1
  Na  Na70  1  0.49970819  0.83329874  0.50108213  1
  Na  Na71  1  0.50032224  0.83222668  0.74984144  1
  Na  Na72  1  0.24992904  0.16676814  0.12473902  1
  Na  Na73  1  0.25012597  0.16679614  0.37503083  1
  Na  Na74  1  0.25094101  0.16688178  0.62420525  1
  Na  Na75  1  0.25127726  0.16613275  0.87510120  1
  Na  Na76  1  0.24843080  0.50003201  0.12404833  1
  Na  Na77  1  0.24906810  0.50037950  0.37490402  1
  Na  Na78  1  0.25040943  0.49991592  0.62630391  1
  Na  Na79  1  0.24939593  0.49972902  0.87428888  1
  Na  Na80  1  0.24746725  0.83370322  0.12564390  1
  Na  Na81  1  0.25025499  0.83311157  0.37507845  1
  Na  Na82  1  0.24931024  0.83399031  0.62532644  1
  Na  Na83  1  0.24947529  0.83293560  0.87516478  1
  Na  Na84  1  0.74926483  0.16615262  0.12558876  1
  Na  Na85  1  0.74714409  0.16684361  0.37553595  1
  Na  Na86  1  0.74783619  0.16676556  0.62562469  1
  Na  Na87  1  0.74917020  0.16677875  0.87480377  1
  Na  Na88  1  0.75277659  0.50032889  0.12462696  1
  Na  Na89  1  0.75124475  0.49948710  0.37466252  1
  Na  Na90  1  0.74990489  0.50005137  0.62492281  1
  Na  Na91  1  0.75279668  0.49978985  0.87497863  1
  Na  Na92  1  0.74889585  0.83408190  0.12409221  1
  Na  Na93  1  0.74778686  0.83336966  0.37529416  1
  Na  Na94  1  0.74809203  0.83359603  0.62447436  1
  Na  Na95  1  0.75210074  0.83191087  0.87568120  1
  Mn  Mn96  1  0.39103740  0.58401739  0.12647811  1
  Mn  Mn97  1  0.89348748  0.58388371  0.37723216  1
  Mn  Mn98  1  0.39236982  0.91683465  0.12668267  1
  Mn  Mn99  1  0.85881988  0.41629010  0.25245535  1
  Mn  Mn100  1  0.35831423  0.08320762  0.25276023  1
  Mn  Mn101  1  0.64240977  0.58381600  0.74781356  1
  Mn  Mn102  1  0.39204250  0.24914729  0.12716440  1
  Mn  Mn103  1  0.85653172  0.08276421  0.75214387  1
  Mn  Mn104  1  0.35666570  0.74958572  0.25175635  1
  Mn  Mn105  1  0.39276448  0.91658805  0.62761539  1
  Mn  Mn106  1  0.64378102  0.58290505  0.99794938  1
  Mn  Mn107  1  0.89179297  0.91711100  0.62681679  1
  Mn  Mn108  1  0.10796494  0.08364822  0.12221733  1
  Mn  Mn109  1  0.60686771  0.74988188  0.37261088  1
  Mn  Mn110  1  0.89270369  0.91670700  0.37685691  1
  Mn  Mn111  1  0.39087068  0.58315928  0.87778498  1
  Mn  Mn112  1  0.64227082  0.25112494  0.99776348  1
  Mn  Mn113  1  0.89246685  0.58340035  0.62702874  1
  Mn  Mn114  1  0.85692785  0.08267072  0.25282235  1
  Mn  Mn115  1  0.60816179  0.74974171  0.87282339  1
  Mn  Mn116  1  0.10830915  0.08377198  0.62357430  1
  Mn  Mn117  1  0.64126309  0.58297682  0.49775758  1
  Mn  Mn118  1  0.64204952  0.58367832  0.24704019  1
  Mn  Mn119  1  0.35807423  0.08282125  0.50198275  1
  Mn  Mn120  1  0.89212794  0.25021407  0.87680182  1
  Mn  Mn121  1  0.89198436  0.24925704  0.37750083  1
  Mn  Mn122  1  0.64118873  0.25044712  0.24753398  1
  Mn  Mn123  1  0.60682530  0.41691041  0.37261494  1
  Mn  Mn124  1  0.89293263  0.91594701  0.12809775  1
  Mn  Mn125  1  0.14288613  0.25026549  0.24802444  1
  Mn  Mn126  1  0.10848321  0.75013039  0.62325228  1
  Mn  Mn127  1  0.10821698  0.41594553  0.62274608  1
  Mn  Mn128  1  0.85686660  0.08341912  0.50188785  1
  Mn  Mn129  1  0.60745227  0.41713985  0.12213282  1
  Mn  Mn130  1  0.10763999  0.08377088  0.87223256  1
  Mn  Mn131  1  0.39216200  0.91736675  0.87688092  1
  Mn  Mn132  1  0.14247647  0.24957968  0.99687561  1
  Mn  Mn133  1  0.85832611  0.75075866  0.25217934  1
  Mn  Mn134  1  0.14257938  0.25035682  0.49750876  1
  Mn  Mn135  1  0.64305041  0.91604243  0.99739253  1
  Mn  Mn136  1  0.85734084  0.41711837  0.75220050  1
  Mn  Mn137  1  0.60750419  0.41684419  0.87332396  1
  Mn  Mn138  1  0.35836107  0.08203317  0.00237807  1
  Mn  Mn139  1  0.89237680  0.25070760  0.12741844  1
  Mn  Mn140  1  0.85801028  0.75019184  0.50181739  1
  Mn  Mn141  1  0.39313989  0.24990550  0.62777422  1
  Mn  Mn142  1  0.39059511  0.58386644  0.37722809  1
  Mn  Mn143  1  0.10845666  0.41589993  0.37353153  1
  Fe  Fe144  1  0.35707284  0.41634931  0.75206998  1
  Fe  Fe145  1  0.10750065  0.74971635  0.12203791  1
  Fe  Fe146  1  0.89474437  0.58354798  0.12686304  1
  Fe  Fe147  1  0.64304270  0.91570217  0.74895376  1
  Fe  Fe148  1  0.85915831  0.41633875  0.00170340  1
  Fe  Fe149  1  0.10795490  0.08350050  0.37319708  1
  Fe  Fe150  1  0.60725998  0.74966334  0.12271162  1
  Fe  Fe151  1  0.85885527  0.74996695  0.00256534  1
  Fe  Fe152  1  0.60654133  0.08335957  0.37343169  1
  Fe  Fe153  1  0.10875682  0.75067553  0.37366418  1
  Fe  Fe154  1  0.60749410  0.08350177  0.62317497  1
  Fe  Fe155  1  0.39267214  0.91712857  0.37676504  1
  Fe  Fe156  1  0.64172969  0.91630639  0.49796903  1
  Fe  Fe157  1  0.10771630  0.41679725  0.87291898  1
  Fe  Fe158  1  0.14303569  0.58305867  0.74827084  1
  Fe  Fe159  1  0.14262724  0.91747878  0.74876989  1
  Fe  Fe160  1  0.14368428  0.58347966  0.49912092  1
  Fe  Fe161  1  0.85690555  0.41627066  0.50174058  1
  Fe  Fe162  1  0.35825817  0.08315644  0.75141628  1
  Fe  Fe163  1  0.14230757  0.58280294  0.24780066  1
  Fe  Fe164  1  0.39292394  0.24895651  0.37713880  1
  Fe  Fe165  1  0.10672173  0.75012913  0.87287430  1
  Fe  Fe166  1  0.60638142  0.41773136  0.62303243  1
  Fe  Fe167  1  0.89411415  0.58344745  0.87653307  1
  Fe  Fe168  1  0.60788154  0.08354802  0.87299752  1
  Fe  Fe169  1  0.35668413  0.75061316  0.75200992  1
  Fe  Fe170  1  0.39287300  0.24932243  0.87557761  1
  Fe  Fe171  1  0.89272902  0.91632922  0.87643841  1
  Fe  Fe172  1  0.35554558  0.74979158  0.00153773  1
  Fe  Fe173  1  0.14191242  0.58363066  0.99755700  1
  Fe  Fe174  1  0.10801186  0.41671042  0.12283272  1
  Fe  Fe175  1  0.64159336  0.25050079  0.74810345  1
  Fe  Fe176  1  0.60688072  0.74898191  0.62373645  1
  Fe  Fe177  1  0.39183268  0.58361823  0.62668799  1
  Fe  Fe178  1  0.85759940  0.75040298  0.75133299  1
  Fe  Fe179  1  0.35754152  0.41770557  0.50216695  1
  Fe  Fe180  1  0.14226953  0.91655780  0.99773998  1
  Fe  Fe181  1  0.89170453  0.24964280  0.62687123  1
  Fe  Fe182  1  0.35671955  0.74985067  0.50168481  1
  Fe  Fe183  1  0.60766196  0.08322552  0.12293392  1
  Fe  Fe184  1  0.14310733  0.91674390  0.24863941  1
  Fe  Fe185  1  0.85687996  0.08357507  0.00153232  1
  Fe  Fe186  1  0.64250456  0.25041090  0.49822504  1
  Fe  Fe187  1  0.14317725  0.91635670  0.49760658  1
  Fe  Fe188  1  0.35652262  0.41719878  0.25096724  1
  Fe  Fe189  1  0.35592889  0.41768135  0.00165741  1
  Fe  Fe190  1  0.14364790  0.24947930  0.74858500  1
  Fe  Fe191  1  0.64152230  0.91575114  0.24802808  1
  P  P192  1  0.05381693  0.25081382  0.10956011  1
  P  P193  1  0.05330389  0.24925578  0.35990878  1
  P  P194  1  0.05353420  0.24970947  0.61112076  1
  P  P195  1  0.05392558  0.25094395  0.85882815  1
  P  P196  1  0.05516271  0.58317845  0.11031573  1
  P  P197  1  0.05651960  0.58387102  0.36120546  1
  P  P198  1  0.05583984  0.58325219  0.61079459  1
  P  P199  1  0.05468842  0.58344692  0.86055819  1
  P  P200  1  0.05567757  0.91590395  0.11031905  1
  P  P201  1  0.05580305  0.91679453  0.36070010  1
  P  P202  1  0.05562364  0.91692185  0.61072894  1
  P  P203  1  0.05380151  0.91611058  0.86068358  1
  P  P204  1  0.55293466  0.24965681  0.10957207  1
  P  P205  1  0.55297859  0.24989518  0.36163474  1
  P  P206  1  0.55537103  0.25090443  0.61085559  1
  P  P207  1  0.55289107  0.25012147  0.85938440  1
  P  P208  1  0.55284760  0.58427045  0.10901763  1
  P  P209  1  0.55196341  0.58336285  0.35938872  1
  P  P210  1  0.55145136  0.58344164  0.61039393  1
  P  P211  1  0.55283264  0.58337316  0.86001488  1
  P  P212  1  0.55479716  0.91607598  0.11064128  1
  P  P213  1  0.55348203  0.91691545  0.36088830  1
  P  P214  1  0.55562594  0.91552853  0.61150051  1
  P  P215  1  0.55430882  0.91663162  0.85937424  1
  P  P216  1  0.44845857  0.08264877  0.14010515  1
  P  P217  1  0.44800926  0.08266268  0.39043113  1
  P  P218  1  0.44792960  0.08296740  0.64048201  1
  P  P219  1  0.44705008  0.08379846  0.88835170  1
  P  P220  1  0.44403114  0.41726589  0.13917162  1
  P  P221  1  0.44390114  0.41624361  0.38928340  1
  P  P222  1  0.44527729  0.41788929  0.63949655  1
  P  P223  1  0.44400885  0.41559077  0.88926167  1
  P  P224  1  0.44600553  0.75025769  0.13856208  1
  P  P225  1  0.44508411  0.75109625  0.39058576  1
  P  P226  1  0.44524101  0.74924099  0.63952721  1
  P  P227  1  0.44417045  0.75037528  0.88970717  1
  P  P228  1  0.94538302  0.08319865  0.13916998  1
  P  P229  1  0.94827318  0.08251171  0.39023169  1
  P  P230  1  0.94617568  0.08387780  0.64018204  1
  P  P231  1  0.94571184  0.08243223  0.89025978  1
  P  P232  1  0.94773836  0.41788051  0.13889331  1
  P  P233  1  0.94664642  0.41671212  0.39130351  1
  P  P234  1  0.94510255  0.41577485  0.63887858  1
  P  P235  1  0.94789697  0.41747517  0.88968433  1
  P  P236  1  0.94782909  0.74912669  0.13907613  1
  P  P237  1  0.94926182  0.75048254  0.39009180  1
  P  P238  1  0.94649556  0.75037460  0.64077453  1
  P  P239  1  0.94611669  0.75018538  0.88886299  1
  P  P240  1  0.19602064  0.08289710  0.23605581  1
  P  P241  1  0.19626677  0.08292440  0.48449182  1
  P  P242  1  0.19851636  0.08376415  0.73519022  1
  P  P243  1  0.19695645  0.08226173  0.98459275  1
  P  P244  1  0.19703407  0.41684554  0.23434263  1
  P  P245  1  0.19852599  0.41732552  0.48569006  1
  P  P246  1  0.19653487  0.41594965  0.73660712  1
  P  P247  1  0.19547518  0.41745683  0.98509987  1
  P  P248  1  0.19418950  0.75021960  0.23574217  1
  P  P249  1  0.19740747  0.74989368  0.48519831  1
  P  P250  1  0.19602119  0.75036586  0.73675943  1
  P  P251  1  0.19478980  0.75006191  0.98523898  1
  P  P252  1  0.69381114  0.08220649  0.23576480  1
  P  P253  1  0.69365123  0.08350424  0.48604597  1
  P  P254  1  0.69393043  0.08297233  0.73611700  1
  P  P255  1  0.69587242  0.08355442  0.98544106  1
  P  P256  1  0.69690588  0.41706568  0.23453123  1
  P  P257  1  0.69596693  0.41627957  0.48609609  1
  P  P258  1  0.69535269  0.41672420  0.73436061  1
  P  P259  1  0.69918386  0.41714140  0.98477322  1
  P  P260  1  0.69592697  0.75057664  0.23382256  1
  P  P261  1  0.69491109  0.75000933  0.48606201  1
  P  P262  1  0.69756645  0.75031431  0.73487769  1
  P  P263  1  0.69780278  0.74936504  0.98610844  1
  P  P264  1  0.30485807  0.25019956  0.01328981  1
  P  P265  1  0.30437806  0.25069310  0.26543212  1
  P  P266  1  0.30529667  0.25035411  0.51405417  1
  P  P267  1  0.30355116  0.24969002  0.76521572  1
  P  P268  1  0.30089078  0.58418588  0.01443146  1
  P  P269  1  0.30116513  0.58287046  0.26425080  1
  P  P270  1  0.30271387  0.58390920  0.51575903  1
  P  P271  1  0.30344365  0.58349942  0.76376490  1
  P  P272  1  0.30170088  0.91533191  0.01487848  1
  P  P273  1  0.30293662  0.91643578  0.26546884  1
  P  P274  1  0.30368508  0.91592141  0.51375751  1
  P  P275  1  0.30235255  0.91702603  0.76464651  1
  P  P276  1  0.80377812  0.24987299  0.01475821  1
  P  P277  1  0.80267195  0.24961420  0.26557443  1
  P  P278  1  0.80230832  0.25009695  0.51566605  1
  P  P279  1  0.80232349  0.24991096  0.76361284  1
  P  P280  1  0.80743685  0.58322225  0.01422058  1
  P  P281  1  0.80517516  0.58389231  0.26392648  1
  P  P282  1  0.80337443  0.58282851  0.51470342  1
  P  P283  1  0.80451051  0.58451098  0.76564170  1
  P  P284  1  0.80571869  0.91672911  0.01377413  1
  P  P285  1  0.80136764  0.91643397  0.26534820  1
  P  P286  1  0.80141411  0.91700211  0.51474457  1
  P  P287  1  0.80275144  0.91574825  0.76542382  1
  O  O288  1  0.05711804  0.25015581  0.18630760  1
  O  O289  1  0.05633279  0.24998456  0.43671921  1
  O  O290  1  0.05935837  0.24986610  0.68769653  1
  O  O291  1  0.05703668  0.25003186  0.93559975  1
  O  O292  1  0.05922114  0.58284523  0.18710087  1
  O  O293  1  0.06060194  0.58304705  0.43801672  1
  O  O294  1  0.06018227  0.58321423  0.68762097  1
  O  O295  1  0.05874644  0.58339445  0.93733895  1
  O  O296  1  0.05992347  0.91672746  0.18707191  1
  O  O297  1  0.05948327  0.91652239  0.43756613  1
  O  O298  1  0.06001631  0.91703766  0.68755977  1
  O  O299  1  0.05841961  0.91683574  0.93736346  1
  O  O300  1  0.55549887  0.25071936  0.18639808  1
  O  O301  1  0.55770432  0.25103263  0.43829755  1
  O  O302  1  0.55868178  0.25089894  0.68769093  1
  O  O303  1  0.55629445  0.25096221  0.93612029  1
  O  O304  1  0.55587334  0.58366458  0.18580037  1
  O  O305  1  0.55528509  0.58320580  0.43617601  1
  O  O306  1  0.55534841  0.58344989  0.68703561  1
  O  O307  1  0.55705227  0.58346256  0.93669639  1
  O  O308  1  0.55779052  0.91556607  0.18745045  1
  O  O309  1  0.55788509  0.91594091  0.43763624  1
  O  O310  1  0.55938356  0.91517909  0.68823019  1
  O  O311  1  0.55738136  0.91573256  0.93619023  1
  O  O312  1  0.44446979  0.08238643  0.06334682  1
  O  O313  1  0.44465581  0.08258963  0.31371692  1
  O  O314  1  0.44364289  0.08276467  0.56387040  1
  O  O315  1  0.44196971  0.08276388  0.81169893  1
  O  O316  1  0.43924415  0.41783631  0.06237639  1
  O  O317  1  0.43982123  0.41745970  0.31250869  1
  O  O318  1  0.44061131  0.41746838  0.56274736  1
  O  O319  1  0.44008782  0.41683707  0.81241075  1
  O  O320  1  0.44034386  0.75004444  0.06195752  1
  O  O321  1  0.44209610  0.75032903  0.31376379  1
  O  O322  1  0.44031752  0.75007830  0.56286406  1
  O  O323  1  0.43940833  0.75023703  0.81289903  1
  O  O324  1  0.94074294  0.08326458  0.06245739  1
  O  O325  1  0.94399848  0.08223758  0.31352815  1
  O  O326  1  0.94306320  0.08321079  0.56343940  1
  O  O327  1  0.94245306  0.08289797  0.81345736  1
  O  O328  1  0.94306919  0.41675468  0.06221976  1
  O  O329  1  0.94410092  0.41685271  0.31441788  1
  O  O330  1  0.94056807  0.41626166  0.56218205  1
  O  O331  1  0.94385397  0.41681575  0.81298023  1
  O  O332  1  0.94302778  0.75015636  0.06238379  1
  O  O333  1  0.94519502  0.75049170  0.31338705  1
  O  O334  1  0.94350166  0.75041494  0.56396612  1
  O  O335  1  0.94160035  0.75057862  0.81219728  1
  O  O336  1  0.19377788  0.08321416  0.06135671  1
  O  O337  1  0.19197111  0.08368727  0.31277166  1
  O  O338  1  0.19347826  0.08391366  0.56128548  1
  O  O339  1  0.19461436  0.08366941  0.81183507  1
  O  O340  1  0.19109372  0.41661948  0.06180488  1
  O  O341  1  0.19391020  0.41606556  0.31106572  1
  O  O342  1  0.19476439  0.41619505  0.56237046  1
  O  O343  1  0.19197519  0.41615228  0.81327759  1
  O  O344  1  0.19090971  0.74996184  0.06202971  1
  O  O345  1  0.19141323  0.75028622  0.31257960  1
  O  O346  1  0.19439865  0.75034134  0.56193172  1
  O  O347  1  0.19120362  0.75025336  0.81340679  1
  O  O348  1  0.69121763  0.08344129  0.06216532  1
  O  O349  1  0.68951619  0.08322540  0.31259626  1
  O  O350  1  0.69023223  0.08337404  0.56292989  1
  O  O351  1  0.69088316  0.08353386  0.81301080  1
  O  O352  1  0.69463065  0.41739233  0.06139210  1
  O  O353  1  0.69304689  0.41706495  0.31131952  1
  O  O354  1  0.69073727  0.41758230  0.56270480  1
  O  O355  1  0.69266506  0.41732434  0.81116530  1
  O  O356  1  0.69206680  0.74945669  0.06261844  1
  O  O357  1  0.69240146  0.74969447  0.31063584  1
  O  O358  1  0.69062870  0.74897982  0.56278109  1
  O  O359  1  0.69428648  0.74933658  0.81162410  1
  O  O360  1  0.30666808  0.24916260  0.18856577  1
  O  O361  1  0.30945266  0.24924080  0.43731621  1
  O  O362  1  0.30708381  0.24968621  0.68844715  1
  O  O363  1  0.30898262  0.24917152  0.93659782  1
  O  O364  1  0.30469418  0.58375622  0.18761179  1
  O  O365  1  0.30537379  0.58373796  0.43897080  1
  O  O366  1  0.30793452  0.58357668  0.68711600  1
  O  O367  1  0.30447876  0.58401315  0.93774055  1
  O  O368  1  0.30678708  0.91666942  0.18875552  1
  O  O369  1  0.30862107  0.91696180  0.43714735  1
  O  O370  1  0.30609565  0.91706099  0.68793589  1
  O  O371  1  0.30579303  0.91638005  0.93823607  1
  O  O372  1  0.80657846  0.24963725  0.18881458  1
  O  O373  1  0.80607861  0.24936615  0.43892932  1
  O  O374  1  0.80725438  0.24985853  0.68700713  1
  O  O375  1  0.80632680  0.25004844  0.93791868  1
  O  O376  1  0.81031910  0.58402927  0.18721262  1
  O  O377  1  0.80683551  0.58351467  0.43793902  1
  O  O378  1  0.80710643  0.58357483  0.68886351  1
  O  O379  1  0.81137064  0.58335495  0.93740269  1
  O  O380  1  0.80616189  0.91652038  0.18866403  1
  O  O381  1  0.80582959  0.91693401  0.43810425  1
  O  O382  1  0.80591347  0.91659997  0.68870205  1
  O  O383  1  0.80955391  0.91622309  0.93700710  1
  O  O384  1  0.23488964  0.25010082  0.03769709  1
  O  O385  1  0.23485111  0.25056474  0.29106356  1
  O  O386  1  0.23533523  0.25015798  0.53843289  1
  O  O387  1  0.23353584  0.24990521  0.78998030  1
  O  O388  1  0.23084206  0.58392917  0.03897814  1
  O  O389  1  0.23119497  0.58323136  0.28900724  1
  O  O390  1  0.23282737  0.58389564  0.54103179  1
  O  O391  1  0.23307059  0.58306539  0.78771349  1
  O  O392  1  0.23165769  0.91588175  0.03925885  1
  O  O393  1  0.23273893  0.91609871  0.28946777  1
  O  O394  1  0.23326007  0.91644090  0.53728468  1
  O  O395  1  0.23228174  0.91654324  0.78930813  1
  O  O396  1  0.73428368  0.25019671  0.04056335  1
  O  O397  1  0.73286153  0.25004692  0.29013638  1
  O  O398  1  0.73209053  0.24968474  0.53974323  1
  O  O399  1  0.73193229  0.25005162  0.78721074  1
  O  O400  1  0.73733488  0.58349986  0.03839050  1
  O  O401  1  0.73501284  0.58358880  0.28757427  1
  O  O402  1  0.73363642  0.58338102  0.53974561  1
  O  O403  1  0.73487602  0.58375704  0.79104545  1
  O  O404  1  0.73566552  0.91678172  0.03798315  1
  O  O405  1  0.73116243  0.91607615  0.28913066  1
  O  O406  1  0.73122351  0.91687756  0.53875800  1
  O  O407  1  0.73277352  0.91585947  0.79034010  1
  O  O408  1  0.26595253  0.08298412  0.21148679  1
  O  O409  1  0.26603107  0.08284623  0.45948703  1
  O  O410  1  0.26847515  0.08355237  0.71012711  1
  O  O411  1  0.26668392  0.08217431  0.95962674  1
  O  O412  1  0.26694268  0.41660880  0.20929996  1
  O  O413  1  0.26851857  0.41765671  0.46109185  1
  O  O414  1  0.26693847  0.41626753  0.71282178  1
  O  O415  1  0.26592860  0.41719224  0.96155856  1
  O  O416  1  0.26401430  0.75005003  0.21065493  1
  O  O417  1  0.26730408  0.74960752  0.46003416  1
  O  O418  1  0.26635800  0.75073766  0.71284427  1
  O  O419  1  0.26496030  0.74969429  0.96092938  1
  O  O420  1  0.76387190  0.08279520  0.21169535  1
  O  O421  1  0.76353500  0.08339401  0.46124720  1
  O  O422  1  0.76379911  0.08270307  0.71124640  1
  O  O423  1  0.76618967  0.08316802  0.96177847  1
  O  O424  1  0.76680224  0.41705338  0.21010201  1
  O  O425  1  0.76635411  0.41625795  0.46249930  1
  O  O426  1  0.76512869  0.41701773  0.70940958  1
  O  O427  1  0.76933387  0.41671147  0.96062601  1
  O  O428  1  0.76579187  0.75049994  0.20914813  1
  O  O429  1  0.76485695  0.74994807  0.46150693  1
  O  O430  1  0.76758838  0.75027029  0.71011693  1
  O  O431  1  0.76842628  0.74944769  0.96341032  1
  O  O432  1  0.01557236  0.08300242  0.16271824  1
  O  O433  1  0.01833564  0.08294264  0.41457036  1
  O  O434  1  0.01583743  0.08330816  0.66549322  1
  O  O435  1  0.01555960  0.08333054  0.91503696  1
  O  O436  1  0.01802691  0.41743211  0.16282203  1
  O  O437  1  0.01632136  0.41630983  0.41657953  1
  O  O438  1  0.01523490  0.41660628  0.66279164  1
  O  O439  1  0.01814302  0.41726644  0.91377744  1
  O  O440  1  0.01823472  0.74930001  0.16247293  1
  O  O441  1  0.01937584  0.75060616  0.41446597  1
  O  O442  1  0.01626168  0.75014508  0.66565721  1
  O  O443  1  0.01662632  0.74993040  0.91251147  1
  O  O444  1  0.51841740  0.08278562  0.16457277  1
  O  O445  1  0.51789876  0.08295124  0.41553375  1
  O  O446  1  0.51835100  0.08316971  0.66383618  1
  O  O447  1  0.51749254  0.08354077  0.91186049  1
  O  O448  1  0.51416055  0.41686830  0.16288194  1
  O  O449  1  0.51393210  0.41699421  0.41359127  1
  O  O450  1  0.51569690  0.41707928  0.66292081  1
  O  O451  1  0.51404847  0.41660566  0.91355665  1
  O  O452  1  0.51633820  0.75022141  0.16203095  1
  O  O453  1  0.51479474  0.75028492  0.41558275  1
  O  O454  1  0.51571496  0.74947178  0.66302405  1
  O  O455  1  0.51448090  0.75032712  0.91293914  1
  O  O456  1  0.48341717  0.24951556  0.08400062  1
  O  O457  1  0.48273276  0.24960834  0.33758650  1
  O  O458  1  0.48533781  0.25044058  0.58646649  1
  O  O459  1  0.48293806  0.25009670  0.83444172  1
  O  O460  1  0.48316351  0.58394473  0.08377714  1
  O  O461  1  0.48219171  0.58376754  0.33446179  1
  O  O462  1  0.48138236  0.58359332  0.58574297  1
  O  O463  1  0.48284082  0.58322332  0.83586673  1
  O  O464  1  0.48511487  0.91664870  0.08518967  1
  O  O465  1  0.48318676  0.91639511  0.33687085  1
  O  O466  1  0.48550239  0.91631648  0.58719308  1
  O  O467  1  0.48459803  0.91647613  0.83428860  1
  O  O468  1  0.98415031  0.25083650  0.08446618  1
  O  O469  1  0.98379724  0.24978779  0.33428922  1
  O  O470  1  0.98310099  0.24946011  0.58793091  1
  O  O471  1  0.98406945  0.25033021  0.83410405  1
  O  O472  1  0.98500446  0.58362094  0.08609019  1
  O  O473  1  0.98654033  0.58338044  0.33680757  1
  O  O474  1  0.98574305  0.58361910  0.58704736  1
  O  O475  1  0.98429340  0.58359856  0.83668269  1
  O  O476  1  0.98555770  0.91622023  0.08652183  1
  O  O477  1  0.98597370  0.91642177  0.33567500  1
  O  O478  1  0.98549516  0.91688911  0.58688846  1
  O  O479  1  0.98334624  0.91632521  0.83711499  1
  O  O480  1  0.08798151  0.31591419  0.07740965  1
  O  O481  1  0.08776132  0.31433326  0.32774270  1
  O  O482  1  0.08654866  0.31474927  0.57729789  1
  O  O483  1  0.08778356  0.31621031  0.82667387  1
  O  O484  1  0.08880446  0.64822109  0.07717909  1
  O  O485  1  0.08991203  0.64913572  0.32848772  1
  O  O486  1  0.08962449  0.64819099  0.57783599  1
  O  O487  1  0.08815916  0.64857030  0.82751963  1
  O  O488  1  0.08944576  0.98061821  0.07672510  1
  O  O489  1  0.08950275  0.98201704  0.32795971  1
  O  O490  1  0.08940908  0.98174707  0.57768831  1
  O  O491  1  0.08724215  0.98098038  0.82694724  1
  O  O492  1  0.58694306  0.31470348  0.07682555  1
  O  O493  1  0.58594610  0.31477516  0.32760110  1
  O  O494  1  0.58863327  0.31614961  0.57783235  1
  O  O495  1  0.58689667  0.31509370  0.82653336  1
  O  O496  1  0.58697920  0.64946983  0.07690945  1
  O  O497  1  0.58619293  0.64841297  0.32718430  1
  O  O498  1  0.58532901  0.64848845  0.57766851  1
  O  O499  1  0.58637898  0.64851328  0.82710077  1
  O  O500  1  0.58904476  0.98125151  0.07851592  1
  O  O501  1  0.58684244  0.98219285  0.32824215  1
  O  O502  1  0.58955773  0.98053420  0.57869455  1
  O  O503  1  0.58868403  0.98171342  0.82756854  1
  O  O504  1  0.41468890  0.01770105  0.17300208  1
  O  O505  1  0.41437897  0.01743252  0.42311168  1
  O  O506  1  0.41444223  0.01805085  0.67379883  1
  O  O507  1  0.41400241  0.01884598  0.92234044  1
  O  O508  1  0.41027656  0.35230590  0.17213244  1
  O  O509  1  0.41079041  0.35087068  0.42205911  1
  O  O510  1  0.41167254  0.35292780  0.67288981  1
  O  O511  1  0.41092768  0.34999463  0.92140453  1
  O  O512  1  0.41264852  0.68529254  0.17216158  1
  O  O513  1  0.41036174  0.68632009  0.42314214  1
  O  O514  1  0.41176995  0.68423217  0.67266320  1
  O  O515  1  0.41050439  0.68548929  0.92308802  1
  O  O516  1  0.91210418  0.01814587  0.17261918  1
  O  O517  1  0.91470907  0.01749998  0.42332623  1
  O  O518  1  0.91189476  0.01885554  0.67263212  1
  O  O519  1  0.91207511  0.01715444  0.92262307  1
  O  O520  1  0.91405325  0.35315715  0.17254613  1
  O  O521  1  0.91183877  0.35181495  0.42332845  1
  O  O522  1  0.91201675  0.35049106  0.67197430  1
  O  O523  1  0.91401629  0.35253694  0.92277267  1
  O  O524  1  0.91485425  0.68390866  0.17214247  1
  O  O525  1  0.91568643  0.68537522  0.42293230  1
  O  O526  1  0.91220137  0.68547350  0.67323179  1
  O  O527  1  0.91304687  0.68497917  0.92214222  1
  O  O528  1  0.16237276  0.01758619  0.20361723  1
  O  O529  1  0.16202940  0.01777926  0.45257304  1
  O  O530  1  0.16436120  0.01872290  0.70278867  1
  O  O531  1  0.16271007  0.01716804  0.95252745  1
  O  O532  1  0.16292423  0.35203218  0.20133120  1
  O  O533  1  0.16502773  0.35237549  0.45233652  1
  O  O534  1  0.16368223  0.35066175  0.70321782  1
  O  O535  1  0.16206269  0.35266460  0.95138208  1
  O  O536  1  0.16014322  0.68516640  0.20312507  1
  O  O537  1  0.16323181  0.68480956  0.45302589  1
  O  O538  1  0.16317978  0.68506847  0.70344743  1
  O  O539  1  0.16089289  0.68515237  0.95219730  1
  O  O540  1  0.66060880  0.01675025  0.20310340  1
  O  O541  1  0.65960953  0.01849637  0.45334926  1
  O  O542  1  0.66010198  0.01766505  0.70389322  1
  O  O543  1  0.66213830  0.01871216  0.95213691  1
  O  O544  1  0.66298797  0.35193997  0.20200804  1
  O  O545  1  0.66284124  0.35083665  0.45321506  1
  O  O546  1  0.66117451  0.35166775  0.70221811  1
  O  O547  1  0.66506788  0.35220464  0.95207158  1
  O  O548  1  0.66176663  0.68574242  0.20078817  1
  O  O549  1  0.66123160  0.68522141  0.45256090  1
  O  O550  1  0.66338831  0.68549398  0.70175869  1
  O  O551  1  0.66488292  0.68445639  0.95220400  1
  O  O552  1  0.33811076  0.31569780  0.04569823  1
  O  O553  1  0.33858382  0.31613123  0.29665271  1
  O  O554  1  0.33878034  0.31565198  0.54661220  1
  O  O555  1  0.33765731  0.31468298  0.79772135  1
  O  O556  1  0.33440984  0.64937788  0.04724833  1
  O  O557  1  0.33499112  0.64775715  0.29734556  1
  O  O558  1  0.33680139  0.64904966  0.54807001  1
  O  O559  1  0.33629181  0.64873198  0.79709061  1
  O  O560  1  0.33589334  0.98010149  0.04797803  1
  O  O561  1  0.33664777  0.98137516  0.29865457  1
  O  O562  1  0.33720776  0.98064370  0.54760541  1
  O  O563  1  0.33590483  0.98224535  0.79740648  1
  O  O564  1  0.83835226  0.31498057  0.04677057  1
  O  O565  1  0.83689769  0.31460768  0.29790975  1
  O  O566  1  0.83606999  0.31522567  0.54826796  1
  O  O567  1  0.83578078  0.31486601  0.79697593  1
  O  O568  1  0.84128476  0.64820244  0.04734611  1
  O  O569  1  0.83829896  0.64909003  0.29735545  1
  O  O570  1  0.83778155  0.64773333  0.54723833  1
  O  O571  1  0.83859278  0.64984246  0.79750160  1
  O  O572  1  0.83889091  0.98208128  0.04654425  1
  O  O573  1  0.83467295  0.98152257  0.29856240  1
  O  O574  1  0.83476967  0.98211625  0.54786369  1
  O  O575  1  0.83688012  0.98057951  0.79841526  1
  O  O576  1  0.41457515  0.14767242  0.17274138  1
  O  O577  1  0.41399701  0.14764704  0.42299820  1
  O  O578  1  0.41431718  0.14793992  0.67349819  1
  O  O579  1  0.41400694  0.14904089  0.92129929  1
  O  O580  1  0.41050424  0.48225619  0.17257257  1
  O  O581  1  0.40982603  0.48104375  0.42270763  1
  O  O582  1  0.41199942  0.48292335  0.67272113  1
  O  O583  1  0.40960584  0.48012822  0.92274157  1
  O  O584  1  0.41288286  0.81528049  0.17210975  1
  O  O585  1  0.41141721  0.81636952  0.42301330  1
  O  O586  1  0.41188375  0.81422686  0.67324956  1
  O  O587  1  0.41076300  0.81542742  0.92286726  1
  O  O588  1  0.91215485  0.14831547  0.17241737  1
  O  O589  1  0.91418821  0.14751994  0.42283756  1
  O  O590  1  0.91215284  0.14906180  0.67242237  1
  O  O591  1  0.91109600  0.14733259  0.92265301  1
  O  O592  1  0.91485152  0.48330809  0.17184606  1
  O  O593  1  0.91249878  0.48180633  0.42356275  1
  O  O594  1  0.91159283  0.48079473  0.67213099  1
  O  O595  1  0.91437656  0.48257093  0.92243034  1
  O  O596  1  0.91465960  0.81402490  0.17296001  1
  O  O597  1  0.91527792  0.81538080  0.42291179  1
  O  O598  1  0.91236789  0.81542333  0.67324361  1
  O  O599  1  0.91289964  0.81510335  0.92261817  1
  O  O600  1  0.08773386  0.18575131  0.07675909  1
  O  O601  1  0.08736604  0.18404780  0.32782870  1
  O  O602  1  0.08693195  0.18480144  0.57773819  1
  O  O603  1  0.08843454  0.18612437  0.82609730  1
  O  O604  1  0.08855658  0.51820684  0.07693625  1
  O  O605  1  0.09030555  0.51893087  0.32783119  1
  O  O606  1  0.08937333  0.51832118  0.57756192  1
  O  O607  1  0.08810923  0.51844458  0.82726264  1
  O  O608  1  0.08896230  0.85060331  0.07734905  1
  O  O609  1  0.09001706  0.85186505  0.32801020  1
  O  O610  1  0.08923859  0.85184868  0.57768290  1
  O  O611  1  0.08715155  0.85099439  0.82759888  1
  O  O612  1  0.58725086  0.18438023  0.07796737  1
  O  O613  1  0.58646554  0.18461739  0.32905921  1
  O  O614  1  0.58925428  0.18581235  0.57825300  1
  O  O615  1  0.58720459  0.18511250  0.82717814  1
  O  O616  1  0.58706274  0.51919719  0.07652960  1
  O  O617  1  0.58586775  0.51833164  0.32683809  1
  O  O618  1  0.58504913  0.51828769  0.57738693  1
  O  O619  1  0.58663218  0.51835007  0.82734180  1
  O  O620  1  0.58850223  0.85096187  0.07763415  1
  O  O621  1  0.58722000  0.85223114  0.32716022  1
  O  O622  1  0.58862157  0.85022355  0.57823136  1
  O  O623  1  0.58860884  0.85169758  0.82672031  1
  O  O624  1  0.33838134  0.18522384  0.04675669  1
  O  O625  1  0.33904200  0.18597882  0.29825966  1
  O  O626  1  0.33899372  0.18543133  0.54739071  1
  O  O627  1  0.33763971  0.18460378  0.79772464  1
  O  O628  1  0.33487511  0.51922821  0.04699454  1
  O  O629  1  0.33483725  0.51771933  0.29669555  1
  O  O630  1  0.33700675  0.51904539  0.54838502  1
  O  O631  1  0.33677456  0.51844163  0.79695946  1
  O  O632  1  0.33497823  0.84989299  0.04741454  1
  O  O633  1  0.33683943  0.85146773  0.29811243  1
  O  O634  1  0.33647030  0.85057184  0.54699087  1
  O  O635  1  0.33631840  0.85212138  0.79735316  1
  O  O636  1  0.83762194  0.18449186  0.04685209  1
  O  O637  1  0.83612691  0.18435308  0.29836876  1
  O  O638  1  0.83623874  0.18516270  0.54872221  1
  O  O639  1  0.83552703  0.18492421  0.79704260  1
  O  O640  1  0.84092125  0.51795740  0.04704565  1
  O  O641  1  0.83882843  0.51890915  0.29701106  1
  O  O642  1  0.83711744  0.51757251  0.54710131  1
  O  O643  1  0.83943955  0.51983319  0.79817918  1
  O  O644  1  0.83921711  0.85161924  0.04703899  1
  O  O645  1  0.83530517  0.85147300  0.29818205  1
  O  O646  1  0.83527026  0.85204339  0.54762802  1
  O  O647  1  0.83704047  0.85070757  0.79768521  1
  O  O648  1  0.16240662  0.14784237  0.20271294  1
  O  O649  1  0.16206569  0.14781358  0.45171293  1
  O  O650  1  0.16479505  0.14899857  0.70252597  1
  O  O651  1  0.16304594  0.14726798  0.95176422  1
  O  O652  1  0.16296036  0.48200280  0.20204422  1
  O  O653  1  0.16455469  0.48243046  0.45358762  1
  O  O654  1  0.16310022  0.48092764  0.70337618  1
  O  O655  1  0.16229261  0.48267722  0.95204673  1
  O  O656  1  0.16046825  0.81536524  0.20305131  1
  O  O657  1  0.16339348  0.81482568  0.45234105  1
  O  O658  1  0.16265093  0.81535890  0.70354851  1
  O  O659  1  0.16135356  0.81522401  0.95218948  1
  O  O660  1  0.65984863  0.14697256  0.20235433  1
  O  O661  1  0.65989437  0.14876315  0.45343647  1
  O  O662  1  0.66008303  0.14789679  0.70308998  1
  O  O663  1  0.66249962  0.14862868  0.95219825  1
  O  O664  1  0.66307191  0.48205392  0.20170020  1
  O  O665  1  0.66270745  0.48105527  0.45211413  1
  O  O666  1  0.66104615  0.48169925  0.70166996  1
  O  O667  1  0.66565055  0.48212354  0.95160146  1
  O  O668  1  0.66175925  0.81578463  0.20173026  1
  O  O669  1  0.66133865  0.81541981  0.45358019  1
  O  O670  1  0.66334700  0.81536231  0.70274349  1
  O  O671  1  0.66477376  0.81436198  0.95236600  1
