# generated using pymatgen
data_Na2MnFe(PO4)2
_symmetry_space_group_name_H-M   'P 1'
_cell_length_a   21.08815706
_cell_length_b   18.94127955
_cell_length_c   20.04737792
_cell_angle_alpha   89.99978686
_cell_angle_beta   89.99795484
_cell_angle_gamma   89.99865934
_symmetry_Int_Tables_number   1
_chemical_formula_structural   Na2MnFe(PO4)2
_chemical_formula_sum   'Na96 Mn48 Fe48 P96 O384'
_cell_volume   8007.65803658
_cell_formula_units_Z   48
loop_
 _symmetry_equiv_pos_site_id
 _symmetry_equiv_pos_as_xyz
  1  'x, y, z'
loop_
 _atom_site_type_symbol
 _atom_site_label
 _atom_site_symmetry_multiplicity
 _atom_site_fract_x
 _atom_site_fract_y
 _atom_site_fract_z
 _atom_site_occupancy
  Na  Na0  1  0.00079969  -0.00015187  0.00070256  1
  Na  Na1  1  0.00225744  0.00040666  0.24956977  1
  Na  Na2  1  -0.00093593  -0.00087687  0.49958410  1
  Na  Na3  1  -0.00111709  -0.00035987  0.75076692  1
  Na  Na4  1  -0.00156652  0.33291858  0.00055461  1
  Na  Na5  1  0.00094837  0.33378603  0.24982373  1
  Na  Na6  1  0.00113222  0.33342360  0.49948338  1
  Na  Na7  1  -0.00143075  0.33295156  0.75001168  1
  Na  Na8  1  0.00267706  0.66702221  0.00010149  1
  Na  Na9  1  0.00079099  0.66683996  0.24953656  1
  Na  Na10  1  -0.00078081  0.66641030  0.49947768  1
  Na  Na11  1  -0.00044288  0.66558356  0.75079380  1
  Na  Na12  1  0.49894676  -0.00057435  0.00094838  1
  Na  Na13  1  0.50018703  -0.00001500  0.25007951  1
  Na  Na14  1  0.50229188  0.00077058  0.49895848  1
  Na  Na15  1  0.50164034  0.00035977  0.74944909  1
  Na  Na16  1  0.50135515  0.33469689  0.00024777  1
  Na  Na17  1  0.49958253  0.33378687  0.24931349  1
  Na  Na18  1  0.50039344  0.33344832  0.49920462  1
  Na  Na19  1  0.49967943  0.33235407  0.75101330  1
  Na  Na20  1  0.49947441  0.66640428  -0.00031232  1
  Na  Na21  1  0.49605513  0.66537991  0.25018584  1
  Na  Na22  1  0.49801627  0.66591604  0.50041349  1
  Na  Na23  1  0.50085101  0.66651887  0.74943993  1
  Na  Na24  1  0.25014439  0.00000097  0.12391717  1
  Na  Na25  1  0.24974370  -0.00040986  0.37462837  1
  Na  Na26  1  0.25035431  0.00033721  0.62638680  1
  Na  Na27  1  0.25018915  0.00011197  0.87543075  1
  Na  Na28  1  0.25086537  0.33361454  0.12438723  1
  Na  Na29  1  0.24987188  0.33236867  0.37532364  1
  Na  Na30  1  0.24933953  0.33278402  0.62512129  1
  Na  Na31  1  0.25009540  0.33385774  0.87491079  1
  Na  Na32  1  0.25087496  0.66627279  0.12448231  1
  Na  Na33  1  0.25286337  0.66735444  0.37484902  1
  Na  Na34  1  0.24914090  0.66629963  0.62443700  1
  Na  Na35  1  0.24915202  0.66626271  0.87634150  1
  Na  Na36  1  0.74949914  -0.00054342  0.12393714  1
  Na  Na37  1  0.74798860  -0.00103920  0.37462718  1
  Na  Na38  1  0.74896308  0.00025915  0.62601872  1
  Na  Na39  1  0.74890812  -0.00029432  0.87569070  1
  Na  Na40  1  0.74887029  0.33386999  0.12452893  1
  Na  Na41  1  0.74819961  0.33319488  0.37412462  1
  Na  Na42  1  0.75032675  0.33399955  0.62609289  1
  Na  Na43  1  0.75044078  0.33394099  0.87607812  1
  Na  Na44  1  0.74924542  0.66584003  0.12409913  1
  Na  Na45  1  0.75197553  0.66759116  0.37463886  1
  Na  Na46  1  0.75043893  0.66646508  0.62540535  1
  Na  Na47  1  0.74985613  0.66576910  0.87488397  1
  Na  Na48  1  0.00228627  0.16651738  0.00119952  1
  Na  Na49  1  0.00243647  0.16672199  0.25007411  1
  Na  Na50  1  0.00181726  0.16663754  0.50007354  1
  Na  Na51  1  0.00045697  0.16690759  0.74920074  1
  Na  Na52  1  -0.00034933  0.49940815  -0.00031428  1
  Na  Na53  1  0.00012996  0.49929144  0.24912982  1
  Na  Na54  1  -0.00153794  0.50024233  0.50027785  1
  Na  Na55  1  -0.00193928  0.50059639  0.75098612  1
  Na  Na56  1  0.00022164  0.83407830  0.00060716  1
  Na  Na57  1  0.00119955  0.83335539  0.24956445  1
  Na  Na58  1  0.00011474  0.83292813  0.49858280  1
  Na  Na59  1  -0.00102903  0.83389349  0.75136878  1
  Na  Na60  1  0.50119413  0.16560732  0.00034868  1
  Na  Na61  1  0.49864316  0.16687494  0.24980430  1
  Na  Na62  1  0.50003336  0.16664920  0.49858343  1
  Na  Na63  1  0.50239698  0.16598253  0.75127387  1
  Na  Na64  1  0.49924357  0.50064846  -0.00019006  1
  Na  Na65  1  0.49912115  0.49961910  0.24925577  1
  Na  Na66  1  0.50068627  0.49947037  0.50022833  1
  Na  Na67  1  0.50111781  0.49980217  0.75017269  1
  Na  Na68  1  0.49815292  0.83452777  0.00045553  1
  Na  Na69  1  0.49898509  0.83350655  0.25090637  1
  Na  Na70  1  0.50050498  0.83337303  0.49969062  1
  Na  Na71  1  0.50004783  0.83374838  0.74889883  1
  Na  Na72  1  0.25003846  0.16675649  0.12445393  1
  Na  Na73  1  0.25112290  0.16669041  0.37523304  1
  Na  Na74  1  0.24870778  0.16754863  0.62570008  1
  Na  Na75  1  0.24893312  0.16661935  0.87459426  1
  Na  Na76  1  0.25109139  0.49999936  0.12455122  1
  Na  Na77  1  0.25219776  0.49922375  0.37429966  1
  Na  Na78  1  0.24939751  0.50093014  0.62464127  1
  Na  Na79  1  0.25042956  0.50013189  0.87599664  1
  Na  Na80  1  0.24990846  0.83412271  0.12394885  1
  Na  Na81  1  0.25037366  0.83324358  0.37499590  1
  Na  Na82  1  0.24984528  0.83280207  0.62551503  1
  Na  Na83  1  0.25045151  0.83292954  0.87593094  1
  Na  Na84  1  0.74695847  0.16775652  0.12375353  1
  Na  Na85  1  0.74960776  0.16614899  0.37471371  1
  Na  Na86  1  0.74785379  0.16719048  0.62643084  1
  Na  Na87  1  0.74849284  0.16655780  0.87556453  1
  Na  Na88  1  0.74905485  0.49959178  0.12465130  1
  Na  Na89  1  0.74917285  0.49993380  0.37450448  1
  Na  Na90  1  0.75120956  0.49956253  0.62578676  1
  Na  Na91  1  0.75016374  0.49970217  0.87537168  1
  Na  Na92  1  0.75184595  0.83341047  0.12418178  1
  Na  Na93  1  0.74963762  0.83435190  0.37405092  1
  Na  Na94  1  0.74879872  0.83465159  0.62561192  1
  Na  Na95  1  0.75081442  0.83381828  0.87556859  1
  Mn  Mn96  1  0.85773418  0.08422374  0.00249873  1
  Mn  Mn97  1  0.14203808  0.58293793  0.49763480  1
  Mn  Mn98  1  0.10742847  0.08220302  0.62279239  1
  Mn  Mn99  1  0.60755693  0.08396934  0.37178625  1
  Mn  Mn100  1  0.60740145  0.74900016  0.37237485  1
  Mn  Mn101  1  0.10886651  0.08322832  0.37259118  1
  Mn  Mn102  1  0.35827060  0.41657969  0.50267966  1
  Mn  Mn103  1  0.10746570  0.75013617  0.87266110  1
  Mn  Mn104  1  0.14243623  0.25020493  0.99729505  1
  Mn  Mn105  1  0.64195192  0.91622654  0.99788019  1
  Mn  Mn106  1  0.39255907  0.25002934  0.12693102  1
  Mn  Mn107  1  0.35803599  0.08344631  0.75242828  1
  Mn  Mn108  1  0.85793243  0.08364668  0.25142276  1
  Mn  Mn109  1  0.14188502  0.91689116  0.49850154  1
  Mn  Mn110  1  0.10704101  0.41743399  0.62312062  1
  Mn  Mn111  1  0.89230030  0.91719341  0.37629435  1
  Mn  Mn112  1  0.89261531  0.24938134  0.12745444  1
  Mn  Mn113  1  0.39254369  0.24979071  0.87746962  1
  Mn  Mn114  1  0.85707669  0.41599042  0.50176222  1
  Mn  Mn115  1  0.64139838  0.24957116  0.24731858  1
  Mn  Mn116  1  0.60832494  0.41564255  0.62296119  1
  Mn  Mn117  1  0.14151937  0.91606937  0.74778237  1
  Mn  Mn118  1  0.85817913  0.74916682  0.00258076  1
  Mn  Mn119  1  0.35819910  0.08289605  0.50290342  1
  Mn  Mn120  1  0.89232819  0.24980538  0.37701630  1
  Mn  Mn121  1  0.85787949  0.74989083  0.75235291  1
  Mn  Mn122  1  0.89187592  0.58313541  0.37646056  1
  Mn  Mn123  1  0.14364330  0.58299065  0.24743346  1
  Mn  Mn124  1  0.35750230  0.41731341  0.75234492  1
  Mn  Mn125  1  0.39209612  0.58245987  0.62812579  1
  Mn  Mn126  1  0.60747355  0.75023176  0.87254258  1
  Mn  Mn127  1  0.89277024  0.58372294  0.12680197  1
  Mn  Mn128  1  0.60721852  0.74987610  0.12314384  1
  Mn  Mn129  1  0.39298196  0.91772136  0.62727546  1
  Mn  Mn130  1  0.10862610  0.74966664  0.37227172  1
  Mn  Mn131  1  0.85723204  0.08390119  0.75287231  1
  Mn  Mn132  1  0.10699503  0.41590005  0.87303662  1
  Mn  Mn133  1  0.64243241  0.58356225  0.49728328  1
  Mn  Mn134  1  0.64160029  0.58440880  0.24766776  1
  Mn  Mn135  1  0.39207957  0.91646319  0.37729396  1
  Mn  Mn136  1  0.35735462  0.74964718  0.75221318  1
  Mn  Mn137  1  0.85692309  0.08376318  0.50194290  1
  Mn  Mn138  1  0.89180395  0.24973666  0.62687487  1
  Mn  Mn139  1  0.85801319  0.75061015  0.50275021  1
  Mn  Mn140  1  0.60813129  0.75037341  0.62226263  1
  Mn  Mn141  1  0.35777755  0.75011087  0.00231663  1
  Mn  Mn142  1  0.10846766  0.41695706  0.37232852  1
  Mn  Mn143  1  0.64218960  0.25022449  0.74787069  1
  Fe  Fe144  1  0.60751808  0.08388550  0.62305272  1
  Fe  Fe145  1  0.85812172  0.74989520  0.25058116  1
  Fe  Fe146  1  0.89170184  0.91620894  0.62681858  1
  Fe  Fe147  1  0.35790599  0.41640234  0.00158561  1
  Fe  Fe148  1  0.85727776  0.41661806  0.75235005  1
  Fe  Fe149  1  0.39261964  0.58275039  0.37685275  1
  Fe  Fe150  1  0.60710115  0.41688704  0.87352232  1
  Fe  Fe151  1  0.14177024  0.58295923  0.74868020  1
  Fe  Fe152  1  0.64334402  0.58364442  0.74881370  1
  Fe  Fe153  1  0.64279597  0.91618052  0.24752978  1
  Fe  Fe154  1  0.14331546  0.25004622  0.49849516  1
  Fe  Fe155  1  0.10810083  0.41691108  0.12318104  1
  Fe  Fe156  1  0.39269376  0.91656625  0.87609220  1
  Fe  Fe157  1  0.89255798  0.24957532  0.87699888  1
  Fe  Fe158  1  0.85691314  0.41680862  0.25117842  1
  Fe  Fe159  1  0.39282675  0.24966512  0.62663447  1
  Fe  Fe160  1  0.64248004  0.91600885  0.74875649  1
  Fe  Fe161  1  0.14348131  0.91689158  0.24768573  1
  Fe  Fe162  1  0.14327417  0.91673747  0.99815772  1
  Fe  Fe163  1  0.60637641  0.08323037  0.12330922  1
  Fe  Fe164  1  0.14387309  0.24990532  0.24862156  1
  Fe  Fe165  1  0.60677285  0.08297480  0.87401057  1
  Fe  Fe166  1  0.39209977  0.91651614  0.12733338  1
  Fe  Fe167  1  0.10842485  0.74979917  0.12392472  1
  Fe  Fe168  1  0.35715566  0.75040289  0.50217268  1
  Fe  Fe169  1  0.39276323  0.58345394  0.87640479  1
  Fe  Fe170  1  0.10653570  0.74992059  0.62361899  1
  Fe  Fe171  1  0.89239113  0.58308252  0.87763326  1
  Fe  Fe172  1  0.89431198  0.91689761  0.12694405  1
  Fe  Fe173  1  0.35700375  0.08345988  0.25081072  1
  Fe  Fe174  1  0.35769343  0.41619871  0.25151343  1
  Fe  Fe175  1  0.10892587  0.08331387  0.12322945  1
  Fe  Fe176  1  0.64150233  0.24989560  0.49800998  1
  Fe  Fe177  1  0.60650482  0.41691811  0.37295191  1
  Fe  Fe178  1  0.14205570  0.25081245  0.74833454  1
  Fe  Fe179  1  0.10712756  0.08362784  0.87364233  1
  Fe  Fe180  1  0.35738551  0.08356338  0.00147566  1
  Fe  Fe181  1  0.89245248  0.58385210  0.62712593  1
  Fe  Fe182  1  0.64290298  0.91676573  0.49817750  1
  Fe  Fe183  1  0.35703920  0.75038673  0.25151579  1
  Fe  Fe184  1  0.39260217  0.58372052  0.12632468  1
  Fe  Fe185  1  0.64229606  0.25060405  0.99812348  1
  Fe  Fe186  1  0.85611801  0.41662107  0.00210006  1
  Fe  Fe187  1  0.89255121  0.91743127  0.87720212  1
  Fe  Fe188  1  0.60687989  0.41685653  0.12301835  1
  Fe  Fe189  1  0.14346632  0.58299147  0.99855184  1
  Fe  Fe190  1  0.64184152  0.58298450  0.99781412  1
  Fe  Fe191  1  0.39236791  0.25059627  0.37694719  1
  P  P192  1  0.05579206  0.25064409  0.11155625  1
  P  P193  1  0.05572455  0.25012889  0.36005908  1
  P  P194  1  0.05491966  0.25032627  0.61035163  1
  P  P195  1  0.05253021  0.24949770  0.85979824  1
  P  P196  1  0.05489641  0.58287350  0.10951728  1
  P  P197  1  0.05343700  0.58312292  0.35914694  1
  P  P198  1  0.05275866  0.58416780  0.61134519  1
  P  P199  1  0.05365939  0.58256377  0.86124298  1
  P  P200  1  0.05559006  0.91655610  0.11084275  1
  P  P201  1  0.05473006  0.91655654  0.35869420  1
  P  P202  1  0.05125872  0.91533216  0.61020142  1
  P  P203  1  0.05335197  0.91773511  0.86183900  1
  P  P204  1  0.55377610  0.25000409  0.10933412  1
  P  P205  1  0.55264455  0.25092583  0.36046102  1
  P  P206  1  0.55275375  0.24918687  0.60938807  1
  P  P207  1  0.55482188  0.25028983  0.86202576  1
  P  P208  1  0.55244149  0.58302531  0.10958256  1
  P  P209  1  0.55165980  0.58262259  0.35987495  1
  P  P210  1  0.55477867  0.58308547  0.61103704  1
  P  P211  1  0.55393050  0.58259406  0.86059535  1
  P  P212  1  0.55290672  0.91689133  0.11154553  1
  P  P213  1  0.55528219  0.91637656  0.36005147  1
  P  P214  1  0.55544836  0.91777890  0.61024030  1
  P  P215  1  0.55248693  0.91728975  0.85982373  1
  P  P216  1  0.44552011  0.08279574  0.13926365  1
  P  P217  1  0.44490366  0.08386150  0.38829811  1
  P  P218  1  0.44832934  0.08460616  0.64003528  1
  P  P219  1  0.44715586  0.08249894  0.89057717  1
  P  P220  1  0.44578632  0.41728571  0.13882929  1
  P  P221  1  0.44598181  0.41654935  0.38848013  1
  P  P222  1  0.44710312  0.41514651  0.64046813  1
  P  P223  1  0.44706887  0.41744582  0.89030614  1
  P  P224  1  0.44558012  0.75015952  0.14046601  1
  P  P225  1  0.44443569  0.74929860  0.38955806  1
  P  P226  1  0.44571030  0.75021836  0.63904634  1
  P  P227  1  0.44648675  0.74997994  0.88959351  1
  P  P228  1  0.94892609  0.08290230  0.13987738  1
  P  P229  1  0.94714026  0.08353349  0.38996085  1
  P  P230  1  0.94596490  0.08243124  0.63995969  1
  P  P231  1  0.94765816  0.08419494  0.89036458  1
  P  P232  1  0.94616539  0.41665399  0.13912676  1
  P  P233  1  0.94570958  0.41639216  0.38879299  1
  P  P234  1  0.94531162  0.41722708  0.64071688  1
  P  P235  1  0.94403321  0.41612379  0.88973577  1
  P  P236  1  0.94820325  0.75055832  0.13999272  1
  P  P237  1  0.94558010  0.75013627  0.38844418  1
  P  P238  1  0.94744034  0.75016844  0.64026168  1
  P  P239  1  0.94627872  0.74976876  0.89038670  1
  P  P240  1  0.19786505  0.08349285  0.23436564  1
  P  P241  1  0.19697710  0.08387413  0.48533826  1
  P  P242  1  0.19503701  0.08397613  0.73651515  1
  P  P243  1  0.19608692  0.08252014  0.98543501  1
  P  P244  1  0.19821002  0.41586870  0.23432120  1
  P  P245  1  0.19683780  0.41612927  0.48511563  1
  P  P246  1  0.19614740  0.41727267  0.73533286  1
  P  P247  1  0.19699059  0.41746019  0.98621239  1
  P  P248  1  0.19803962  0.75045069  0.23424682  1
  P  P249  1  0.19644652  0.74991581  0.48603633  1
  P  P250  1  0.19543297  0.74869847  0.73466974  1
  P  P251  1  0.19509340  0.74997224  0.98670668  1
  P  P252  1  0.69580158  0.08239582  0.23371413  1
  P  P253  1  0.69470207  0.08362068  0.48597644  1
  P  P254  1  0.69411131  0.08224360  0.73645724  1
  P  P255  1  0.69429992  0.08380127  0.98579771  1
  P  P256  1  0.69514835  0.41703818  0.23510883  1
  P  P257  1  0.69535705  0.41579162  0.48414120  1
  P  P258  1  0.69665263  0.41759880  0.73697348  1
  P  P259  1  0.69474876  0.41687701  0.98581544  1
  P  P260  1  0.69812535  0.75071658  0.23444921  1
  P  P261  1  0.69696842  0.75092088  0.48453804  1
  P  P262  1  0.69651661  0.74996161  0.73556196  1
  P  P263  1  0.69647253  0.74926497  0.98493978  1
  P  P264  1  0.30380887  0.24969695  0.01457204  1
  P  P265  1  0.30352905  0.24995176  0.26441786  1
  P  P266  1  0.30421249  0.24989776  0.51506562  1
  P  P267  1  0.30306778  0.25015229  0.76407033  1
  P  P268  1  0.30477766  0.58271577  0.01419020  1
  P  P269  1  0.30597134  0.58317137  0.26375116  1
  P  P270  1  0.30482528  0.58392146  0.51397477  1
  P  P271  1  0.30200978  0.58361209  0.76606963  1
  P  P272  1  0.30468806  0.91758257  0.01397977  1
  P  P273  1  0.30354191  0.91680815  0.26332364  1
  P  P274  1  0.30322666  0.91602821  0.51564681  1
  P  P275  1  0.30362232  0.91654234  0.76600630  1
  P  P276  1  0.80314028  0.25079785  0.01388508  1
  P  P277  1  0.80298534  0.25072189  0.26442810  1
  P  P278  1  0.80085689  0.24988011  0.51507098  1
  P  P279  1  0.80374046  0.25060297  0.76624827  1
  P  P280  1  0.80296055  0.58208991  0.01382951  1
  P  P281  1  0.80333972  0.58308489  0.26403618  1
  P  P282  1  0.80391178  0.58309349  0.51572762  1
  P  P283  1  0.80443173  0.58278501  0.76483299  1
  P  P284  1  0.80571395  0.91704788  0.01469712  1
  P  P285  1  0.80388613  0.91644990  0.26296818  1
  P  P286  1  0.80248840  0.91730636  0.51551210  1
  P  P287  1  0.80370555  0.91684882  0.76506243  1
  O  O288  1  0.06025206  0.25070464  0.18825696  1
  O  O289  1  0.06002569  0.25016471  0.43681997  1
  O  O290  1  0.05902598  0.25057571  0.68714795  1
  O  O291  1  0.05650926  0.25058593  0.93655686  1
  O  O292  1  0.05789754  0.58265994  0.18627921  1
  O  O293  1  0.05636554  0.58301138  0.43596782  1
  O  O294  1  0.05735732  0.58311947  0.68801697  1
  O  O295  1  0.05930681  0.58239457  0.93781814  1
  O  O296  1  0.06031925  0.91668158  0.18755511  1
  O  O297  1  0.05756975  0.91644625  0.43549017  1
  O  O298  1  0.05501242  0.91616785  0.68690547  1
  O  O299  1  0.05854636  0.91708818  0.93843829  1
  O  O300  1  0.55594843  0.25008686  0.18642111  1
  O  O301  1  0.55728729  0.25015537  0.43704408  1
  O  O302  1  0.55654650  0.25002866  0.68618698  1
  O  O303  1  0.55831213  0.25056371  0.93866531  1
  O  O304  1  0.55592818  0.58348330  0.18628453  1
  O  O305  1  0.55565258  0.58344482  0.43653698  1
  O  O306  1  0.55965907  0.58333217  0.68778041  1
  O  O307  1  0.55839413  0.58340199  0.93732114  1
  O  O308  1  0.55806946  0.91609276  0.18813598  1
  O  O309  1  0.55955036  0.91627643  0.43680120  1
  O  O310  1  0.55920347  0.91641664  0.68700945  1
  O  O311  1  0.55584306  0.91641134  0.93657771  1
  O  O312  1  0.44104682  0.08320647  0.06257555  1
  O  O313  1  0.44025063  0.08317471  0.31151221  1
  O  O314  1  0.44464639  0.08368841  0.56332791  1
  O  O315  1  0.44378325  0.08335519  0.81384962  1
  O  O316  1  0.44114989  0.41658590  0.06212289  1
  O  O317  1  0.44153067  0.41618180  0.31178335  1
  O  O318  1  0.44407200  0.41620790  0.56369035  1
  O  O319  1  0.44339487  0.41669339  0.81361678  1
  O  O320  1  0.44311710  0.75044659  0.06364317  1
  O  O321  1  0.44015849  0.75053652  0.31278592  1
  O  O322  1  0.44134981  0.75030820  0.56230093  1
  O  O323  1  0.44401928  0.74978288  0.81284723  1
  O  O324  1  0.94440333  0.08370936  0.06327866  1
  O  O325  1  0.94392203  0.08384548  0.31320189  1
  O  O326  1  0.94291799  0.08326118  0.56320640  1
  O  O327  1  0.94386004  0.08415910  0.81369639  1
  O  O328  1  0.94067182  0.41647768  0.06247827  1
  O  O329  1  0.94110179  0.41621115  0.31207346  1
  O  O330  1  0.94273915  0.41625265  0.56389316  1
  O  O331  1  0.94043380  0.41646850  0.81295737  1
  O  O332  1  0.94431180  0.74976247  0.06332674  1
  O  O333  1  0.94104923  0.75015982  0.31169419  1
  O  O334  1  0.94437965  0.75015434  0.56350051  1
  O  O335  1  0.94334031  0.74942777  0.81364186  1
  O  O336  1  0.19166640  0.08321955  0.06213748  1
  O  O337  1  0.19474540  0.08330823  0.31110946  1
  O  O338  1  0.19359711  0.08310356  0.56210468  1
  O  O339  1  0.19079955  0.08329721  0.81329875  1
  O  O340  1  0.19235124  0.41689306  0.06275874  1
  O  O341  1  0.19453944  0.41664454  0.31106568  1
  O  O342  1  0.19329808  0.41716321  0.56181486  1
  O  O343  1  0.19331151  0.41705035  0.81217642  1
  O  O344  1  0.19152696  0.75003311  0.06341198  1
  O  O345  1  0.19481654  0.74983882  0.31099652  1
  O  O346  1  0.19095747  0.74980864  0.56264393  1
  O  O347  1  0.19257193  0.74972629  0.81154734  1
  O  O348  1  0.68988752  0.08281628  0.06254257  1
  O  O349  1  0.69302484  0.08319461  0.31030600  1
  O  O350  1  0.69145085  0.08411777  0.56292218  1
  O  O351  1  0.69006645  0.08283057  0.81321166  1
  O  O352  1  0.69017883  0.41711005  0.06257359  1
  O  O353  1  0.69004423  0.41702104  0.31174882  1
  O  O354  1  0.69312317  0.41643469  0.56101209  1
  O  O355  1  0.69175397  0.41701459  0.81357313  1
  O  O356  1  0.69319473  0.74998138  0.06167454  1
  O  O357  1  0.69402529  0.75009396  0.31108796  1
  O  O358  1  0.69386768  0.75005777  0.56133095  1
  O  O359  1  0.69374698  0.74996461  0.81231488  1
  O  O360  1  0.30698826  0.25012392  0.18837254  1
  O  O361  1  0.30910280  0.25004706  0.43823402  1
  O  O362  1  0.30824104  0.24969092  0.68752646  1
  O  O363  1  0.30644035  0.24977756  0.93748850  1
  O  O364  1  0.30929615  0.58304315  0.18691702  1
  O  O365  1  0.30907045  0.58284105  0.43720360  1
  O  O366  1  0.30604275  0.58347038  0.68934590  1
  O  O367  1  0.30939241  0.58338135  0.93751617  1
  O  O368  1  0.30792449  0.91686663  0.18661890  1
  O  O369  1  0.30618428  0.91675771  0.43870739  1
  O  O370  1  0.30728164  0.91685831  0.68926546  1
  O  O371  1  0.30943978  0.91683536  0.93733976  1
  O  O372  1  0.80625542  0.25013287  0.18765141  1
  O  O373  1  0.80511671  0.24967145  0.43842188  1
  O  O374  1  0.80670150  0.24971159  0.68942932  1
  O  O375  1  0.80815611  0.24942120  0.93733021  1
  O  O376  1  0.80629679  0.58291933  0.18725067  1
  O  O377  1  0.80691650  0.58323353  0.43893848  1
  O  O378  1  0.80906879  0.58365780  0.68813185  1
  O  O379  1  0.80803912  0.58299149  0.93721519  1
  O  O380  1  0.80959989  0.91716238  0.18631832  1
  O  O381  1  0.80661083  0.91719066  0.43882212  1
  O  O382  1  0.80848826  0.91687947  0.68835939  1
  O  O383  1  0.81004435  0.91746985  0.93787379  1
  O  O384  1  0.23421772  0.24993347  0.03971382  1
  O  O385  1  0.23331502  0.24973236  0.28939727  1
  O  O386  1  0.23382400  0.25007074  0.53835789  1
  O  O387  1  0.23271768  0.25041508  0.78781915  1
  O  O388  1  0.23441365  0.58332634  0.03784946  1
  O  O389  1  0.23605465  0.58319879  0.28854198  1
  O  O390  1  0.23482077  0.58361366  0.53811114  1
  O  O391  1  0.23194978  0.58330353  0.79042413  1
  O  O392  1  0.23420896  0.91696804  0.03733172  1
  O  O393  1  0.23331593  0.91665083  0.28748767  1
  O  O394  1  0.23372426  0.91658467  0.54108628  1
  O  O395  1  0.23374216  0.91627122  0.79049812  1
  O  O396  1  0.73269737  0.25094514  0.03732467  1
  O  O397  1  0.73316748  0.24992774  0.28925403  1
  O  O398  1  0.73091221  0.25046762  0.53979790  1
  O  O399  1  0.73389317  0.25018665  0.79094300  1
  O  O400  1  0.73256652  0.58223235  0.03736665  1
  O  O401  1  0.73375685  0.58355873  0.28960755  1
  O  O402  1  0.73417137  0.58289466  0.54067551  1
  O  O403  1  0.73399856  0.58319172  0.78843481  1
  O  O404  1  0.73538216  0.91667236  0.03795225  1
  O  O405  1  0.73346681  0.91668349  0.28634717  1
  O  O406  1  0.73230763  0.91737141  0.53955244  1
  O  O407  1  0.73328418  0.91648259  0.78858861  1
  O  O408  1  0.26793075  0.08360344  0.20954602  1
  O  O409  1  0.26661178  0.08339869  0.46017409  1
  O  O410  1  0.26506246  0.08370070  0.71226655  1
  O  O411  1  0.26645189  0.08320127  0.96174212  1
  O  O412  1  0.26845933  0.41655699  0.21021227  1
  O  O413  1  0.26657079  0.41603347  0.46020531  1
  O  O414  1  0.26566869  0.41724960  0.70970870  1
  O  O415  1  0.26732343  0.41688992  0.96229422  1
  O  O416  1  0.26806255  0.75016019  0.20948762  1
  O  O417  1  0.26676992  0.75007169  0.46244402  1
  O  O418  1  0.26510828  0.74947751  0.70963353  1
  O  O419  1  0.26505875  0.74983215  0.96213764  1
  O  O420  1  0.76544410  0.08354106  0.20820323  1
  O  O421  1  0.76436728  0.08287624  0.46064548  1
  O  O422  1  0.76418994  0.08367674  0.71243071  1
  O  O423  1  0.76447181  0.08320376  0.96199326  1
  O  O424  1  0.76551313  0.41681456  0.21155133  1
  O  O425  1  0.76491490  0.41639841  0.45863240  1
  O  O426  1  0.76693765  0.41700831  0.71314036  1
  O  O427  1  0.76515542  0.41673845  0.96225503  1
  O  O428  1  0.76814559  0.74998419  0.20971593  1
  O  O429  1  0.76659525  0.75088487  0.45938427  1
  O  O430  1  0.76607142  0.75034666  0.71004018  1
  O  O431  1  0.76616875  0.74963920  0.95992123  1
  O  O432  1  0.01921158  0.08318742  0.16371351  1
  O  O433  1  0.01680241  0.08311853  0.41501340  1
  O  O434  1  0.01561142  0.08285837  0.66520395  1
  O  O435  1  0.01768551  0.08391030  0.91517645  1
  O  O436  1  0.01679763  0.41692886  0.16198350  1
  O  O437  1  0.01570684  0.41663565  0.41294178  1
  O  O438  1  0.01494165  0.41684463  0.66610516  1
  O  O439  1  0.01415347  0.41599441  0.91402087  1
  O  O440  1  0.01846228  0.75006923  0.16407699  1
  O  O441  1  0.01563695  0.74990719  0.41237793  1
  O  O442  1  0.01706106  0.75000310  0.66603596  1
  O  O443  1  0.01597875  0.75010999  0.91553470  1
  O  O444  1  0.51596184  0.08342672  0.16302328  1
  O  O445  1  0.51488586  0.08345200  0.41195133  1
  O  O446  1  0.51824227  0.08396854  0.66477712  1
  O  O447  1  0.51723554  0.08280130  0.91508634  1
  O  O448  1  0.51634380  0.41659026  0.16225135  1
  O  O449  1  0.51611781  0.41678823  0.41276742  1
  O  O450  1  0.51667474  0.41552893  0.66580928  1
  O  O451  1  0.51717065  0.41740467  0.91465410  1
  O  O452  1  0.51512214  0.74970267  0.16613230  1
  O  O453  1  0.51451898  0.74979610  0.41355687  1
  O  O454  1  0.51576153  0.75016945  0.66302182  1
  O  O455  1  0.51592601  0.75029695  0.91554435  1
  O  O456  1  0.48438021  0.25003995  0.08400003  1
  O  O457  1  0.48240676  0.25051809  0.33624991  1
  O  O458  1  0.48284054  0.24975147  0.58460726  1
  O  O459  1  0.48490394  0.24965728  0.83712137  1
  O  O460  1  0.48225879  0.58364770  0.08529338  1
  O  O461  1  0.48164099  0.58264277  0.33540522  1
  O  O462  1  0.48465197  0.58283084  0.58739467  1
  O  O463  1  0.48352992  0.58297306  0.83683108  1
  O  O464  1  0.48245232  0.91679466  0.08813537  1
  O  O465  1  0.48490498  0.91668762  0.33660649  1
  O  O466  1  0.48551601  0.91729031  0.58566282  1
  O  O467  1  0.48246135  0.91702339  0.83509146  1
  O  O468  1  0.98570954  0.25020497  0.08738876  1
  O  O469  1  0.98570906  0.25011755  0.33598779  1
  O  O470  1  0.98479068  0.25004687  0.58633763  1
  O  O471  1  0.98242848  0.25001094  0.83557414  1
  O  O472  1  0.98506634  0.58313775  0.08453384  1
  O  O473  1  0.98392112  0.58317085  0.33377592  1
  O  O474  1  0.98252666  0.58357905  0.58726991  1
  O  O475  1  0.98297856  0.58270151  0.83864225  1
  O  O476  1  0.98502896  0.91671625  0.08745793  1
  O  O477  1  0.98501688  0.91684211  0.33371780  1
  O  O478  1  0.98139372  0.91586630  0.58515445  1
  O  O479  1  0.98291449  0.91726231  0.83833243  1
  O  O480  1  0.08879360  0.31594219  0.07818922  1
  O  O481  1  0.08956617  0.31493289  0.32672272  1
  O  O482  1  0.08839935  0.31537002  0.57720867  1
  O  O483  1  0.08657271  0.31437289  0.82669987  1
  O  O484  1  0.08919282  0.64798531  0.07740096  1
  O  O485  1  0.08781693  0.64810483  0.32696971  1
  O  O486  1  0.08588039  0.64953542  0.57842062  1
  O  O487  1  0.08683279  0.64748202  0.82755201  1
  O  O488  1  0.08895655  0.98156963  0.07743491  1
  O  O489  1  0.08927130  0.98147107  0.32640410  1
  O  O490  1  0.08546229  0.98025328  0.57741782  1
  O  O491  1  0.08626938  0.98283126  0.82845828  1
  O  O492  1  0.58827851  0.31508132  0.07741928  1
  O  O493  1  0.58589605  0.31613067  0.32746657  1
  O  O494  1  0.58710233  0.31395483  0.57654885  1
  O  O495  1  0.58796311  0.31559700  0.82886361  1
  O  O496  1  0.58663035  0.64781296  0.07672110  1
  O  O497  1  0.58515672  0.64772744  0.32667275  1
  O  O498  1  0.58793815  0.64810556  0.57746991  1
  O  O499  1  0.58761180  0.64737448  0.82705787  1
  O  O500  1  0.58604205  0.98198461  0.07825166  1
  O  O501  1  0.58886444  0.98116672  0.32678178  1
  O  O502  1  0.58877089  0.98333221  0.57794130  1
  O  O503  1  0.58653915  0.98237790  0.82764320  1
  O  O504  1  0.41227027  0.01771904  0.17262512  1
  O  O505  1  0.41154860  0.01887160  0.42186586  1
  O  O506  1  0.41416668  0.01979094  0.67294335  1
  O  O507  1  0.41321508  0.01746869  0.92299641  1
  O  O508  1  0.41226339  0.35260770  0.17247816  1
  O  O509  1  0.41273732  0.35136353  0.42176089  1
  O  O510  1  0.41311973  0.34981248  0.67228507  1
  O  O511  1  0.41319401  0.35245955  0.92339548  1
  O  O512  1  0.41096963  0.68507309  0.17216573  1
  O  O513  1  0.41106075  0.68394533  0.42205171  1
  O  O514  1  0.41222133  0.68518628  0.67223374  1
  O  O515  1  0.41236592  0.68478877  0.92184813  1
  O  O516  1  0.91546011  0.01775228  0.17262427  1
  O  O517  1  0.91279648  0.01845175  0.42198044  1
  O  O518  1  0.91207787  0.01721926  0.67221448  1
  O  O519  1  0.91362763  0.01924802  0.92300828  1
  O  O520  1  0.91300865  0.35175090  0.17289575  1
  O  O521  1  0.91237457  0.35133645  0.42220086  1
  O  O522  1  0.91068511  0.35240768  0.67324376  1
  O  O523  1  0.91038735  0.35097650  0.92257426  1
  O  O524  1  0.91411611  0.68568798  0.17287910  1
  O  O525  1  0.91196736  0.68523569  0.42163983  1
  O  O526  1  0.91318011  0.68513417  0.67266057  1
  O  O527  1  0.91256017  0.68446971  0.92295504  1
  O  O528  1  0.16401182  0.01851504  0.20150954  1
  O  O529  1  0.16276372  0.01893404  0.45276887  1
  O  O530  1  0.16158940  0.01880642  0.70334429  1
  O  O531  1  0.16285390  0.01726607  0.95249749  1
  O  O532  1  0.16470229  0.35066740  0.20176500  1
  O  O533  1  0.16291059  0.35086457  0.45303628  1
  O  O534  1  0.16189923  0.35225998  0.70314982  1
  O  O535  1  0.16340967  0.35261078  0.95261507  1
  O  O536  1  0.16393342  0.68551086  0.20151625  1
  O  O537  1  0.16344044  0.68487707  0.45227779  1
  O  O538  1  0.16159559  0.68325203  0.70279755  1
  O  O539  1  0.16148908  0.68481440  0.95396119  1
  O  O540  1  0.66181260  0.01714442  0.20145721  1
  O  O541  1  0.66049631  0.01862768  0.45367579  1
  O  O542  1  0.66127412  0.01680378  0.70356632  1
  O  O543  1  0.66048798  0.01897002  0.95238760  1
  O  O544  1  0.66159180  0.35205889  0.20170398  1
  O  O545  1  0.66108238  0.35059951  0.45219158  1
  O  O546  1  0.66328770  0.35253859  0.70348955  1
  O  O547  1  0.66136650  0.35183423  0.95257916  1
  O  O548  1  0.66387791  0.68578006  0.20180580  1
  O  O549  1  0.66297301  0.68578152  0.45182076  1
  O  O550  1  0.66266797  0.68469215  0.70328923  1
  O  O551  1  0.66253883  0.68402268  0.95286600  1
  O  O552  1  0.33811256  0.31464789  0.04660738  1
  O  O553  1  0.33721580  0.31514016  0.29771369  1
  O  O554  1  0.33773617  0.31472851  0.54842970  1
  O  O555  1  0.33651454  0.31520080  0.79731438  1
  O  O556  1  0.33837010  0.64759062  0.04772515  1
  O  O557  1  0.33969130  0.64830215  0.29641542  1
  O  O558  1  0.33825578  0.64911869  0.54667490  1
  O  O559  1  0.33585445  0.64865107  0.79883748  1
  O  O560  1  0.33771253  0.98277616  0.04724546  1
  O  O561  1  0.33682621  0.98189996  0.29652772  1
  O  O562  1  0.33763026  0.98100439  0.54802952  1
  O  O563  1  0.33768297  0.98153796  0.79869908  1
  O  O564  1  0.83638706  0.31599613  0.04686342  1
  O  O565  1  0.83650694  0.31612900  0.29666961  1
  O  O566  1  0.83511311  0.31478210  0.54766399  1
  O  O567  1  0.83767869  0.31574200  0.79838368  1
  O  O568  1  0.83635413  0.64698058  0.04746077  1
  O  O569  1  0.83778705  0.64817078  0.29594513  1
  O  O570  1  0.83804763  0.64816093  0.54830399  1
  O  O571  1  0.83796880  0.64764327  0.79842479  1
  O  O572  1  0.83905345  0.98203331  0.04806024  1
  O  O573  1  0.83674667  0.98156124  0.29679857  1
  O  O574  1  0.83621686  0.98217419  0.54860796  1
  O  O575  1  0.83683909  0.98195680  0.79858211  1
  O  O576  1  0.41197258  0.14764546  0.17252397  1
  O  O577  1  0.41174622  0.14922122  0.42115691  1
  O  O578  1  0.41467999  0.14984429  0.67256507  1
  O  O579  1  0.41312320  0.14742562  0.92359404  1
  O  O580  1  0.41287906  0.48258780  0.17186471  1
  O  O581  1  0.41250108  0.48156531  0.42163536  1
  O  O582  1  0.41280947  0.48006222  0.67314987  1
  O  O583  1  0.41301995  0.48245768  0.92274056  1
  O  O584  1  0.41135859  0.81521811  0.17289352  1
  O  O585  1  0.41058561  0.81418286  0.42299739  1
  O  O586  1  0.41229767  0.81527339  0.67211449  1
  O  O587  1  0.41201317  0.81498496  0.92173864  1
  O  O588  1  0.91520303  0.14782457  0.17300663  1
  O  O589  1  0.91320878  0.14855845  0.42268557  1
  O  O590  1  0.91173042  0.14744173  0.67254312  1
  O  O591  1  0.91409214  0.14944848  0.92322227  1
  O  O592  1  0.91282716  0.48168765  0.17247555  1
  O  O593  1  0.91204346  0.48139494  0.42175932  1
  O  O594  1  0.91129503  0.48247355  0.67283170  1
  O  O595  1  0.91036627  0.48115259  0.92287156  1
  O  O596  1  0.91451642  0.81567142  0.17263954  1
  O  O597  1  0.91234933  0.81535987  0.42159113  1
  O  O598  1  0.91317480  0.81524936  0.67254791  1
  O  O599  1  0.91217128  0.81493345  0.92237231  1
  O  O600  1  0.08941666  0.18554250  0.07860329  1
  O  O601  1  0.08958435  0.18516578  0.32698692  1
  O  O602  1  0.08884402  0.18539277  0.57744135  1
  O  O603  1  0.08640437  0.18436124  0.82754745  1
  O  O604  1  0.08890852  0.51777435  0.07687783  1
  O  O605  1  0.08772064  0.51818566  0.32675003  1
  O  O606  1  0.08638706  0.51939053  0.57766879  1
  O  O607  1  0.08650029  0.51755562  0.82734665  1
  O  O608  1  0.08863095  0.85135457  0.07753464  1
  O  O609  1  0.08901429  0.85165173  0.32617014  1
  O  O610  1  0.08509743  0.85012674  0.57786714  1
  O  O611  1  0.08654000  0.85273775  0.82820252  1
  O  O612  1  0.58831487  0.18494707  0.07754796  1
  O  O613  1  0.58614615  0.18607027  0.32695674  1
  O  O614  1  0.58656875  0.18401434  0.57690689  1
  O  O615  1  0.58870684  0.18523819  0.82946162  1
  O  O616  1  0.58601713  0.51784433  0.07685821  1
  O  O617  1  0.58545204  0.51763451  0.32726119  1
  O  O618  1  0.58813131  0.51793408  0.57806670  1
  O  O619  1  0.58736747  0.51738384  0.82775566  1
  O  O620  1  0.58600420  0.85196012  0.07767655  1
  O  O621  1  0.58849337  0.85127793  0.32665872  1
  O  O622  1  0.58958239  0.85319022  0.57672424  1
  O  O623  1  0.58664052  0.85251331  0.82674173  1
  O  O624  1  0.33771363  0.18447051  0.04655706  1
  O  O625  1  0.33744545  0.18487825  0.29748205  1
  O  O626  1  0.33747051  0.18488978  0.54849743  1
  O  O627  1  0.33636176  0.18521923  0.79776436  1
  O  O628  1  0.33804125  0.51762959  0.04732619  1
  O  O629  1  0.33967940  0.51798144  0.29653198  1
  O  O630  1  0.33834651  0.51895554  0.54745413  1
  O  O631  1  0.33637307  0.51880761  0.79879032  1
  O  O632  1  0.33820823  0.85277056  0.04775181  1
  O  O633  1  0.33693136  0.85172139  0.29649164  1
  O  O634  1  0.33728537  0.85087309  0.54753455  1
  O  O635  1  0.33775619  0.85154749  0.79853017  1
  O  O636  1  0.83625343  0.18591911  0.04790490  1
  O  O637  1  0.83723538  0.18578835  0.29694718  1
  O  O638  1  0.83438433  0.18478664  0.54813630  1
  O  O639  1  0.83795266  0.18573421  0.79914838  1
  O  O640  1  0.83620631  0.51698008  0.04694179  1
  O  O641  1  0.83705442  0.51767674  0.29635271  1
  O  O642  1  0.83816852  0.51814111  0.54810172  1
  O  O643  1  0.83762299  0.51767975  0.79803359  1
  O  O644  1  0.83942798  0.85206019  0.04761960  1
  O  O645  1  0.83690807  0.85121307  0.29612540  1
  O  O646  1  0.83619357  0.85226956  0.54864772  1
  O  O647  1  0.83748025  0.85203668  0.79826664  1
  O  O648  1  0.16389310  0.14854954  0.20186393  1
  O  O649  1  0.16326023  0.14919071  0.45309877  1
  O  O650  1  0.16152862  0.14912130  0.70388250  1
  O  O651  1  0.16218751  0.14727427  0.95201690  1
  O  O652  1  0.16404232  0.48059940  0.20124088  1
  O  O653  1  0.16305682  0.48112983  0.45207817  1
  O  O654  1  0.16207147  0.48263246  0.70329696  1
  O  O655  1  0.16375525  0.48258488  0.95306699  1
  O  O656  1  0.16400260  0.81539421  0.20172478  1
  O  O657  1  0.16322421  0.81501272  0.45268731  1
  O  O658  1  0.16072225  0.81340502  0.70203113  1
  O  O659  1  0.16176452  0.81523161  0.95371969  1
  O  O660  1  0.66066379  0.14714438  0.20137755  1
  O  O661  1  0.66122372  0.14889568  0.45309130  1
  O  O662  1  0.65979040  0.14689889  0.70316411  1
  O  O663  1  0.66106890  0.14912777  0.95306866  1
  O  O664  1  0.66174290  0.48201452  0.20166131  1
  O  O665  1  0.66066315  0.48060654  0.45162749  1
  O  O666  1  0.66357882  0.48265861  0.70368237  1
  O  O667  1  0.66145680  0.48185126  0.95230907  1
  O  O668  1  0.66449934  0.81580424  0.20162435  1
  O  O669  1  0.66279793  0.81602086  0.45256014  1
  O  O670  1  0.66210872  0.81505373  0.70353243  1
  O  O671  1  0.66239611  0.81435925  0.95242717  1
