# generated using pymatgen
data_Na2MnFe(PO4)2
_symmetry_space_group_name_H-M   'P 1'
_cell_length_a   21.07984218
_cell_length_b   18.93104747
_cell_length_c   20.03928210
_cell_angle_alpha   89.99970560
_cell_angle_beta   89.99679697
_cell_angle_gamma   89.99993367
_symmetry_Int_Tables_number   1
_chemical_formula_structural   Na2MnFe(PO4)2
_chemical_formula_sum   'Na96 Mn48 Fe48 P96 O384'
_cell_volume   7996.94589930
_cell_formula_units_Z   48
loop_
 _symmetry_equiv_pos_site_id
 _symmetry_equiv_pos_as_xyz
  1  'x, y, z'
loop_
 _atom_site_type_symbol
 _atom_site_label
 _atom_site_symmetry_multiplicity
 _atom_site_fract_x
 _atom_site_fract_y
 _atom_site_fract_z
 _atom_site_occupancy
  Na  Na0  1  0.00027146  0.00051493  0.00069357  1
  Na  Na1  1  -0.00111887  -0.00011893  0.25124745  1
  Na  Na2  1  -0.00010993  0.00032215  0.49884582  1
  Na  Na3  1  -0.00034150  0.00019495  0.74884428  1
  Na  Na4  1  -0.00126089  0.33273304  -0.00002839  1
  Na  Na5  1  -0.00039079  0.33303435  0.24913837  1
  Na  Na6  1  0.00031075  0.33318216  0.49985162  1
  Na  Na7  1  0.00010825  0.33325504  0.75116505  1
  Na  Na8  1  -0.00321576  0.66599252  0.00066498  1
  Na  Na9  1  -0.00291149  0.66645543  0.24988374  1
  Na  Na10  1  -0.00276809  0.66578978  0.50025176  1
  Na  Na11  1  -0.00105332  0.66682069  0.74948696  1
  Na  Na12  1  0.50196793  0.00089807  0.00001952  1
  Na  Na13  1  0.49839418  -0.00035552  0.25075228  1
  Na  Na14  1  0.50105912  0.00079237  0.49961479  1
  Na  Na15  1  0.50233571  0.00053943  0.74982656  1
  Na  Na16  1  0.49975760  0.33365912  -0.00073335  1
  Na  Na17  1  0.49863069  0.33282652  0.24959730  1
  Na  Na18  1  0.49973340  0.33283161  0.50117483  1
  Na  Na19  1  0.50178866  0.33454130  0.75050879  1
  Na  Na20  1  0.50108656  0.66665338  0.00007877  1
  Na  Na21  1  0.49944545  0.66637917  0.25132281  1
  Na  Na22  1  0.50023869  0.66656357  0.49937436  1
  Na  Na23  1  0.50316129  0.66732026  0.74898308  1
  Na  Na24  1  0.25257387  0.00080617  0.12516328  1
  Na  Na25  1  0.25250792  0.00010690  0.37371565  1
  Na  Na26  1  0.24979283  -0.00001943  0.62571199  1
  Na  Na27  1  0.24892322  -0.00011396  0.87495031  1
  Na  Na28  1  0.24864416  0.33238061  0.12517728  1
  Na  Na29  1  0.25037072  0.33319656  0.37516209  1
  Na  Na30  1  0.24850333  0.33307124  0.62377221  1
  Na  Na31  1  0.24970454  0.33387744  0.87585584  1
  Na  Na32  1  0.25302304  0.66748775  0.12494864  1
  Na  Na33  1  0.25201526  0.66739738  0.37412172  1
  Na  Na34  1  0.25016492  0.66708696  0.62513924  1
  Na  Na35  1  0.24849707  0.66524730  0.87522906  1
  Na  Na36  1  0.74827042  0.00012484  0.12455828  1
  Na  Na37  1  0.74883370  0.00077792  0.37466705  1
  Na  Na38  1  0.74801459  0.00015707  0.62581591  1
  Na  Na39  1  0.74843568  0.00043426  0.87568457  1
  Na  Na40  1  0.75136366  0.33348304  0.12405823  1
  Na  Na41  1  0.75244999  0.33441615  0.37488435  1
  Na  Na42  1  0.74914206  0.33239263  0.62457520  1
  Na  Na43  1  0.75134373  0.33413656  0.87627774  1
  Na  Na44  1  0.75180228  0.66723739  0.12390885  1
  Na  Na45  1  0.75080462  0.66686495  0.37466257  1
  Na  Na46  1  0.75041935  0.66682457  0.62637561  1
  Na  Na47  1  0.75089977  0.66682114  0.87510082  1
  Na  Na48  1  0.00000035  0.16725875  0.00096396  1
  Na  Na49  1  -0.00205656  0.16742368  0.25008014  1
  Na  Na50  1  -0.00219313  0.16748820  0.50045986  1
  Na  Na51  1  0.00118130  0.16632489  0.74948423  1
  Na  Na52  1  -0.00241491  0.50022012  -0.00079961  1
  Na  Na53  1  -0.00078674  0.49937202  0.24964808  1
  Na  Na54  1  -0.00004224  0.49929665  0.49964322  1
  Na  Na55  1  -0.00215822  0.50087921  0.75082529  1
  Na  Na56  1  -0.00221471  0.83398570  0.00090465  1
  Na  Na57  1  -0.00135156  0.83335404  0.25059900  1
  Na  Na58  1  0.00035378  0.83278101  0.49888865  1
  Na  Na59  1  -0.00122427  0.83362639  0.74894277  1
  Na  Na60  1  0.50125238  0.16671906  -0.00019479  1
  Na  Na61  1  0.49920612  0.16649515  0.24991322  1
  Na  Na62  1  0.49925153  0.16694506  0.50082525  1
  Na  Na63  1  0.50351555  0.16600006  0.74902490  1
  Na  Na64  1  0.49964465  0.49931642  -0.00047798  1
  Na  Na65  1  0.49962178  0.49985859  0.25054017  1
  Na  Na66  1  0.50253647  0.49881699  0.49980705  1
  Na  Na67  1  0.50083981  0.49937648  0.75049466  1
  Na  Na68  1  0.50157733  0.83285178  0.00005877  1
  Na  Na69  1  0.49795053  0.83448946  0.25124638  1
  Na  Na70  1  0.50032208  0.83287985  0.49972066  1
  Na  Na71  1  0.50264618  0.83258492  0.74963056  1
  Na  Na72  1  0.25108733  0.16672758  0.12483143  1
  Na  Na73  1  0.25210552  0.16635211  0.37472689  1
  Na  Na74  1  0.24955697  0.16682494  0.62523352  1
  Na  Na75  1  0.24717914  0.16814219  0.87479552  1
  Na  Na76  1  0.25059187  0.49934361  0.12529720  1
  Na  Na77  1  0.24951244  0.50020087  0.37455995  1
  Na  Na78  1  0.24828089  0.50061675  0.62472751  1
  Na  Na79  1  0.25044740  0.49881119  0.87604813  1
  Na  Na80  1  0.25220960  0.83360794  0.12508342  1
  Na  Na81  1  0.25303553  0.83319409  0.37368474  1
  Na  Na82  1  0.24915243  0.83394822  0.62501472  1
  Na  Na83  1  0.25084999  0.83261611  0.87500776  1
  Na  Na84  1  0.75108703  0.16630499  0.12490337  1
  Na  Na85  1  0.75099890  0.16616734  0.37444149  1
  Na  Na86  1  0.74919162  0.16662051  0.62461388  1
  Na  Na87  1  0.74876297  0.16725602  0.87638476  1
  Na  Na88  1  0.75132257  0.49911965  0.12355981  1
  Na  Na89  1  0.74943662  0.50037326  0.37469082  1
  Na  Na90  1  0.75023590  0.49948802  0.62593219  1
  Na  Na91  1  0.75171924  0.49891286  0.87521528  1
  Na  Na92  1  0.74915520  0.83331102  0.12400063  1
  Na  Na93  1  0.75047779  0.83247531  0.37535546  1
  Na  Na94  1  0.74916025  0.83338024  0.62600021  1
  Na  Na95  1  0.74982287  0.83304862  0.87559820  1
  Mn  Mn96  1  0.89136612  0.91738620  0.37782403  1
  Mn  Mn97  1  0.85760760  0.75003318  0.75287913  1
  Mn  Mn98  1  0.35823056  0.74907635  0.75210434  1
  Mn  Mn99  1  0.14123534  0.91625505  0.74802331  1
  Mn  Mn100  1  0.35771459  0.41637182  0.25163346  1
  Mn  Mn101  1  0.10792442  0.08339024  0.62179583  1
  Mn  Mn102  1  0.10737736  0.41634520  0.37254774  1
  Mn  Mn103  1  0.89127040  0.58276304  0.37748156  1
  Mn  Mn104  1  0.60772801  0.75049034  0.37279009  1
  Mn  Mn105  1  0.89192329  0.25069129  0.62784681  1
  Mn  Mn106  1  0.10780921  0.74985624  0.37254631  1
  Mn  Mn107  1  0.85757137  0.08320445  0.00237754  1
  Mn  Mn108  1  0.10700401  0.41686818  0.87279014  1
  Mn  Mn109  1  0.14173537  0.58484780  0.49753100  1
  Mn  Mn110  1  0.35782429  0.41713896  0.50293652  1
  Mn  Mn111  1  0.14217453  0.91684844  0.99801137  1
  Mn  Mn112  1  0.64226004  0.25011012  0.99830405  1
  Mn  Mn113  1  0.64155981  0.91639780  0.24766442  1
  Mn  Mn114  1  0.10800445  0.08347978  0.12356651  1
  Mn  Mn115  1  0.39247884  0.58278132  0.37793978  1
  Mn  Mn116  1  0.14252090  0.24875363  0.49718428  1
  Mn  Mn117  1  0.39282795  0.25052640  0.62810030  1
  Mn  Mn118  1  0.14236533  0.58359382  0.24700546  1
  Mn  Mn119  1  0.39315929  0.91648484  0.62721383  1
  Mn  Mn120  1  0.35922103  0.74942361  0.00215520  1
  Mn  Mn121  1  0.39327536  0.91676671  0.87688271  1
  Mn  Mn122  1  0.64241192  0.25055471  0.24762578  1
  Mn  Mn123  1  0.10788023  0.08360991  0.37278135  1
  Mn  Mn124  1  0.89102857  0.91705456  0.12791917  1
  Mn  Mn125  1  0.14376989  0.91704930  0.24768680  1
  Mn  Mn126  1  0.39247048  0.24977675  0.87628828  1
  Mn  Mn127  1  0.85734634  0.08409268  0.75273208  1
  Mn  Mn128  1  0.10747972  0.74948250  0.12304650  1
  Mn  Mn129  1  0.14199055  0.58317047  0.99856950  1
  Mn  Mn130  1  0.10671638  0.75066914  0.87356356  1
  Mn  Mn131  1  0.10748275  0.74949433  0.62210338  1
  Mn  Mn132  1  0.64239186  0.91740039  0.74766009  1
  Mn  Mn133  1  0.35782060  0.08416418  0.75251128  1
  Mn  Mn134  1  0.85780954  0.41693711  0.50325389  1
  Mn  Mn135  1  0.64293818  0.58230379  0.74789830  1
  Mn  Mn136  1  0.64224541  0.24994802  0.49686523  1
  Mn  Mn137  1  0.35826527  0.08402223  0.00135592  1
  Mn  Mn138  1  0.39225393  0.58351218  0.87646910  1
  Mn  Mn139  1  0.60823898  0.41537699  0.37236276  1
  Mn  Mn140  1  0.89169962  0.91661001  0.62638817  1
  Mn  Mn141  1  0.64257049  0.58306053  0.24683682  1
  Mn  Mn142  1  0.39283384  0.58291352  0.62738509  1
  Mn  Mn143  1  0.64255675  0.58334777  0.99812020  1
  Fe  Fe144  1  0.85603976  0.08251639  0.50157667  1
  Fe  Fe145  1  0.35689579  0.41674734  0.75107239  1
  Fe  Fe146  1  0.60738095  0.74977425  0.12390384  1
  Fe  Fe147  1  0.14231745  0.25006270  0.99871967  1
  Fe  Fe148  1  0.39334175  0.58326602  0.12639876  1
  Fe  Fe149  1  0.60805485  0.08392382  0.87301621  1
  Fe  Fe150  1  0.89258320  0.24981914  0.37609844  1
  Fe  Fe151  1  0.60650177  0.08378653  0.37327185  1
  Fe  Fe152  1  0.85742814  0.41679635  0.00203852  1
  Fe  Fe153  1  0.64200935  0.91632609  0.99851884  1
  Fe  Fe154  1  0.60817845  0.41694736  0.62361674  1
  Fe  Fe155  1  0.60730813  0.41648665  0.12329030  1
  Fe  Fe156  1  0.64324370  0.25070541  0.74905765  1
  Fe  Fe157  1  0.64258466  0.91626878  0.49826549  1
  Fe  Fe158  1  0.89276058  0.24938148  0.87678651  1
  Fe  Fe159  1  0.10672240  0.08298557  0.87388710  1
  Fe  Fe160  1  0.39300487  0.91745037  0.37801165  1
  Fe  Fe161  1  0.85646324  0.75057164  0.50171027  1
  Fe  Fe162  1  0.60765492  0.41654914  0.87298791  1
  Fe  Fe163  1  0.39237209  0.24973316  0.37653681  1
  Fe  Fe164  1  0.89217137  0.58271778  0.12696348  1
  Fe  Fe165  1  0.89213039  0.58274580  0.62686453  1
  Fe  Fe166  1  0.10687903  0.41715148  0.62424712  1
  Fe  Fe167  1  0.85753304  0.41641373  0.25120196  1
  Fe  Fe168  1  0.10629443  0.41684134  0.12335868  1
  Fe  Fe169  1  0.14370301  0.91666722  0.49798177  1
  Fe  Fe170  1  0.60834921  0.74950627  0.87353948  1
  Fe  Fe171  1  0.64341169  0.58372082  0.49904401  1
  Fe  Fe172  1  0.85668122  0.08322898  0.25202200  1
  Fe  Fe173  1  0.60696968  0.08364175  0.12426811  1
  Fe  Fe174  1  0.35752034  0.75042118  0.50219407  1
  Fe  Fe175  1  0.60774905  0.08344875  0.62205395  1
  Fe  Fe176  1  0.89237233  0.58371494  0.87706716  1
  Fe  Fe177  1  0.14145751  0.58271664  0.74841541  1
  Fe  Fe178  1  0.39238732  0.25006870  0.12624222  1
  Fe  Fe179  1  0.89299618  0.25012123  0.12727545  1
  Fe  Fe180  1  0.35867389  0.08362161  0.25159587  1
  Fe  Fe181  1  0.39372368  0.91665337  0.12561121  1
  Fe  Fe182  1  0.14294083  0.24958673  0.24818058  1
  Fe  Fe183  1  0.85674588  0.75035343  0.25156908  1
  Fe  Fe184  1  0.35755004  0.41622124  0.00217528  1
  Fe  Fe185  1  0.85743982  0.41572040  0.75173060  1
  Fe  Fe186  1  0.60809796  0.74960880  0.62204997  1
  Fe  Fe187  1  0.14192448  0.25098534  0.74865079  1
  Fe  Fe188  1  0.35782482  0.08266506  0.50217872  1
  Fe  Fe189  1  0.89188548  0.91726682  0.87702102  1
  Fe  Fe190  1  0.35884242  0.75017661  0.25120301  1
  Fe  Fe191  1  0.85661751  0.75030457  0.00183803  1
  P  P192  1  0.05406620  0.25063031  0.11099763  1
  P  P193  1  0.05269763  0.24951538  0.35904119  1
  P  P194  1  0.05447692  0.25143167  0.61113018  1
  P  P195  1  0.05370411  0.24927902  0.86121785  1
  P  P196  1  0.05142203  0.58250502  0.11008988  1
  P  P197  1  0.05269940  0.58354668  0.35938593  1
  P  P198  1  0.05268349  0.58217109  0.61109798  1
  P  P199  1  0.05196989  0.58370786  0.86006044  1
  P  P200  1  0.05290513  0.91670100  0.11057753  1
  P  P201  1  0.05458066  0.91673342  0.36077243  1
  P  P202  1  0.05376652  0.91652822  0.60814424  1
  P  P203  1  0.05112520  0.91734897  0.86028973  1
  P  P204  1  0.55214915  0.25018281  0.11027415  1
  P  P205  1  0.55199056  0.24884727  0.35989052  1
  P  P206  1  0.55554488  0.25055304  0.61152854  1
  P  P207  1  0.55451288  0.25055749  0.85958496  1
  P  P208  1  0.55250189  0.58304417  0.11032340  1
  P  P209  1  0.55516280  0.58321649  0.36108894  1
  P  P210  1  0.55475480  0.58277323  0.60936512  1
  P  P211  1  0.55407847  0.58278588  0.86014088  1
  P  P212  1  0.55309253  0.91668035  0.11023718  1
  P  P213  1  0.55349837  0.91772981  0.36157092  1
  P  P214  1  0.55480165  0.91663114  0.60903164  1
  P  P215  1  0.55543643  0.91659106  0.86121102  1
  P  P216  1  0.44736198  0.08355346  0.13983778  1
  P  P217  1  0.44567902  0.08376859  0.38962207  1
  P  P218  1  0.44738186  0.08311116  0.63914969  1
  P  P219  1  0.44881814  0.08382779  0.88951132  1
  P  P220  1  0.44671767  0.41655677  0.13854125  1
  P  P221  1  0.44669036  0.41534664  0.39027110  1
  P  P222  1  0.44796140  0.41690170  0.64099940  1
  P  P223  1  0.44583243  0.41648762  0.88907058  1
  P  P224  1  0.44816859  0.74990389  0.14035439  1
  P  P225  1  0.44487816  0.75084808  0.38980775  1
  P  P226  1  0.44766122  0.74985176  0.63879545  1
  P  P227  1  0.44894389  0.74967838  0.88956450  1
  P  P228  1  0.94577420  0.08407784  0.14105446  1
  P  P229  1  0.94441692  0.08440928  0.38965733  1
  P  P230  1  0.94514170  0.08324227  0.63875393  1
  P  P231  1  0.94738217  0.08365172  0.89007613  1
  P  P232  1  0.94549352  0.41635739  0.13886927  1
  P  P233  1  0.94502079  0.41547110  0.38884556  1
  P  P234  1  0.94694719  0.41712629  0.64113168  1
  P  P235  1  0.94424186  0.41609144  0.88927885  1
  P  P236  1  0.94413581  0.74944451  0.13969035  1
  P  P237  1  0.94416364  0.75016761  0.38979663  1
  P  P238  1  0.94457786  0.74944499  0.63849299  1
  P  P239  1  0.94523655  0.75044991  0.89077807  1
  P  P240  1  0.19880056  0.08414770  0.23520194  1
  P  P241  1  0.19852970  0.08212271  0.48445608  1
  P  P242  1  0.19476644  0.08422822  0.73623662  1
  P  P243  1  0.19600989  0.08441210  0.98470812  1
  P  P244  1  0.19556246  0.41562023  0.23432707  1
  P  P245  1  0.19527311  0.41690102  0.48583355  1
  P  P246  1  0.19647826  0.41671341  0.73479843  1
  P  P247  1  0.19589235  0.41591739  0.98676472  1
  P  P248  1  0.19880132  0.75038631  0.23465208  1
  P  P249  1  0.19816019  0.75123581  0.48439634  1
  P  P250  1  0.19604311  0.74887995  0.73515432  1
  P  P251  1  0.19725947  0.74978876  0.98514534  1
  P  P252  1  0.69582651  0.08386196  0.23555475  1
  P  P253  1  0.69540571  0.08262460  0.48496804  1
  P  P254  1  0.69488180  0.08507007  0.73565440  1
  P  P255  1  0.69424321  0.08292527  0.98631440  1
  P  P256  1  0.69780549  0.41633868  0.23369621  1
  P  P257  1  0.69599569  0.41761103  0.48599897  1
  P  P258  1  0.69670031  0.41554365  0.73602530  1
  P  P259  1  0.69596610  0.41671600  0.98574508  1
  P  P260  1  0.69731642  0.74986287  0.23412261  1
  P  P261  1  0.69653224  0.74965957  0.48627537  1
  P  P262  1  0.69494508  0.74972150  0.73572250  1
  P  P263  1  0.69564049  0.75023675  0.98598077  1
  P  P264  1  0.30305311  0.25073426  0.01516234  1
  P  P265  1  0.30450085  0.24950659  0.26417187  1
  P  P266  1  0.30510806  0.24892059  0.51412902  1
  P  P267  1  0.30169850  0.25134579  0.76484186  1
  P  P268  1  0.30444201  0.58202867  0.01561173  1
  P  P269  1  0.30531168  0.58361847  0.26364739  1
  P  P270  1  0.30328245  0.58437284  0.51530583  1
  P  P271  1  0.30157939  0.58204483  0.76483602  1
  P  P272  1  0.30456192  0.91700300  0.01534642  1
  P  P273  1  0.30731509  0.91697904  0.26370963  1
  P  P274  1  0.30417521  0.91687344  0.51407346  1
  P  P275  1  0.30332995  0.91660074  0.76514315  1
  P  P276  1  0.80550072  0.25048010  0.01459893  1
  P  P277  1  0.80513478  0.25015586  0.26393944  1
  P  P278  1  0.80444790  0.24885263  0.51368228  1
  P  P279  1  0.80263597  0.25060951  0.76603343  1
  P  P280  1  0.80545274  0.58331934  0.01398304  1
  P  P281  1  0.80450536  0.58290487  0.26328469  1
  P  P282  1  0.80273048  0.58408998  0.51603931  1
  P  P283  1  0.80532987  0.58204883  0.76477814  1
  P  P284  1  0.80274208  0.91645924  0.01388891  1
  P  P285  1  0.80255065  0.91686126  0.26504200  1
  P  P286  1  0.80127053  0.91708236  0.51506868  1
  P  P287  1  0.80358346  0.91715777  0.76608906  1
  O  O288  1  0.05886210  0.24965903  0.18766012  1
  O  O289  1  0.05669276  0.24918757  0.43582319  1
  O  O290  1  0.05850817  0.25060118  0.68793348  1
  O  O291  1  0.05812582  0.25019801  0.93793379  1
  O  O292  1  0.05556890  0.58319178  0.18677235  1
  O  O293  1  0.05604747  0.58392722  0.43623997  1
  O  O294  1  0.05741548  0.58319394  0.68780499  1
  O  O295  1  0.05603615  0.58334679  0.93674575  1
  O  O296  1  0.05683725  0.91659021  0.18734773  1
  O  O297  1  0.05967135  0.91672895  0.43745134  1
  O  O298  1  0.05667776  0.91658837  0.68501207  1
  O  O299  1  0.05512518  0.91672939  0.93698902  1
  O  O300  1  0.55573743  0.25031686  0.18694217  1
  O  O301  1  0.55590306  0.24956093  0.43660060  1
  O  O302  1  0.55948313  0.25076702  0.68822993  1
  O  O303  1  0.55689200  0.25076810  0.93639764  1
  O  O304  1  0.55574461  0.58288563  0.18707948  1
  O  O305  1  0.55980925  0.58355049  0.43778137  1
  O  O306  1  0.55749800  0.58268205  0.68619740  1
  O  O307  1  0.55672356  0.58264251  0.93690968  1
  O  O308  1  0.55572845  0.91663869  0.18704839  1
  O  O309  1  0.55869235  0.91660134  0.43815497  1
  O  O310  1  0.55739495  0.91671274  0.68590122  1
  O  O311  1  0.55860618  0.91641644  0.93805054  1
  O  O312  1  0.44431360  0.08384360  0.06312512  1
  O  O313  1  0.44170548  0.08373808  0.31284597  1
  O  O314  1  0.44210225  0.08306800  0.56250136  1
  O  O315  1  0.44474331  0.08400304  0.81280353  1
  O  O316  1  0.44229086  0.41631959  0.06183334  1
  O  O317  1  0.44332276  0.41623156  0.31348438  1
  O  O318  1  0.44364562  0.41672937  0.56430737  1
  O  O319  1  0.44067876  0.41656853  0.81241441  1
  O  O320  1  0.44519549  0.74976407  0.06357322  1
  O  O321  1  0.44119464  0.75005601  0.31298736  1
  O  O322  1  0.44202200  0.74990900  0.56217981  1
  O  O323  1  0.44501911  0.74944540  0.81283775  1
  O  O324  1  0.94302138  0.08318667  0.06424020  1
  O  O325  1  0.94020422  0.08309307  0.31290164  1
  O  O326  1  0.94027128  0.08294022  0.56203892  1
  O  O327  1  0.94405179  0.08379533  0.81334629  1
  O  O328  1  0.94143198  0.41642721  0.06211776  1
  O  O329  1  0.94119314  0.41631484  0.31207961  1
  O  O330  1  0.94364127  0.41620962  0.56431458  1
  O  O331  1  0.94080282  0.41583748  0.81251691  1
  O  O332  1  0.93994387  0.75062592  0.06291459  1
  O  O333  1  0.93974069  0.75050664  0.31300384  1
  O  O334  1  0.94008143  0.75030194  0.56172053  1
  O  O335  1  0.94319391  0.75049641  0.81390669  1
  O  O336  1  0.19350104  0.08355106  0.06151245  1
  O  O337  1  0.19468860  0.08356942  0.31183906  1
  O  O338  1  0.19444975  0.08297753  0.56119289  1
  O  O339  1  0.19026265  0.08338027  0.81298996  1
  O  O340  1  0.19061490  0.41677644  0.06334315  1
  O  O341  1  0.19281565  0.41638781  0.31116895  1
  O  O342  1  0.19081071  0.41707752  0.56254118  1
  O  O343  1  0.19314912  0.41672869  0.81165718  1
  O  O344  1  0.19387451  0.74995775  0.06191745  1
  O  O345  1  0.19451899  0.75024197  0.31132341  1
  O  O346  1  0.19382364  0.75029983  0.56111015  1
  O  O347  1  0.19265870  0.74938252  0.81192684  1
  O  O348  1  0.68997371  0.08386791  0.06311971  1
  O  O349  1  0.69072927  0.08410273  0.31221354  1
  O  O350  1  0.69113748  0.08354245  0.56177833  1
  O  O351  1  0.69124248  0.08416154  0.81251922  1
  O  O352  1  0.69056911  0.41654182  0.06241915  1
  O  O353  1  0.69375812  0.41614678  0.31045192  1
  O  O354  1  0.69203842  0.41650975  0.56277640  1
  O  O355  1  0.69224052  0.41651531  0.81275526  1
  O  O356  1  0.69070700  0.74948809  0.06267842  1
  O  O357  1  0.69334033  0.74979242  0.31086663  1
  O  O358  1  0.69239907  0.74977295  0.56303254  1
  O  O359  1  0.69108022  0.74946262  0.81258163  1
  O  O360  1  0.30928812  0.25008088  0.18742804  1
  O  O361  1  0.30907084  0.24980023  0.43732424  1
  O  O362  1  0.30584632  0.25041324  0.68814057  1
  O  O363  1  0.30675764  0.25031655  0.93846544  1
  O  O364  1  0.30994876  0.58296998  0.18688874  1
  O  O365  1  0.30659836  0.58324483  0.43850061  1
  O  O366  1  0.30581788  0.58303312  0.68817969  1
  O  O367  1  0.30711016  0.58265140  0.93878621  1
  O  O368  1  0.31134745  0.91696743  0.18688599  1
  O  O369  1  0.30860749  0.91711073  0.43731289  1
  O  O370  1  0.30688215  0.91678472  0.68832640  1
  O  O371  1  0.30756936  0.91688047  0.93853419  1
  O  O372  1  0.80869467  0.25008650  0.18709859  1
  O  O373  1  0.80846994  0.24984369  0.43696001  1
  O  O374  1  0.80593098  0.24981168  0.68923787  1
  O  O375  1  0.80937525  0.24946298  0.93784815  1
  O  O376  1  0.80806574  0.58255324  0.18647148  1
  O  O377  1  0.80584432  0.58308577  0.43921519  1
  O  O378  1  0.80889218  0.58278822  0.68798301  1
  O  O379  1  0.80887055  0.58322399  0.93714129  1
  O  O380  1  0.80492631  0.91711187  0.18823142  1
  O  O381  1  0.80476265  0.91717993  0.43833400  1
  O  O382  1  0.80663906  0.91715366  0.68930529  1
  O  O383  1  0.80768699  0.91744323  0.93723640  1
  O  O384  1  0.23293986  0.25004788  0.03960936  1
  O  O385  1  0.23411772  0.25001155  0.28790942  1
  O  O386  1  0.23505831  0.24923073  0.53826952  1
  O  O387  1  0.23165590  0.25119154  0.78937904  1
  O  O388  1  0.23477245  0.58311540  0.04096846  1
  O  O389  1  0.23521937  0.58320553  0.28770707  1
  O  O390  1  0.23351341  0.58434654  0.54015234  1
  O  O391  1  0.23154082  0.58194856  0.78951984  1
  O  O392  1  0.23487931  0.91732076  0.04056008  1
  O  O393  1  0.23717335  0.91693710  0.28782591  1
  O  O394  1  0.23404910  0.91694475  0.53846198  1
  O  O395  1  0.23351518  0.91617159  0.78990359  1
  O  O396  1  0.73534357  0.24987564  0.03867968  1
  O  O397  1  0.73519451  0.25032572  0.28872917  1
  O  O398  1  0.73446161  0.24917081  0.53794939  1
  O  O399  1  0.73274916  0.25073390  0.79102873  1
  O  O400  1  0.73543148  0.58314294  0.03849015  1
  O  O401  1  0.73471709  0.58326900  0.28831828  1
  O  O402  1  0.73285709  0.58354433  0.54106330  1
  O  O403  1  0.73536004  0.58273888  0.78928625  1
  O  O404  1  0.73241288  0.91651416  0.03774493  1
  O  O405  1  0.73302328  0.91661175  0.29078137  1
  O  O406  1  0.73139021  0.91677023  0.54013151  1
  O  O407  1  0.73374314  0.91695390  0.79074473  1
  O  O408  1  0.26896935  0.08382913  0.21089057  1
  O  O409  1  0.26856248  0.08274403  0.46003251  1
  O  O410  1  0.26485528  0.08391782  0.71202398  1
  O  O411  1  0.26565879  0.08412137  0.95918344  1
  O  O412  1  0.26537084  0.41591064  0.20946500  1
  O  O413  1  0.26533115  0.41674342  0.46164780  1
  O  O414  1  0.26641358  0.41670144  0.70966450  1
  O  O415  1  0.26629885  0.41601832  0.96322574  1
  O  O416  1  0.26909103  0.75059034  0.21072911  1
  O  O417  1  0.26827585  0.75062463  0.46014491  1
  O  O418  1  0.26581922  0.74982349  0.71005380  1
  O  O419  1  0.26703405  0.74914602  0.96016761  1
  O  O420  1  0.76626631  0.08364164  0.21214358  1
  O  O421  1  0.76570160  0.08329332  0.46113852  1
  O  O422  1  0.76483653  0.08367534  0.71125781  1
  O  O423  1  0.76441214  0.08375549  0.96239857  1
  O  O424  1  0.76796970  0.41615550  0.20968279  1
  O  O425  1  0.76596378  0.41737910  0.46162516  1
  O  O426  1  0.76699414  0.41593068  0.71203122  1
  O  O427  1  0.76662903  0.41685599  0.96313232  1
  O  O428  1  0.76743199  0.75016437  0.20997086  1
  O  O429  1  0.76671245  0.74991071  0.46189630  1
  O  O430  1  0.76507448  0.74998371  0.71194923  1
  O  O431  1  0.76608397  0.74973289  0.96247309  1
  O  O432  1  0.01546915  0.08360574  0.16628428  1
  O  O433  1  0.01454243  0.08388386  0.41368808  1
  O  O434  1  0.01530621  0.08347265  0.66231608  1
  O  O435  1  0.01721855  0.08384673  0.91536557  1
  O  O436  1  0.01576440  0.41620237  0.16303252  1
  O  O437  1  0.01489073  0.41587930  0.41346753  1
  O  O438  1  0.01675576  0.41707725  0.66623385  1
  O  O439  1  0.01430481  0.41630974  0.91379110  1
  O  O440  1  0.01416934  0.74996509  0.16402771  1
  O  O441  1  0.01430300  0.74959750  0.41358641  1
  O  O442  1  0.01461260  0.74996100  0.66258812  1
  O  O443  1  0.01470804  0.75000666  0.91676723  1
  O  O444  1  0.51744930  0.08334922  0.16491815  1
  O  O445  1  0.51595337  0.08368133  0.41380790  1
  O  O446  1  0.51796533  0.08317655  0.66206543  1
  O  O447  1  0.51887851  0.08417481  0.91387039  1
  O  O448  1  0.51693462  0.41639918  0.16301445  1
  O  O449  1  0.51646369  0.41539809  0.41514336  1
  O  O450  1  0.51828074  0.41703740  0.66466537  1
  O  O451  1  0.51643072  0.41633025  0.91223156  1
  O  O452  1  0.51816014  0.75007597  0.16567007  1
  O  O453  1  0.51504462  0.75013137  0.41369559  1
  O  O454  1  0.51825600  0.74982373  0.66162742  1
  O  O455  1  0.51897202  0.74951105  0.91415791  1
  O  O456  1  0.48216725  0.25004048  0.08524576  1
  O  O457  1  0.48201795  0.24918445  0.33533516  1
  O  O458  1  0.48553847  0.25020804  0.58714258  1
  O  O459  1  0.48497524  0.25030381  0.83381267  1
  O  O460  1  0.48263772  0.58319752  0.08507734  1
  O  O461  1  0.48500541  0.58313489  0.33742773  1
  O  O462  1  0.48511626  0.58265680  0.58393812  1
  O  O463  1  0.48461970  0.58310209  0.83426201  1
  O  O464  1  0.48313731  0.91686941  0.08499997  1
  O  O465  1  0.48310776  0.91753491  0.33823752  1
  O  O466  1  0.48516700  0.91672081  0.58371985  1
  O  O467  1  0.48584206  0.91671241  0.83556475  1
  O  O468  1  0.98354374  0.25018868  0.08763823  1
  O  O469  1  0.98253401  0.24988987  0.33501097  1
  O  O470  1  0.98446447  0.25062291  0.58689550  1
  O  O471  1  0.98331997  0.24988292  0.83729762  1
  O  O472  1  0.98127277  0.58255963  0.08586177  1
  O  O473  1  0.98288050  0.58322928  0.33482923  1
  O  O474  1  0.98240067  0.58231122  0.58704705  1
  O  O475  1  0.98162012  0.58371714  0.83629828  1
  O  O476  1  0.98295400  0.91724348  0.08625927  1
  O  O477  1  0.98422073  0.91691665  0.33757095  1
  O  O478  1  0.98395248  0.91646775  0.58330159  1
  O  O479  1  0.98114168  0.91705631  0.83540187  1
  O  O480  1  0.08704799  0.31584281  0.07754959  1
  O  O481  1  0.08683046  0.31435738  0.32628315  1
  O  O482  1  0.08753717  0.31698961  0.57865617  1
  O  O483  1  0.08737866  0.31425213  0.82770001  1
  O  O484  1  0.08503676  0.64761374  0.07714808  1
  O  O485  1  0.08655081  0.64857570  0.32657916  1
  O  O486  1  0.08595346  0.64714481  0.57720829  1
  O  O487  1  0.08568822  0.64860415  0.82707635  1
  O  O488  1  0.08696502  0.98180834  0.07815318  1
  O  O489  1  0.08787390  0.98186908  0.32744863  1
  O  O490  1  0.08806516  0.98152730  0.57566637  1
  O  O491  1  0.08496606  0.98250321  0.82776439  1
  O  O492  1  0.58615004  0.31513315  0.07739934  1
  O  O493  1  0.58606164  0.31370938  0.32685616  1
  O  O494  1  0.58891127  0.31579998  0.57842942  1
  O  O495  1  0.58886968  0.31578401  0.82744483  1
  O  O496  1  0.58662693  0.64823070  0.07808833  1
  O  O497  1  0.58840412  0.64832379  0.32768116  1
  O  O498  1  0.58900662  0.64788664  0.57694366  1
  O  O499  1  0.58873722  0.64766261  0.82808094  1
  O  O500  1  0.58738874  0.98168881  0.07796993  1
  O  O501  1  0.58647554  0.98303330  0.32840683  1
  O  O502  1  0.58914318  0.98171772  0.57679580  1
  O  O503  1  0.58932369  0.98193159  0.82884043  1
  O  O504  1  0.41351554  0.01844619  0.17239740  1
  O  O505  1  0.41217713  0.01862516  0.42288720  1
  O  O506  1  0.41441828  0.01806475  0.67270600  1
  O  O507  1  0.41530990  0.01874791  0.92235350  1
  O  O508  1  0.41306412  0.35151178  0.17160100  1
  O  O509  1  0.41271022  0.35010903  0.42232562  1
  O  O510  1  0.41421592  0.35197840  0.67419875  1
  O  O511  1  0.41250905  0.35145210  0.92257430  1
  O  O512  1  0.41404988  0.68485227  0.17289378  1
  O  O513  1  0.41088667  0.68615907  0.42315479  1
  O  O514  1  0.41470321  0.68471784  0.67247973  1
  O  O515  1  0.41504686  0.68467728  0.92231089  1
  O  O516  1  0.91099986  0.01943340  0.17377716  1
  O  O517  1  0.91032536  0.01970607  0.42329135  1
  O  O518  1  0.91187388  0.01818364  0.67209426  1
  O  O519  1  0.91332001  0.01856777  0.92272671  1
  O  O520  1  0.91194946  0.35126515  0.17201997  1
  O  O521  1  0.91159824  0.35015541  0.42151119  1
  O  O522  1  0.91275142  0.35220275  0.67409124  1
  O  O523  1  0.91065094  0.35104372  0.92240347  1
  O  O524  1  0.91073903  0.68391393  0.17206436  1
  O  O525  1  0.91011010  0.68530986  0.42275495  1
  O  O526  1  0.91135365  0.68409577  0.67134281  1
  O  O527  1  0.91047199  0.68541178  0.92265226  1
  O  O528  1  0.16504494  0.01922041  0.20208059  1
  O  O529  1  0.16491902  0.01699571  0.45181788  1
  O  O530  1  0.16116505  0.01925178  0.70285667  1
  O  O531  1  0.16132191  0.01961659  0.95208740  1
  O  O532  1  0.16152804  0.35028491  0.20237789  1
  O  O533  1  0.16183530  0.35162458  0.45283419  1
  O  O534  1  0.16224298  0.35169757  0.70233511  1
  O  O535  1  0.16264364  0.35071422  0.95355941  1
  O  O536  1  0.16516407  0.68528521  0.20165628  1
  O  O537  1  0.16411132  0.68631228  0.45136883  1
  O  O538  1  0.16250105  0.68336409  0.70276101  1
  O  O539  1  0.16271378  0.68484338  0.95300697  1
  O  O540  1  0.66226655  0.01886895  0.20231642  1
  O  O541  1  0.66215275  0.01732710  0.45215293  1
  O  O542  1  0.66032397  0.02051067  0.70247082  1
  O  O543  1  0.66111694  0.01761725  0.95346080  1
  O  O544  1  0.66376843  0.35144679  0.20078772  1
  O  O545  1  0.66254478  0.35258834  0.45237333  1
  O  O546  1  0.66333827  0.35044222  0.70294274  1
  O  O547  1  0.66294262  0.35166084  0.95214520  1
  O  O548  1  0.66363172  0.68493814  0.20093360  1
  O  O549  1  0.66341613  0.68441855  0.45314899  1
  O  O550  1  0.66155894  0.68467536  0.70249997  1
  O  O551  1  0.66232975  0.68526967  0.95226490  1
  O  O552  1  0.33684428  0.31576766  0.04813690  1
  O  O553  1  0.33811833  0.31434991  0.29776145  1
  O  O554  1  0.33870892  0.31387750  0.54753202  1
  O  O555  1  0.33544011  0.31658646  0.79717901  1
  O  O556  1  0.33964458  0.64663443  0.04794305  1
  O  O557  1  0.33876583  0.64887080  0.29632183  1
  O  O558  1  0.33740273  0.64961593  0.54735917  1
  O  O559  1  0.33552554  0.64706064  0.79789718  1
  O  O560  1  0.33911771  0.98198260  0.04754958  1
  O  O561  1  0.34073824  0.98224085  0.29681430  1
  O  O562  1  0.33775385  0.98196255  0.54721986  1
  O  O563  1  0.33707029  0.98188558  0.79765612  1
  O  O564  1  0.83876914  0.31590849  0.04725108  1
  O  O565  1  0.83907055  0.31524754  0.29667062  1
  O  O566  1  0.83799512  0.31378510  0.54731055  1
  O  O567  1  0.83708020  0.31551884  0.79820527  1
  O  O568  1  0.83903009  0.64843908  0.04681344  1
  O  O569  1  0.83822937  0.64814231  0.29585764  1
  O  O570  1  0.83668689  0.64926884  0.54820344  1
  O  O571  1  0.83933800  0.64692359  0.79794117  1
  O  O572  1  0.83594004  0.98142988  0.04763357  1
  O  O573  1  0.83668168  0.98204948  0.29734105  1
  O  O574  1  0.83494015  0.98233358  0.54767466  1
  O  O575  1  0.83749259  0.98222112  0.79882079  1
  O  O576  1  0.41336226  0.14861545  0.17258461  1
  O  O577  1  0.41215881  0.14878752  0.42271832  1
  O  O578  1  0.41428901  0.14818604  0.67276661  1
  O  O579  1  0.41488479  0.14881174  0.92228820  1
  O  O580  1  0.41346264  0.48173564  0.17172266  1
  O  O581  1  0.41286996  0.48043492  0.42319322  1
  O  O582  1  0.41411114  0.48187296  0.67391989  1
  O  O583  1  0.41258149  0.48145835  0.92262708  1
  O  O584  1  0.41407225  0.81510177  0.17254861  1
  O  O585  1  0.41176113  0.81630818  0.42261412  1
  O  O586  1  0.41476404  0.81489033  0.67249628  1
  O  O587  1  0.41530280  0.81475534  0.92234482  1
  O  O588  1  0.91169039  0.14944675  0.17286261  1
  O  O589  1  0.91106542  0.14981925  0.42215743  1
  O  O590  1  0.91178255  0.14829673  0.67218861  1
  O  O591  1  0.91328615  0.14868528  0.92268421  1
  O  O592  1  0.91186824  0.48129017  0.17218183  1
  O  O593  1  0.91127820  0.48039670  0.42220953  1
  O  O594  1  0.91234382  0.48203502  0.67313674  1
  O  O595  1  0.91041924  0.48123373  0.92203351  1
  O  O596  1  0.91003802  0.81411658  0.17322364  1
  O  O597  1  0.91067784  0.81526306  0.42315331  1
  O  O598  1  0.91083358  0.81430370  0.67185626  1
  O  O599  1  0.91083275  0.81556897  0.92297326  1
  O  O600  1  0.08764937  0.18580126  0.07736707  1
  O  O601  1  0.08640471  0.18445874  0.32600261  1
  O  O602  1  0.08836719  0.18665812  0.57756888  1
  O  O603  1  0.08698792  0.18417255  0.82815781  1
  O  O604  1  0.08502262  0.51734878  0.07731024  1
  O  O605  1  0.08678011  0.51842061  0.32715637  1
  O  O606  1  0.08601598  0.51688359  0.57840204  1
  O  O607  1  0.08551833  0.51853054  0.82699784  1
  O  O608  1  0.08638142  0.85157059  0.07759468  1
  O  O609  1  0.08768176  0.85164282  0.32728719  1
  O  O610  1  0.08813881  0.85153471  0.57581896  1
  O  O611  1  0.08494022  0.85222678  0.82738750  1
  O  O612  1  0.58620069  0.18502796  0.07794872  1
  O  O613  1  0.58577152  0.18368140  0.32740056  1
  O  O614  1  0.58913306  0.18540692  0.57841644  1
  O  O615  1  0.58922713  0.18566563  0.82751829  1
  O  O616  1  0.58651913  0.51805254  0.07760943  1
  O  O617  1  0.58852561  0.51809500  0.32784632  1
  O  O618  1  0.58924136  0.51765881  0.57733659  1
  O  O619  1  0.58819015  0.51741486  0.82798263  1
  O  O620  1  0.58719519  0.85155127  0.07782448  1
  O  O621  1  0.58666481  0.85281177  0.32765990  1
  O  O622  1  0.58911186  0.85152634  0.57672939  1
  O  O623  1  0.58932237  0.85147870  0.82863575  1
  O  O624  1  0.33739447  0.18585593  0.04795442  1
  O  O625  1  0.33800197  0.18437013  0.29719838  1
  O  O626  1  0.33852799  0.18356699  0.54682335  1
  O  O627  1  0.33558492  0.18639468  0.79798813  1
  O  O628  1  0.33817507  0.51654572  0.04772646  1
  O  O629  1  0.33871132  0.51850424  0.29702457  1
  O  O630  1  0.33719159  0.51934039  0.54820623  1
  O  O631  1  0.33552572  0.51683210  0.79715575  1
  O  O632  1  0.33895381  0.85196728  0.04771518  1
  O  O633  1  0.34093315  0.85196723  0.29683802  1
  O  O634  1  0.33759936  0.85159644  0.54706247  1
  O  O635  1  0.33768689  0.85154233  0.79732593  1
  O  O636  1  0.83947708  0.18583806  0.04807065  1
  O  O637  1  0.83879572  0.18500676  0.29685918  1
  O  O638  1  0.83776197  0.18355567  0.54646970  1
  O  O639  1  0.83660310  0.18560515  0.79904200  1
  O  O640  1  0.83926894  0.51822814  0.04689292  1
  O  O641  1  0.83790608  0.51758132  0.29622724  1
  O  O642  1  0.83719930  0.51930858  0.54892145  1
  O  O643  1  0.83872906  0.51674711  0.79733792  1
  O  O644  1  0.83600471  0.85126655  0.04687760  1
  O  O645  1  0.83693159  0.85177409  0.29707199  1
  O  O646  1  0.83534381  0.85206632  0.54759175  1
  O  O647  1  0.83771787  0.85217764  0.79860989  1
  O  O648  1  0.16503569  0.14932935  0.20262572  1
  O  O649  1  0.16447613  0.14710836  0.45152969  1
  O  O650  1  0.16152392  0.14967917  0.70349470  1
  O  O651  1  0.16174711  0.14978002  0.95297835  1
  O  O652  1  0.16110279  0.48039836  0.20148890  1
  O  O653  1  0.16176989  0.48197613  0.45266056  1
  O  O654  1  0.16211402  0.48170953  0.70232606  1
  O  O655  1  0.16264194  0.48083774  0.95284623  1
  O  O656  1  0.16508367  0.81540048  0.20185065  1
  O  O657  1  0.16483135  0.81655339  0.45172444  1
  O  O658  1  0.16150695  0.81367725  0.70254948  1
  O  O659  1  0.16353231  0.81508562  0.95258603  1
  O  O660  1  0.66260309  0.14880309  0.20182589  1
  O  O661  1  0.66161507  0.14735619  0.45127673  1
  O  O662  1  0.66199454  0.15063795  0.70301186  1
  O  O663  1  0.66042960  0.14775968  0.95290889  1
  O  O664  1  0.66398050  0.48133651  0.20078508  1
  O  O665  1  0.66260196  0.48295125  0.45352007  1
  O  O666  1  0.66300658  0.48033583  0.70237538  1
  O  O667  1  0.66282625  0.48164606  0.95206111  1
  O  O668  1  0.66320659  0.81483257  0.20149472  1
  O  O669  1  0.66296045  0.81470023  0.45302749  1
  O  O670  1  0.66127335  0.81470339  0.70271575  1
  O  O671  1  0.66247312  0.81540864  0.95286770  1
