# generated using pymatgen
data_Na2MnFe(PO4)2
_symmetry_space_group_name_H-M   'P 1'
_cell_length_a   21.08930658
_cell_length_b   18.94257389
_cell_length_c   20.04757161
_cell_angle_alpha   90.00041645
_cell_angle_beta   90.00073257
_cell_angle_gamma   89.99882666
_symmetry_Int_Tables_number   1
_chemical_formula_structural   Na2MnFe(PO4)2
_chemical_formula_sum   'Na96 Mn48 Fe48 P96 O384'
_cell_volume   8008.71914346
_cell_formula_units_Z   48
loop_
 _symmetry_equiv_pos_site_id
 _symmetry_equiv_pos_as_xyz
  1  'x, y, z'
loop_
 _atom_site_type_symbol
 _atom_site_label
 _atom_site_symmetry_multiplicity
 _atom_site_fract_x
 _atom_site_fract_y
 _atom_site_fract_z
 _atom_site_occupancy
  Na  Na0  1  0.00042970  -0.00064826  0.00069074  1
  Na  Na1  1  0.00069115  -0.00011642  0.24996907  1
  Na  Na2  1  -0.00047242  -0.00062991  0.49971064  1
  Na  Na3  1  0.00059142  -0.00085462  0.74980723  1
  Na  Na4  1  -0.00174480  0.33298711  -0.00098745  1
  Na  Na5  1  -0.00389304  0.33236729  0.24939895  1
  Na  Na6  1  -0.00072536  0.33386997  0.50052167  1
  Na  Na7  1  -0.00033015  0.33303829  0.75028546  1
  Na  Na8  1  0.00222639  0.66811534  0.00088212  1
  Na  Na9  1  0.00155133  0.66698331  0.25075939  1
  Na  Na10  1  0.00093173  0.66696567  0.49993939  1
  Na  Na11  1  0.00108697  0.66747277  0.74905072  1
  Na  Na12  1  0.49635440  -0.00097145  0.00017999  1
  Na  Na13  1  0.49942002  -0.00004198  0.24876170  1
  Na  Na14  1  0.49938631  0.00019445  0.50027220  1
  Na  Na15  1  0.49725185  -0.00031085  0.75011758  1
  Na  Na16  1  0.50040056  0.33378904  0.00031028  1
  Na  Na17  1  0.49926127  0.33213757  0.25025915  1
  Na  Na18  1  0.49918273  0.33249537  0.50019828  1
  Na  Na19  1  0.49854481  0.33231620  0.74985881  1
  Na  Na20  1  0.49850587  0.66655782  0.00044782  1
  Na  Na21  1  0.50048270  0.66720050  0.24954594  1
  Na  Na22  1  0.49904092  0.66688475  0.49978661  1
  Na  Na23  1  0.49851687  0.66641030  0.75016944  1
  Na  Na24  1  0.24981263  -0.00096565  0.12477932  1
  Na  Na25  1  0.25044103  -0.00068547  0.37405651  1
  Na  Na26  1  0.25099138  -0.00050678  0.62493141  1
  Na  Na27  1  0.25207469  0.00044739  0.87494522  1
  Na  Na28  1  0.24958396  0.33277298  0.12480122  1
  Na  Na29  1  0.25024219  0.33370495  0.37536562  1
  Na  Na30  1  0.24925996  0.33263424  0.62503356  1
  Na  Na31  1  0.24892043  0.33224523  0.87446896  1
  Na  Na32  1  0.25106921  0.66687091  0.12384562  1
  Na  Na33  1  0.24929320  0.66621627  0.37463169  1
  Na  Na34  1  0.25125609  0.66690862  0.62660991  1
  Na  Na35  1  0.25258531  0.66763958  0.87544705  1
  Na  Na36  1  0.75171026  0.00061903  0.12452466  1
  Na  Na37  1  0.74934124  -0.00022657  0.37601688  1
  Na  Na38  1  0.75085610  0.00027149  0.62560430  1
  Na  Na39  1  0.75194623  0.00010585  0.87451724  1
  Na  Na40  1  0.75315056  0.33374482  0.12436713  1
  Na  Na41  1  0.75329925  0.33393127  0.37439175  1
  Na  Na42  1  0.75196217  0.33383948  0.62563176  1
  Na  Na43  1  0.75187724  0.33373784  0.87514131  1
  Na  Na44  1  0.74676574  0.66643430  0.12424671  1
  Na  Na45  1  0.74969039  0.66741610  0.37495123  1
  Na  Na46  1  0.74957265  0.66738160  0.62625339  1
  Na  Na47  1  0.74678542  0.66641479  0.87551073  1
  Na  Na48  1  -0.00208963  0.16728525  -0.00044566  1
  Na  Na49  1  -0.00328702  0.16682749  0.24977339  1
  Na  Na50  1  -0.00242678  0.16749602  0.50047343  1
  Na  Na51  1  0.00001439  0.16644214  0.74968196  1
  Na  Na52  1  -0.00138088  0.50066377  0.00014990  1
  Na  Na53  1  0.00022241  0.49964500  0.24987991  1
  Na  Na54  1  -0.00003258  0.50000441  0.49902809  1
  Na  Na55  1  0.00079030  0.49939841  0.75003105  1
  Na  Na56  1  0.00235257  0.83407886  0.00040706  1
  Na  Na57  1  0.00259673  0.83314540  0.25087703  1
  Na  Na58  1  0.00015307  0.83424233  0.50024641  1
  Na  Na59  1  0.00121475  0.83393493  0.74966963  1
  Na  Na60  1  0.49638991  0.16782014  -0.00070438  1
  Na  Na61  1  0.50039269  0.16536186  0.24926594  1
  Na  Na62  1  0.49916191  0.16617713  0.50011759  1
  Na  Na63  1  0.49836250  0.16628968  0.75020428  1
  Na  Na64  1  0.49879535  0.50121644  0.00104601  1
  Na  Na65  1  0.50105174  0.49981180  0.25032173  1
  Na  Na66  1  0.49936414  0.50087603  0.50044147  1
  Na  Na67  1  0.49999898  0.49995920  0.74985759  1
  Na  Na68  1  0.49906353  0.83290484  0.00040210  1
  Na  Na69  1  0.49955673  0.83341964  0.24945562  1
  Na  Na70  1  0.49739802  0.83471245  0.49937004  1
  Na  Na71  1  0.49734974  0.83392393  0.75032724  1
  Na  Na72  1  0.25107155  0.16652751  0.12506847  1
  Na  Na73  1  0.25113393  0.16665184  0.37455555  1
  Na  Na74  1  0.25255812  0.16577976  0.62542255  1
  Na  Na75  1  0.25155934  0.16685977  0.87519303  1
  Na  Na76  1  0.25019879  0.50064122  0.12403607  1
  Na  Na77  1  0.24798950  0.50110967  0.37487730  1
  Na  Na78  1  0.24905080  0.50004884  0.62555378  1
  Na  Na79  1  0.25098027  0.49999662  0.87493716  1
  Na  Na80  1  0.25003106  0.83355980  0.12420910  1
  Na  Na81  1  0.25032031  0.83379876  0.37485389  1
  Na  Na82  1  0.25164601  0.83327812  0.62522023  1
  Na  Na83  1  0.24993813  0.83394547  0.87510840  1
  Na  Na84  1  0.75257826  0.16572367  0.12517513  1
  Na  Na85  1  0.75125340  0.16527089  0.37485843  1
  Na  Na86  1  0.74935358  0.16643868  0.62448288  1
  Na  Na87  1  0.75176965  0.16584118  0.87459858  1
  Na  Na88  1  0.75132537  0.49934559  0.12470616  1
  Na  Na89  1  0.75037918  0.50045299  0.37533974  1
  Na  Na90  1  0.75086365  0.49962908  0.62595901  1
  Na  Na91  1  0.75012822  0.49935504  0.87512937  1
  Na  Na92  1  0.74741390  0.83444217  0.12352614  1
  Na  Na93  1  0.75039117  0.83333098  0.37522356  1
  Na  Na94  1  0.75183343  0.83281972  0.62703509  1
  Na  Na95  1  0.74971185  0.83320681  0.87512184  1
  Mn  Mn96  1  0.85784092  0.75000223  0.00231116  1
  Mn  Mn97  1  0.10856930  0.74953439  0.62258472  1
  Mn  Mn98  1  0.10877576  0.08357037  0.62225808  1
  Mn  Mn99  1  0.60873394  0.41593507  0.37280242  1
  Mn  Mn100  1  0.64257571  0.25011926  0.49808895  1
  Mn  Mn101  1  0.10717629  0.41711843  0.87291536  1
  Mn  Mn102  1  0.89203555  0.58462742  0.87736559  1
  Mn  Mn103  1  0.64344150  0.24989677  0.24752365  1
  Mn  Mn104  1  0.35768944  0.41738007  0.25249434  1
  Mn  Mn105  1  0.35764907  0.74981072  0.50209848  1
  Mn  Mn106  1  0.35778011  0.08284430  0.25235897  1
  Mn  Mn107  1  0.14315958  0.58319217  0.99732335  1
  Mn  Mn108  1  0.39246431  0.24937008  0.37721773  1
  Mn  Mn109  1  0.89234323  0.58435961  0.12745431  1
  Mn  Mn110  1  0.85739194  0.75042502  0.25135239  1
  Mn  Mn111  1  0.89199039  0.91657111  0.37722247  1
  Mn  Mn112  1  0.10701662  0.41584038  0.37254700  1
  Mn  Mn113  1  0.60755247  0.08330245  0.12218062  1
  Mn  Mn114  1  0.89298076  0.91610814  0.12754687  1
  Mn  Mn115  1  0.64150784  0.91676969  0.74834413  1
  Mn  Mn116  1  0.14119934  0.25007746  0.24735362  1
  Mn  Mn117  1  0.89245383  0.24975129  0.62762700  1
  Mn  Mn118  1  0.10821779  0.08302628  0.87294150  1
  Mn  Mn119  1  0.10692448  0.41634300  0.12256132  1
  Mn  Mn120  1  0.89243262  0.58400181  0.62752691  1
  Mn  Mn121  1  0.35826635  0.41626209  0.00230966  1
  Mn  Mn122  1  0.35775017  0.41641208  0.75258045  1
  Mn  Mn123  1  0.14293048  0.58330071  0.74797390  1
  Mn  Mn124  1  0.10846760  0.75013172  0.37284114  1
  Mn  Mn125  1  0.60656872  0.08334941  0.87323011  1
  Mn  Mn126  1  0.64166684  0.91763159  0.99739822  1
  Mn  Mn127  1  0.64273749  0.24952562  0.99791246  1
  Mn  Mn128  1  0.39198731  0.58328074  0.37699541  1
  Mn  Mn129  1  0.85810706  0.08349472  0.75216941  1
  Mn  Mn130  1  0.60809683  0.41637804  0.12319487  1
  Mn  Mn131  1  0.89203962  0.58362851  0.37713679  1
  Mn  Mn132  1  0.60761580  0.41595725  0.62262206  1
  Mn  Mn133  1  0.64192944  0.25004470  0.74846483  1
  Mn  Mn134  1  0.60798018  0.75110176  0.37280508  1
  Mn  Mn135  1  0.64199049  0.91641805  0.49875293  1
  Mn  Mn136  1  0.35737777  0.41656189  0.50238039  1
  Mn  Mn137  1  0.85779818  0.74938873  0.75332942  1
  Mn  Mn138  1  0.64135553  0.58261041  0.99766360  1
  Mn  Mn139  1  0.10737535  0.08378875  0.12260343  1
  Mn  Mn140  1  0.10752339  0.08412977  0.37332671  1
  Mn  Mn141  1  0.60656210  0.75102078  0.62310358  1
  Mn  Mn142  1  0.14244937  0.24929120  0.49739391  1
  Mn  Mn143  1  0.64230776  0.58346912  0.49846185  1
  Fe  Fe144  1  0.10849668  0.75018131  0.87355091  1
  Fe  Fe145  1  0.64249530  0.58384816  0.24866259  1
  Fe  Fe146  1  0.89176352  0.24958329  0.37725537  1
  Fe  Fe147  1  0.60750892  0.41666175  0.87348588  1
  Fe  Fe148  1  0.14356308  0.91622244  0.24829471  1
  Fe  Fe149  1  0.10893323  0.74988109  0.12329394  1
  Fe  Fe150  1  0.39205946  0.25059761  0.12678766  1
  Fe  Fe151  1  0.64197670  0.91669488  0.24824064  1
  Fe  Fe152  1  0.35746229  0.75042673  0.75238749  1
  Fe  Fe153  1  0.85694002  0.08248010  0.25234809  1
  Fe  Fe154  1  0.89342673  0.91651158  0.62666992  1
  Fe  Fe155  1  0.39286110  0.58327526  0.12767440  1
  Fe  Fe156  1  0.39232531  0.25009328  0.62691729  1
  Fe  Fe157  1  0.14394104  0.91713290  0.99805579  1
  Fe  Fe158  1  0.14301188  0.24932632  0.74840770  1
  Fe  Fe159  1  0.85824867  0.08299358  0.00149863  1
  Fe  Fe160  1  0.14276825  0.58390306  0.24770207  1
  Fe  Fe161  1  0.85678581  0.08230882  0.50225895  1
  Fe  Fe162  1  0.14286100  0.58352606  0.49861768  1
  Fe  Fe163  1  0.85741848  0.41716904  0.75201674  1
  Fe  Fe164  1  0.89393154  0.91641791  0.87667017  1
  Fe  Fe165  1  0.14363617  0.91672889  0.49857906  1
  Fe  Fe166  1  0.14394154  0.91726943  0.74829739  1
  Fe  Fe167  1  0.60749401  0.08285648  0.37350527  1
  Fe  Fe168  1  0.39219797  0.91643813  0.12718680  1
  Fe  Fe169  1  0.89246144  0.24975906  0.12627669  1
  Fe  Fe170  1  0.39169469  0.91628987  0.87714610  1
  Fe  Fe171  1  0.60597685  0.08300054  0.62389244  1
  Fe  Fe172  1  0.85791187  0.75022944  0.50201222  1
  Fe  Fe173  1  0.85774157  0.41724753  0.50250934  1
  Fe  Fe174  1  0.35672559  0.08340437  0.00172201  1
  Fe  Fe175  1  0.35807876  0.08321211  0.50147966  1
  Fe  Fe176  1  0.60553550  0.74998422  0.87376759  1
  Fe  Fe177  1  0.39269872  0.91700502  0.37617211  1
  Fe  Fe178  1  0.39191422  0.58307630  0.62721112  1
  Fe  Fe179  1  0.85727028  0.41731451  0.25179175  1
  Fe  Fe180  1  0.35737077  0.08332285  0.75166854  1
  Fe  Fe181  1  0.64174089  0.58306931  0.74872281  1
  Fe  Fe182  1  0.10712798  0.41668483  0.62341856  1
  Fe  Fe183  1  0.60588080  0.75030626  0.12362969  1
  Fe  Fe184  1  0.35703277  0.74970371  0.25110318  1
  Fe  Fe185  1  0.39203733  0.25079331  0.87714710  1
  Fe  Fe186  1  0.14242954  0.24946676  0.99816665  1
  Fe  Fe187  1  0.39342677  0.58283334  0.87649420  1
  Fe  Fe188  1  0.85720341  0.41664552  0.00144198  1
  Fe  Fe189  1  0.89296721  0.24911779  0.87682845  1
  Fe  Fe190  1  0.35739239  0.75056862  0.00210335  1
  Fe  Fe191  1  0.39167677  0.91690140  0.62694706  1
  P  P192  1  0.05186400  0.24991060  0.10895126  1
  P  P193  1  0.05104078  0.24976832  0.35980294  1
  P  P194  1  0.05489967  0.25059753  0.61114975  1
  P  P195  1  0.05401120  0.24958596  0.86049823  1
  P  P196  1  0.05503018  0.58403269  0.11094520  1
  P  P197  1  0.05513107  0.58327260  0.36031721  1
  P  P198  1  0.05424177  0.58235267  0.60942415  1
  P  P199  1  0.05343217  0.58456885  0.85992184  1
  P  P200  1  0.05635033  0.91598679  0.11075584  1
  P  P201  1  0.05558108  0.91715542  0.36073169  1
  P  P202  1  0.05509907  0.91675497  0.61042811  1
  P  P203  1  0.05544205  0.91620135  0.86063002  1
  P  P204  1  0.55213530  0.24959847  0.10987539  1
  P  P205  1  0.55388673  0.24840123  0.35996316  1
  P  P206  1  0.55196255  0.24865586  0.61047471  1
  P  P207  1  0.55161387  0.25041034  0.86044893  1
  P  P208  1  0.55341596  0.58414010  0.11165157  1
  P  P209  1  0.55410591  0.58370084  0.35957680  1
  P  P210  1  0.55263834  0.58367580  0.61136737  1
  P  P211  1  0.55258774  0.58336352  0.86003422  1
  P  P212  1  0.55278653  0.91622417  0.11094120  1
  P  P213  1  0.55264897  0.91778753  0.35944581  1
  P  P214  1  0.55104025  0.91747388  0.61056135  1
  P  P215  1  0.55090115  0.91635901  0.86049764  1
  P  P216  1  0.44452657  0.08341374  0.13826614  1
  P  P217  1  0.44716434  0.08202940  0.39017957  1
  P  P218  1  0.44495717  0.08331985  0.63933669  1
  P  P219  1  0.44359648  0.08336658  0.88933581  1
  P  P220  1  0.44660342  0.41662520  0.14035533  1
  P  P221  1  0.44723831  0.41674290  0.39037543  1
  P  P222  1  0.44626089  0.41642538  0.63998406  1
  P  P223  1  0.44795146  0.41678469  0.88996206  1
  P  P224  1  0.44501961  0.75014019  0.13925930  1
  P  P225  1  0.44535265  0.75089294  0.38824662  1
  P  P226  1  0.44490359  0.75018175  0.64053849  1
  P  P227  1  0.44511780  0.74988333  0.88948925  1
  P  P228  1  0.94474830  0.08348885  0.13950810  1
  P  P229  1  0.94451010  0.08344868  0.38977251  1
  P  P230  1  0.94608913  0.08208367  0.63889732  1
  P  P231  1  0.94660892  0.08262279  0.89015244  1
  P  P232  1  0.94427045  0.41633102  0.13904195  1
  P  P233  1  0.94414150  0.41613294  0.38937090  1
  P  P234  1  0.94606731  0.41701547  0.63984302  1
  P  P235  1  0.94445583  0.41625609  0.88917246  1
  P  P236  1  0.94909072  0.75050505  0.14047351  1
  P  P237  1  0.94632428  0.75024366  0.39072097  1
  P  P238  1  0.94591264  0.75109712  0.63914494  1
  P  P239  1  0.94876922  0.75122229  0.89029025  1
  P  P240  1  0.19651662  0.08270529  0.23492406  1
  P  P241  1  0.19871120  0.08255449  0.48476619  1
  P  P242  1  0.19808953  0.08314332  0.73541484  1
  P  P243  1  0.19779806  0.08342471  0.98526564  1
  P  P244  1  0.19627518  0.41738320  0.23456320  1
  P  P245  1  0.19518116  0.41729950  0.48617081  1
  P  P246  1  0.19581624  0.41563795  0.73474524  1
  P  P247  1  0.19673885  0.41569221  0.98479906  1
  P  P248  1  0.19743550  0.75010716  0.23431462  1
  P  P249  1  0.19692112  0.75003652  0.48540307  1
  P  P250  1  0.19715270  0.75107664  0.73666776  1
  P  P251  1  0.19678890  0.75074976  0.98552397  1
  P  P252  1  0.69645993  0.08226722  0.23596454  1
  P  P253  1  0.69561353  0.08301634  0.48613902  1
  P  P254  1  0.69554848  0.08329413  0.73447419  1
  P  P255  1  0.69831923  0.08342429  0.98459006  1
  P  P256  1  0.69837819  0.41705023  0.23499719  1
  P  P257  1  0.69849564  0.41640980  0.48536158  1
  P  P258  1  0.69617029  0.41709186  0.73644499  1
  P  P259  1  0.69721950  0.41599376  0.98452967  1
  P  P260  1  0.69541991  0.75078938  0.23406807  1
  P  P261  1  0.69791131  0.75060450  0.48579229  1
  P  P262  1  0.69426784  0.74950871  0.73687772  1
  P  P263  1  0.69382138  0.75042374  0.98535690  1
  P  P264  1  0.30372880  0.24959026  0.01433592  1
  P  P265  1  0.30389615  0.25031960  0.26416327  1
  P  P266  1  0.30415784  0.24912127  0.51550963  1
  P  P267  1  0.30405395  0.24933959  0.76435575  1
  P  P268  1  0.30626689  0.58402137  0.01405533  1
  P  P269  1  0.30321489  0.58434860  0.26357496  1
  P  P270  1  0.30251968  0.58329720  0.51582412  1
  P  P271  1  0.30541259  0.58381261  0.76492422  1
  P  P272  1  0.30452224  0.91657157  0.01406424  1
  P  P273  1  0.30429907  0.91532587  0.26395143  1
  P  P274  1  0.30435993  0.91749949  0.51403334  1
  P  P275  1  0.30452775  0.91680232  0.76441349  1
  P  P276  1  0.80564471  0.24948194  0.01387097  1
  P  P277  1  0.80578675  0.24939543  0.26396446  1
  P  P278  1  0.80483775  0.24951437  0.51401863  1
  P  P279  1  0.80429300  0.25055762  0.76558941  1
  P  P280  1  0.80307169  0.58312496  0.01492454  1
  P  P281  1  0.80203113  0.58378363  0.26461132  1
  P  P282  1  0.80354007  0.58394399  0.51551476  1
  P  P283  1  0.80180791  0.58304268  0.76551371  1
  P  P284  1  0.80498508  0.91700500  0.01361205  1
  P  P285  1  0.80183241  0.91691155  0.26474543  1
  P  P286  1  0.80400479  0.91653676  0.51611777  1
  P  P287  1  0.80526391  0.91652988  0.76501779  1
  O  O288  1  0.05547792  0.24974612  0.18568593  1
  O  O289  1  0.05572575  0.24978058  0.43647975  1
  O  O290  1  0.05934559  0.24935317  0.68789704  1
  O  O291  1  0.05900343  0.24939751  0.93718652  1
  O  O292  1  0.05907206  0.58346779  0.18772298  1
  O  O293  1  0.05937972  0.58355334  0.43704600  1
  O  O294  1  0.05739705  0.58330021  0.68621804  1
  O  O295  1  0.05672837  0.58388479  0.93668646  1
  O  O296  1  0.06046907  0.91660978  0.18753706  1
  O  O297  1  0.06015550  0.91713335  0.43748160  1
  O  O298  1  0.06025557  0.91697730  0.68712546  1
  O  O299  1  0.06049799  0.91726183  0.93734368  1
  O  O300  1  0.55688188  0.24912332  0.18651532  1
  O  O301  1  0.55690737  0.24929065  0.43674725  1
  O  O302  1  0.55573350  0.24938870  0.68713439  1
  O  O303  1  0.55583157  0.24986489  0.93707794  1
  O  O304  1  0.55878928  0.58327139  0.18825215  1
  O  O305  1  0.55707013  0.58386434  0.43643041  1
  O  O306  1  0.55775551  0.58337777  0.68800541  1
  O  O307  1  0.55562597  0.58327334  0.93681187  1
  O  O308  1  0.55787662  0.91711466  0.18754372  1
  O  O309  1  0.55624121  0.91697924  0.43615316  1
  O  O310  1  0.55503518  0.91679774  0.68717023  1
  O  O311  1  0.55489905  0.91706465  0.93716873  1
  O  O312  1  0.44029545  0.08332950  0.06151278  1
  O  O313  1  0.44343160  0.08263889  0.31345030  1
  O  O314  1  0.44120502  0.08315268  0.56260519  1
  O  O315  1  0.44022233  0.08328629  0.81248477  1
  O  O316  1  0.44380859  0.41678185  0.06357173  1
  O  O317  1  0.44390245  0.41684423  0.31361290  1
  O  O318  1  0.44335154  0.41666788  0.56324974  1
  O  O319  1  0.44418012  0.41643108  0.81331819  1
  O  O320  1  0.44094956  0.75027113  0.06251420  1
  O  O321  1  0.44140668  0.74993652  0.31156369  1
  O  O322  1  0.44256483  0.75015048  0.56367934  1
  O  O323  1  0.44090104  0.75038700  0.81277716  1
  O  O324  1  0.94127958  0.08249468  0.06272243  1
  O  O325  1  0.94066885  0.08206064  0.31295788  1
  O  O326  1  0.94154429  0.08265917  0.56220696  1
  O  O327  1  0.94405625  0.08272241  0.81335982  1
  O  O328  1  0.94060520  0.41743351  0.06223645  1
  O  O329  1  0.94003090  0.41743317  0.31253474  1
  O  O330  1  0.94124940  0.41715470  0.56310348  1
  O  O331  1  0.94080070  0.41717924  0.81234991  1
  O  O332  1  0.94450356  0.75075619  0.06384667  1
  O  O333  1  0.94294230  0.75027076  0.31397162  1
  O  O334  1  0.94161833  0.75035684  0.56245660  1
  O  O335  1  0.94464078  0.75038268  0.81359595  1
  O  O336  1  0.19407107  0.08351921  0.06188161  1
  O  O337  1  0.19345980  0.08366901  0.31166944  1
  O  O338  1  0.19514339  0.08315548  0.56147045  1
  O  O339  1  0.19448914  0.08333744  0.81205061  1
  O  O340  1  0.19332981  0.41639038  0.06150504  1
  O  O341  1  0.19313731  0.41650222  0.31137674  1
  O  O342  1  0.19133085  0.41644116  0.56287904  1
  O  O343  1  0.19277401  0.41646996  0.81153253  1
  O  O344  1  0.19235956  0.74989930  0.06217567  1
  O  O345  1  0.19414495  0.75006749  0.31105328  1
  O  O346  1  0.19470013  0.75018746  0.56222573  1
  O  O347  1  0.19258027  0.75031249  0.81332656  1
  O  O348  1  0.69399317  0.08329112  0.06129991  1
  O  O349  1  0.69169371  0.08264745  0.31262917  1
  O  O350  1  0.69012028  0.08300467  0.56275259  1
  O  O351  1  0.69207284  0.08304290  0.81124259  1
  O  O352  1  0.69328451  0.41596872  0.06123697  1
  O  O353  1  0.69485042  0.41633121  0.31170330  1
  O  O354  1  0.69413327  0.41597515  0.56209592  1
  O  O355  1  0.69091322  0.41629090  0.81310739  1
  O  O356  1  0.68904042  0.75063583  0.06208068  1
  O  O357  1  0.69326711  0.75092723  0.31100060  1
  O  O358  1  0.69348865  0.75099267  0.56245875  1
  O  O359  1  0.68913348  0.75048368  0.81357642  1
  O  O360  1  0.30837255  0.25038079  0.18740128  1
  O  O361  1  0.30713120  0.25007773  0.43868906  1
  O  O362  1  0.30881889  0.25025771  0.68770384  1
  O  O363  1  0.30857271  0.25094577  0.93759962  1
  O  O364  1  0.30836132  0.58342941  0.18692020  1
  O  O365  1  0.30619602  0.58317797  0.43905665  1
  O  O366  1  0.30904650  0.58285102  0.68814022  1
  O  O367  1  0.31057731  0.58296979  0.93727178  1
  O  O368  1  0.30870112  0.91627000  0.18721901  1
  O  O369  1  0.30871964  0.91701101  0.43734671  1
  O  O370  1  0.30854542  0.91652260  0.68765971  1
  O  O371  1  0.30865093  0.91618923  0.93730006  1
  O  O372  1  0.80907966  0.24937618  0.18713052  1
  O  O373  1  0.80791219  0.24931679  0.43721470  1
  O  O374  1  0.80714089  0.24966377  0.68877374  1
  O  O375  1  0.80917475  0.24921118  0.93709265  1
  O  O376  1  0.80582034  0.58438414  0.18792895  1
  O  O377  1  0.80618712  0.58413647  0.43873925  1
  O  O378  1  0.80605698  0.58402825  0.68887904  1
  O  O379  1  0.80622430  0.58431202  0.93819603  1
  O  O380  1  0.80594060  0.91638265  0.18807954  1
  O  O381  1  0.80644703  0.91652512  0.43929956  1
  O  O382  1  0.80974795  0.91645270  0.68834148  1
  O  O383  1  0.80960666  0.91596292  0.93693759  1
  O  O384  1  0.23329517  0.24961974  0.03787138  1
  O  O385  1  0.23390655  0.25008970  0.28835000  1
  O  O386  1  0.23442203  0.24924134  0.54043897  1
  O  O387  1  0.23360717  0.24964885  0.78789090  1
  O  O388  1  0.23605861  0.58351948  0.03760282  1
  O  O389  1  0.23290126  0.58421840  0.28719629  1
  O  O390  1  0.23251813  0.58368029  0.54040022  1
  O  O391  1  0.23543481  0.58338310  0.78931744  1
  O  O392  1  0.23413249  0.91644579  0.03776869  1
  O  O393  1  0.23395408  0.91609476  0.28761831  1
  O  O394  1  0.23412145  0.91644057  0.53821732  1
  O  O395  1  0.23427858  0.91715870  0.78855486  1
  O  O396  1  0.73579121  0.24969809  0.03888122  1
  O  O397  1  0.73591999  0.24939244  0.28883778  1
  O  O398  1  0.73515675  0.24987591  0.53942970  1
  O  O399  1  0.73458757  0.24977129  0.79068323  1
  O  O400  1  0.73329039  0.58283379  0.03977904  1
  O  O401  1  0.73204404  0.58413613  0.28936727  1
  O  O402  1  0.73402870  0.58355797  0.54135022  1
  O  O403  1  0.73173595  0.58305274  0.78992590  1
  O  O404  1  0.73483967  0.91720493  0.03749360  1
  O  O405  1  0.73186610  0.91640884  0.28946553  1
  O  O406  1  0.73436972  0.91660926  0.54169038  1
  O  O407  1  0.73502174  0.91673856  0.78868922  1
  O  O408  1  0.26619098  0.08261343  0.20982338  1
  O  O409  1  0.26860505  0.08314742  0.45981016  1
  O  O410  1  0.26814784  0.08282161  0.71080248  1
  O  O411  1  0.26783479  0.08340060  0.96061676  1
  O  O412  1  0.26586560  0.41709759  0.20923886  1
  O  O413  1  0.26505208  0.41698228  0.46140558  1
  O  O414  1  0.26563740  0.41624665  0.71001251  1
  O  O415  1  0.26648975  0.41593027  0.95979673  1
  O  O416  1  0.26738866  0.75018656  0.20937725  1
  O  O417  1  0.26632556  0.74994405  0.45944027  1
  O  O418  1  0.26746364  0.75059205  0.71288488  1
  O  O419  1  0.26727148  0.75073026  0.96210831  1
  O  O420  1  0.76682089  0.08295002  0.21230138  1
  O  O421  1  0.76617032  0.08234456  0.46315216  1
  O  O422  1  0.76549998  0.08355840  0.71020051  1
  O  O423  1  0.76843670  0.08313954  0.96054043  1
  O  O424  1  0.76843803  0.41668461  0.21038718  1
  O  O425  1  0.76860351  0.41689261  0.46126547  1
  O  O426  1  0.76662999  0.41683946  0.71301452  1
  O  O427  1  0.76743983  0.41632429  0.96066189  1
  O  O428  1  0.76491561  0.75072678  0.20814791  1
  O  O429  1  0.76795617  0.75062720  0.46143882  1
  O  O430  1  0.76453929  0.74997934  0.71357515  1
  O  O431  1  0.76408065  0.75011343  0.96186918  1
  O  O432  1  0.01472305  0.08301497  0.16395571  1
  O  O433  1  0.01447320  0.08331499  0.41428502  1
  O  O434  1  0.01609675  0.08256532  0.66309438  1
  O  O435  1  0.01626281  0.08297298  0.91557889  1
  O  O436  1  0.01421054  0.41630008  0.16356418  1
  O  O437  1  0.01421069  0.41658136  0.41337371  1
  O  O438  1  0.01642449  0.41645462  0.66334857  1
  O  O439  1  0.01444240  0.41703308  0.91362121  1
  O  O440  1  0.01920074  0.75024863  0.16458612  1
  O  O441  1  0.01621645  0.75068511  0.41525844  1
  O  O442  1  0.01604003  0.75050745  0.66312358  1
  O  O443  1  0.01883922  0.75110924  0.91469573  1
  O  O444  1  0.51450715  0.08299855  0.16255557  1
  O  O445  1  0.51714937  0.08286988  0.41475174  1
  O  O446  1  0.51507528  0.08297760  0.66394386  1
  O  O447  1  0.51347658  0.08334172  0.91421048  1
  O  O448  1  0.51621980  0.41618083  0.16577557  1
  O  O449  1  0.51687872  0.41677453  0.41558542  1
  O  O450  1  0.51587391  0.41608623  0.66541237  1
  O  O451  1  0.51790566  0.41727548  0.91494904  1
  O  O452  1  0.51533497  0.75018830  0.16319926  1
  O  O453  1  0.51519862  0.75090248  0.41317696  1
  O  O454  1  0.51444213  0.75037444  0.66613833  1
  O  O455  1  0.51543944  0.74977371  0.91353983  1
  O  O456  1  0.48190043  0.25032047  0.08603639  1
  O  O457  1  0.48421345  0.24831727  0.33479360  1
  O  O458  1  0.48190721  0.24924860  0.58596699  1
  O  O459  1  0.48141559  0.24968284  0.83622034  1
  O  O460  1  0.48296928  0.58415917  0.08830407  1
  O  O461  1  0.48437210  0.58362134  0.33459934  1
  O  O462  1  0.48222905  0.58382636  0.58783403  1
  O  O463  1  0.48247011  0.58325835  0.83541369  1
  O  O464  1  0.48229931  0.91619119  0.08760613  1
  O  O465  1  0.48263375  0.91706233  0.33471421  1
  O  O466  1  0.48091313  0.91735944  0.58622392  1
  O  O467  1  0.48067480  0.91666148  0.83640221  1
  O  O468  1  0.98173719  0.25006475  0.08479008  1
  O  O469  1  0.98090408  0.24964067  0.33592939  1
  O  O470  1  0.98482092  0.25057187  0.58724495  1
  O  O471  1  0.98350814  0.24928367  0.83723783  1
  O  O472  1  0.98508311  0.58411067  0.08657779  1
  O  O473  1  0.98499525  0.58341079  0.33638813  1
  O  O474  1  0.98453690  0.58349154  0.58446659  1
  O  O475  1  0.98381887  0.58396289  0.83461376  1
  O  O476  1  0.98620346  0.91676147  0.08695401  1
  O  O477  1  0.98538753  0.91651226  0.33701629  1
  O  O478  1  0.98468225  0.91675661  0.58714308  1
  O  O479  1  0.98501045  0.91669260  0.83725172  1
  O  O480  1  0.08586655  0.31473997  0.07612777  1
  O  O481  1  0.08445580  0.31479179  0.32663495  1
  O  O482  1  0.08814871  0.31587099  0.57843060  1
  O  O483  1  0.08710631  0.31467694  0.82714844  1
  O  O484  1  0.08897552  0.64908923  0.07836300  1
  O  O485  1  0.08890706  0.64827724  0.32721118  1
  O  O486  1  0.08912042  0.64702037  0.57685811  1
  O  O487  1  0.08740397  0.64981914  0.82777969  1
  O  O488  1  0.09014106  0.98078460  0.07719011  1
  O  O489  1  0.08873023  0.98222847  0.32743461  1
  O  O490  1  0.08853442  0.98155993  0.57672308  1
  O  O491  1  0.08888522  0.98104076  0.82677966  1
  O  O492  1  0.58624542  0.31457791  0.07739697  1
  O  O493  1  0.58786345  0.31351478  0.32736766  1
  O  O494  1  0.58611057  0.31348560  0.57750472  1
  O  O495  1  0.58497213  0.31567907  0.82769456  1
  O  O496  1  0.58635104  0.64926366  0.07833627  1
  O  O497  1  0.58822208  0.64879345  0.32718354  1
  O  O498  1  0.58576346  0.64880085  0.57803525  1
  O  O499  1  0.58619503  0.64854081  0.82743875  1
  O  O500  1  0.58582441  0.98115490  0.07694856  1
  O  O501  1  0.58630037  0.98305662  0.32691059  1
  O  O502  1  0.58487409  0.98249826  0.57799047  1
  O  O503  1  0.58459836  0.98130485  0.82746227  1
  O  O504  1  0.41095246  0.01823371  0.17122764  1
  O  O505  1  0.41352687  0.01668996  0.42260211  1
  O  O506  1  0.41097270  0.01844134  0.67238522  1
  O  O507  1  0.40967880  0.01833124  0.92210443  1
  O  O508  1  0.41217249  0.35156640  0.17226231  1
  O  O509  1  0.41306701  0.35160708  0.42247691  1
  O  O510  1  0.41203312  0.35127884  0.67219082  1
  O  O511  1  0.41416397  0.35165821  0.92271880  1
  O  O512  1  0.41153326  0.68514766  0.17252661  1
  O  O513  1  0.41169223  0.68603227  0.42163311  1
  O  O514  1  0.41055574  0.68521959  0.67282351  1
  O  O515  1  0.41183919  0.68469464  0.92240227  1
  O  O516  1  0.91074822  0.01882410  0.17306400  1
  O  O517  1  0.91067271  0.01859370  0.42308813  1
  O  O518  1  0.91277132  0.01694286  0.67189872  1
  O  O519  1  0.91263698  0.01746949  0.92256025  1
  O  O520  1  0.91051789  0.35100639  0.17120256  1
  O  O521  1  0.91085603  0.35080916  0.42203330  1
  O  O522  1  0.91223728  0.35223748  0.67310150  1
  O  O523  1  0.91132391  0.35063319  0.92151819  1
  O  O524  1  0.91510530  0.68557407  0.17323351  1
  O  O525  1  0.91254904  0.68510740  0.42335424  1
  O  O526  1  0.91228156  0.68622793  0.67266824  1
  O  O527  1  0.91491630  0.68625501  0.92331538  1
  O  O528  1  0.16260704  0.01744469  0.20293614  1
  O  O529  1  0.16491582  0.01738890  0.45253583  1
  O  O530  1  0.16434244  0.01806544  0.70269720  1
  O  O531  1  0.16435509  0.01821327  0.95242095  1
  O  O532  1  0.16192885  0.35241017  0.20207610  1
  O  O533  1  0.16142699  0.35236759  0.45278133  1
  O  O534  1  0.16198089  0.35038058  0.70259829  1
  O  O535  1  0.16267356  0.35056531  0.95266383  1
  O  O536  1  0.16337797  0.68522134  0.20148631  1
  O  O537  1  0.16256719  0.68493745  0.45344280  1
  O  O538  1  0.16362448  0.68621432  0.70318380  1
  O  O539  1  0.16349866  0.68590387  0.95169606  1
  O  O540  1  0.66341173  0.01704936  0.20262956  1
  O  O541  1  0.66202483  0.01817757  0.45259244  1
  O  O542  1  0.66156370  0.01827975  0.70171853  1
  O  O543  1  0.66425176  0.01864423  0.95162824  1
  O  O544  1  0.66472676  0.35200088  0.20199304  1
  O  O545  1  0.66520988  0.35131009  0.45217383  1
  O  O546  1  0.66318008  0.35196947  0.70275384  1
  O  O547  1  0.66364018  0.35101922  0.95147263  1
  O  O548  1  0.66083283  0.68569294  0.20219633  1
  O  O549  1  0.66405107  0.68563316  0.45308798  1
  O  O550  1  0.66130545  0.68410811  0.70393976  1
  O  O551  1  0.66004227  0.68539929  0.95244079  1
  O  O552  1  0.33720117  0.31436725  0.04814128  1
  O  O553  1  0.33740343  0.31524184  0.29736225  1
  O  O554  1  0.33836297  0.31394386  0.54843744  1
  O  O555  1  0.33747072  0.31416507  0.79825779  1
  O  O556  1  0.33930709  0.64944668  0.04686824  1
  O  O557  1  0.33637306  0.64963305  0.29652885  1
  O  O558  1  0.33674424  0.64822271  0.54833612  1
  O  O559  1  0.33893362  0.64906901  0.79743190  1
  O  O560  1  0.33769365  0.98173715  0.04714080  1
  O  O561  1  0.33809701  0.97997085  0.29764200  1
  O  O562  1  0.33731174  0.98280673  0.54720437  1
  O  O563  1  0.33819220  0.98182203  0.79725323  1
  O  O564  1  0.83952610  0.31471590  0.04636507  1
  O  O565  1  0.83966086  0.31449552  0.29656178  1
  O  O566  1  0.83896613  0.31458793  0.54642983  1
  O  O567  1  0.83829475  0.31576696  0.79752854  1
  O  O568  1  0.83687642  0.64815205  0.04789668  1
  O  O569  1  0.83602665  0.64873288  0.29739878  1
  O  O570  1  0.83751634  0.64918000  0.54781871  1
  O  O571  1  0.83550846  0.64800522  0.79883227  1
  O  O572  1  0.83857729  0.98217007  0.04633761  1
  O  O573  1  0.83553075  0.98199318  0.29756528  1
  O  O574  1  0.83839938  0.98168125  0.54826247  1
  O  O575  1  0.83902199  0.98150531  0.79799477  1
  O  O576  1  0.41125157  0.14864632  0.17121431  1
  O  O577  1  0.41260065  0.14657370  0.42315044  1
  O  O578  1  0.41146300  0.14845464  0.67239940  1
  O  O579  1  0.40967004  0.14849726  0.92186076  1
  O  O580  1  0.41281108  0.48198933  0.17267373  1
  O  O581  1  0.41298572  0.48179852  0.42262992  1
  O  O582  1  0.41226497  0.48150789  0.67246218  1
  O  O583  1  0.41383063  0.48173144  0.92242589  1
  O  O584  1  0.41149831  0.81512291  0.17242895  1
  O  O585  1  0.41163951  0.81621906  0.42058276  1
  O  O586  1  0.41046573  0.81531748  0.67260723  1
  O  O587  1  0.41166754  0.81483575  0.92299745  1
  O  O588  1  0.91119634  0.14888529  0.17171910  1
  O  O589  1  0.91071858  0.14862670  0.42221227  1
  O  O590  1  0.91245198  0.14708275  0.67213380  1
  O  O591  1  0.91204347  0.14758774  0.92228962  1
  O  O592  1  0.91060954  0.48117945  0.17266878  1
  O  O593  1  0.91045149  0.48102451  0.42281184  1
  O  O594  1  0.91290722  0.48212983  0.67323311  1
  O  O595  1  0.91023829  0.48080340  0.92252347  1
  O  O596  1  0.91554698  0.81552596  0.17360435  1
  O  O597  1  0.91200657  0.81506462  0.42333556  1
  O  O598  1  0.91283705  0.81634278  0.67215179  1
  O  O599  1  0.91505939  0.81633155  0.92289109  1
  O  O600  1  0.08565314  0.18485539  0.07608262  1
  O  O601  1  0.08466345  0.18474905  0.32684603  1
  O  O602  1  0.08811370  0.18560685  0.57744061  1
  O  O603  1  0.08753311  0.18471248  0.82696453  1
  O  O604  1  0.08836289  0.51896173  0.07757573  1
  O  O605  1  0.08862758  0.51831946  0.32712847  1
  O  O606  1  0.08770301  0.51688623  0.57726956  1
  O  O607  1  0.08779654  0.51962470  0.82750236  1
  O  O608  1  0.08967850  0.85078318  0.07781901  1
  O  O609  1  0.08958871  0.85233962  0.32756829  1
  O  O610  1  0.08845140  0.85170009  0.57711852  1
  O  O611  1  0.08867953  0.85105253  0.82750741  1
  O  O612  1  0.58524729  0.18451377  0.07638593  1
  O  O613  1  0.58796212  0.18316636  0.32794904  1
  O  O614  1  0.58543249  0.18335795  0.57800442  1
  O  O615  1  0.58545755  0.18550672  0.82747035  1
  O  O616  1  0.58638336  0.51903330  0.07790297  1
  O  O617  1  0.58858626  0.51877481  0.32726720  1
  O  O618  1  0.58594096  0.51863222  0.57801239  1
  O  O619  1  0.58670952  0.51843611  0.82739695  1
  O  O620  1  0.58589206  0.85105168  0.07791884  1
  O  O621  1  0.58699106  0.85306214  0.32645892  1
  O  O622  1  0.58453023  0.85246498  0.57724079  1
  O  O623  1  0.58433512  0.85123110  0.82779402  1
  O  O624  1  0.33708449  0.18437612  0.04708855  1
  O  O625  1  0.33758064  0.18514475  0.29691279  1
  O  O626  1  0.33833199  0.18387218  0.54736448  1
  O  O627  1  0.33722625  0.18414702  0.79726867  1
  O  O628  1  0.33997312  0.51931139  0.04770027  1
  O  O629  1  0.33635664  0.51954840  0.29756517  1
  O  O630  1  0.33640406  0.51837023  0.54871713  1
  O  O631  1  0.33937579  0.51897731  0.79813602  1
  O  O632  1  0.33798678  0.85165864  0.04747644  1
  O  O633  1  0.33731008  0.85005741  0.29688168  1
  O  O634  1  0.33836324  0.85285152  0.54748656  1
  O  O635  1  0.33782625  0.85179632  0.79794140  1
  O  O636  1  0.83945074  0.18444407  0.04679459  1
  O  O637  1  0.83951252  0.18424072  0.29678392  1
  O  O638  1  0.83847272  0.18419955  0.54664190  1
  O  O639  1  0.83910147  0.18583725  0.79805645  1
  O  O640  1  0.83725305  0.51789374  0.04665073  1
  O  O641  1  0.83583727  0.51866213  0.29711025  1
  O  O642  1  0.83792743  0.51879986  0.54757222  1
  O  O643  1  0.83578189  0.51795218  0.79767602  1
  O  O644  1  0.83815134  0.85202064  0.04746285  1
  O  O645  1  0.83602677  0.85205913  0.29750963  1
  O  O646  1  0.83847899  0.85162086  0.54840905  1
  O  O647  1  0.83883881  0.85166472  0.79854747  1
  O  O648  1  0.16244049  0.14762607  0.20207299  1
  O  O649  1  0.16438083  0.14744249  0.45202249  1
  O  O650  1  0.16443233  0.14816559  0.70249024  1
  O  O651  1  0.16400223  0.14838323  0.95239066  1
  O  O652  1  0.16235922  0.48264450  0.20248776  1
  O  O653  1  0.16170662  0.48268040  0.45376140  1
  O  O654  1  0.16138859  0.48045152  0.70208476  1
  O  O655  1  0.16283116  0.48079705  0.95210562  1
  O  O656  1  0.16347884  0.81520415  0.20179570  1
  O  O657  1  0.16281954  0.81518108  0.45320200  1
  O  O658  1  0.16412939  0.81626337  0.70347274  1
  O  O659  1  0.16340388  0.81585002  0.95251063  1
  O  O660  1  0.66307604  0.14718602  0.20231483  1
  O  O661  1  0.66299761  0.14814458  0.45225320  1
  O  O662  1  0.66141068  0.14827973  0.70194915  1
  O  O663  1  0.66473393  0.14854367  0.95186646  1
  O  O664  1  0.66464156  0.48224935  0.20263955  1
  O  O665  1  0.66451603  0.48142550  0.45296122  1
  O  O666  1  0.66300226  0.48226936  0.70332514  1
  O  O667  1  0.66316572  0.48090657  0.95176215  1
  O  O668  1  0.66081656  0.81583483  0.20203645  1
  O  O669  1  0.66408571  0.81556933  0.45276958  1
  O  O670  1  0.66100190  0.81449928  0.70316048  1
  O  O671  1  0.66034481  0.81533294  0.95187352  1
