# generated using pymatgen
data_Na2MnFe(PO4)2
_symmetry_space_group_name_H-M   'P 1'
_cell_length_a   21.08026445
_cell_length_b   18.93157151
_cell_length_c   20.03973532
_cell_angle_alpha   90.00044665
_cell_angle_beta   89.99982210
_cell_angle_gamma   90.00015480
_symmetry_Int_Tables_number   1
_chemical_formula_structural   Na2MnFe(PO4)2
_chemical_formula_sum   'Na96 Mn48 Fe48 P96 O384'
_cell_volume   7997.50834995
_cell_formula_units_Z   48
loop_
 _symmetry_equiv_pos_site_id
 _symmetry_equiv_pos_as_xyz
  1  'x, y, z'
loop_
 _atom_site_type_symbol
 _atom_site_label
 _atom_site_symmetry_multiplicity
 _atom_site_fract_x
 _atom_site_fract_y
 _atom_site_fract_z
 _atom_site_occupancy
  Na  Na0  1  -0.00096978  -0.00069661  0.00107750  1
  Na  Na1  1  -0.00133431  -0.00060543  0.25029343  1
  Na  Na2  1  0.00108378  0.00034078  0.49948011  1
  Na  Na3  1  0.00198058  0.00086128  0.74945987  1
  Na  Na4  1  -0.00048734  0.33278171  0.00050909  1
  Na  Na5  1  0.00206390  0.33459320  0.24919801  1
  Na  Na6  1  0.00090803  0.33355165  0.50035286  1
  Na  Na7  1  0.00200086  0.33418201  0.74988178  1
  Na  Na8  1  0.00208298  0.66717658  0.00027626  1
  Na  Na9  1  0.00000085  0.66663058  0.25046437  1
  Na  Na10  1  0.00126511  0.66671606  0.49967755  1
  Na  Na11  1  0.00223814  0.66659399  0.74942422  1
  Na  Na12  1  0.50180603  0.00006792  0.00028625  1
  Na  Na13  1  0.50308902  0.00036327  0.24928115  1
  Na  Na14  1  0.50101145  0.00008556  0.49921209  1
  Na  Na15  1  0.49970564  -0.00032454  0.75121248  1
  Na  Na16  1  0.50185592  0.33495183  -0.00081863  1
  Na  Na17  1  0.49900105  0.33352964  0.24917205  1
  Na  Na18  1  0.49775563  0.33353033  0.50077554  1
  Na  Na19  1  0.49901614  0.33369687  0.75041377  1
  Na  Na20  1  0.50120226  0.66686721  0.00053316  1
  Na  Na21  1  0.50026861  0.66623484  0.25131206  1
  Na  Na22  1  0.49977748  0.66631124  0.49939102  1
  Na  Na23  1  0.50142758  0.66732935  0.74948853  1
  Na  Na24  1  0.24935969  -0.00037364  0.12503026  1
  Na  Na25  1  0.25008631  -0.00020520  0.37550647  1
  Na  Na26  1  0.24985335  -0.00026270  0.62550210  1
  Na  Na27  1  0.24986915  -0.00011317  0.87380487  1
  Na  Na28  1  0.24856994  0.33247370  0.12484943  1
  Na  Na29  1  0.25120133  0.33414806  0.37553638  1
  Na  Na30  1  0.25091025  0.33350925  0.62422759  1
  Na  Na31  1  0.24915024  0.33300864  0.87481653  1
  Na  Na32  1  0.24814754  0.66650758  0.12542551  1
  Na  Na33  1  0.24817719  0.66636786  0.37464924  1
  Na  Na34  1  0.24813798  0.66572290  0.62495401  1
  Na  Na35  1  0.24833284  0.66591883  0.87480997  1
  Na  Na36  1  0.74949909  -0.00053850  0.12369253  1
  Na  Na37  1  0.74783721  -0.00117619  0.37506763  1
  Na  Na38  1  0.74814646  -0.00027769  0.62543950  1
  Na  Na39  1  0.74888908  -0.00003647  0.87527640  1
  Na  Na40  1  0.74819869  0.33348342  0.12582195  1
  Na  Na41  1  0.74911245  0.33387916  0.37597782  1
  Na  Na42  1  0.74808900  0.33344766  0.62519038  1
  Na  Na43  1  0.74921065  0.33367274  0.87382739  1
  Na  Na44  1  0.75017586  0.66643628  0.12432420  1
  Na  Na45  1  0.75138393  0.66650368  0.37559291  1
  Na  Na46  1  0.75093171  0.66648303  0.62538242  1
  Na  Na47  1  0.74778327  0.66552261  0.87473474  1
  Na  Na48  1  0.00106736  0.16620338  0.00093865  1
  Na  Na49  1  -0.00122489  0.16693019  0.25007435  1
  Na  Na50  1  0.00136350  0.16656871  0.49957082  1
  Na  Na51  1  0.00289917  0.16610809  0.74932900  1
  Na  Na52  1  0.00113249  0.49989648  0.00049936  1
  Na  Na53  1  0.00102250  0.50037442  0.24960052  1
  Na  Na54  1  0.00029689  0.50108541  0.50015530  1
  Na  Na55  1  0.00120451  0.50012596  0.75073539  1
  Na  Na56  1  -0.00149948  0.83430920  0.00049506  1
  Na  Na57  1  0.00039300  0.83233892  0.25037390  1
  Na  Na58  1  0.00077059  0.83256683  0.49976230  1
  Na  Na59  1  0.00113596  0.83289602  0.74858600  1
  Na  Na60  1  0.50130385  0.16568663  -0.00087920  1
  Na  Na61  1  0.50040387  0.16638980  0.24878006  1
  Na  Na62  1  0.49764693  0.16730384  0.50023919  1
  Na  Na63  1  0.49904442  0.16623835  0.75161924  1
  Na  Na64  1  0.49976475  0.50121544  -0.00009316  1
  Na  Na65  1  0.50194366  0.49979448  0.25083931  1
  Na  Na66  1  0.50095783  0.50018054  0.50008090  1
  Na  Na67  1  0.50106446  0.49974648  0.74910222  1
  Na  Na68  1  0.50322003  0.83193703  0.00127102  1
  Na  Na69  1  0.50092310  0.83324879  0.25046794  1
  Na  Na70  1  0.49944918  0.83351851  0.49895029  1
  Na  Na71  1  0.49980348  0.83372332  0.75039320  1
  Na  Na72  1  0.24954879  0.16625116  0.12485801  1
  Na  Na73  1  0.25037397  0.16704117  0.37590886  1
  Na  Na74  1  0.25066319  0.16662973  0.62446458  1
  Na  Na75  1  0.24995148  0.16640049  0.87349426  1
  Na  Na76  1  0.24857075  0.50088599  0.12506162  1
  Na  Na77  1  0.24954248  0.50092396  0.37440153  1
  Na  Na78  1  0.25081169  0.49986644  0.62521969  1
  Na  Na79  1  0.24901463  0.50074696  0.87508002  1
  Na  Na80  1  0.24964466  0.83284161  0.12519821  1
  Na  Na81  1  0.24836370  0.83317394  0.37571929  1
  Na  Na82  1  0.24905684  0.83311927  0.62458848  1
  Na  Na83  1  0.24847549  0.83401549  0.87488197  1
  Na  Na84  1  0.74914555  0.16665982  0.12435089  1
  Na  Na85  1  0.75083485  0.16529329  0.37637301  1
  Na  Na86  1  0.74897301  0.16618420  0.62534857  1
  Na  Na87  1  0.74700603  0.16736293  0.87489182  1
  Na  Na88  1  0.75049146  0.49949841  0.12590389  1
  Na  Na89  1  0.74833033  0.50102786  0.37624749  1
  Na  Na90  1  0.74818131  0.50071640  0.62431740  1
  Na  Na91  1  0.74890807  0.49991910  0.87353002  1
  Na  Na92  1  0.74850006  0.83399026  0.12357522  1
  Na  Na93  1  0.75021255  0.83307447  0.37412716  1
  Na  Na94  1  0.75025052  0.83306522  0.62638810  1
  Na  Na95  1  0.75045905  0.83307645  0.87571698  1
  Mn  Mn96  1  0.35844610  0.08319913  0.50276603  1
  Mn  Mn97  1  0.64052514  0.25002662  0.49779215  1
  Mn  Mn98  1  0.39225329  0.91586564  0.87749143  1
  Mn  Mn99  1  0.10738103  0.08294905  0.12311818  1
  Mn  Mn100  1  0.14154307  0.91686810  0.99785081  1
  Mn  Mn101  1  0.35708318  0.74946329  0.50201631  1
  Mn  Mn102  1  0.85823110  0.08345670  0.75221805  1
  Mn  Mn103  1  0.64160166  0.24979131  0.24795557  1
  Mn  Mn104  1  0.60806294  0.41710638  0.12249564  1
  Mn  Mn105  1  0.89256392  0.24927981  0.87693443  1
  Mn  Mn106  1  0.85753738  0.41640620  0.75142152  1
  Mn  Mn107  1  0.14228419  0.91599568  0.49756377  1
  Mn  Mn108  1  0.89264406  0.91675091  0.62717486  1
  Mn  Mn109  1  0.64177952  0.58268782  0.99770752  1
  Mn  Mn110  1  0.85733603  0.08433556  0.00143899  1
  Mn  Mn111  1  0.35819471  0.75033079  0.00277495  1
  Mn  Mn112  1  0.89207689  0.25087846  0.37726943  1
  Mn  Mn113  1  0.64195197  0.91620874  0.74777305  1
  Mn  Mn114  1  0.35780229  0.41659967  0.00222429  1
  Mn  Mn115  1  0.14337734  0.25080009  0.49755503  1
  Mn  Mn116  1  0.60885028  0.74932767  0.37245345  1
  Mn  Mn117  1  0.39252954  0.58403896  0.87659640  1
  Mn  Mn118  1  0.10844403  0.41706030  0.37274375  1
  Mn  Mn119  1  0.39218258  0.58287445  0.37696696  1
  Mn  Mn120  1  0.89151057  0.24996270  0.12745777  1
  Mn  Mn121  1  0.10782047  0.08298191  0.37200254  1
  Mn  Mn122  1  0.85724750  0.41690707  0.50283024  1
  Mn  Mn123  1  0.89158136  0.91613409  0.37740394  1
  Mn  Mn124  1  0.60789445  0.08458124  0.37246352  1
  Mn  Mn125  1  0.35717786  0.74981864  0.75207314  1
  Mn  Mn126  1  0.85780916  0.41672061  0.25285674  1
  Mn  Mn127  1  0.39241336  0.25022572  0.87749956  1
  Mn  Mn128  1  0.85825353  0.74987471  0.75230885  1
  Mn  Mn129  1  0.14206004  0.24948730  0.99743611  1
  Mn  Mn130  1  0.35715839  0.41717265  0.25183469  1
  Mn  Mn131  1  0.39254656  0.91693652  0.37636527  1
  Mn  Mn132  1  0.89277321  0.58378187  0.12706860  1
  Mn  Mn133  1  0.85748976  0.74913017  0.00199678  1
  Mn  Mn134  1  0.39264764  0.25032473  0.12678103  1
  Mn  Mn135  1  0.60766581  0.75037870  0.62181273  1
  Mn  Mn136  1  0.10801300  0.75096537  0.87264170  1
  Mn  Mn137  1  0.89246065  0.58355877  0.87699018  1
  Mn  Mn138  1  0.39324103  0.91588137  0.12730960  1
  Mn  Mn139  1  0.64109071  0.25038252  0.74715631  1
  Mn  Mn140  1  0.35809761  0.08254552  0.25162070  1
  Mn  Mn141  1  0.10800098  0.41581604  0.87255144  1
  Mn  Mn142  1  0.89307165  0.25063345  0.62727353  1
  Mn  Mn143  1  0.85728793  0.08274260  0.50294832  1
  Fe  Fe144  1  0.14313059  0.58336582  0.99849694  1
  Fe  Fe145  1  0.60592130  0.08350820  0.62421423  1
  Fe  Fe146  1  0.39240144  0.24988027  0.62755778  1
  Fe  Fe147  1  0.35759016  0.08293216  0.00149885  1
  Fe  Fe148  1  0.60834466  0.08322784  0.12257415  1
  Fe  Fe149  1  0.60648799  0.41619133  0.37403272  1
  Fe  Fe150  1  0.14347675  0.25015042  0.74770142  1
  Fe  Fe151  1  0.60769018  0.41720016  0.87257192  1
  Fe  Fe152  1  0.14220542  0.91667231  0.24821371  1
  Fe  Fe153  1  0.60773132  0.74972448  0.12419348  1
  Fe  Fe154  1  0.89360584  0.58288475  0.62652650  1
  Fe  Fe155  1  0.14266037  0.24977523  0.24870783  1
  Fe  Fe156  1  0.64229615  0.58346028  0.74730314  1
  Fe  Fe157  1  0.64339375  0.58417962  0.24849797  1
  Fe  Fe158  1  0.85697369  0.41635863  0.00104565  1
  Fe  Fe159  1  0.39242991  0.58417047  0.12701581  1
  Fe  Fe160  1  0.10750031  0.41706029  0.12291926  1
  Fe  Fe161  1  0.60780693  0.74983272  0.87303063  1
  Fe  Fe162  1  0.10671094  0.74988057  0.37252742  1
  Fe  Fe163  1  0.85738309  0.75007520  0.25123636  1
  Fe  Fe164  1  0.64337606  0.91580377  0.24780470  1
  Fe  Fe165  1  0.64303404  0.58422559  0.49869534  1
  Fe  Fe166  1  0.10852099  0.41701860  0.62312788  1
  Fe  Fe167  1  0.35678222  0.08320545  0.75150041  1
  Fe  Fe168  1  0.10705708  0.75013877  0.12372129  1
  Fe  Fe169  1  0.60560270  0.41625370  0.62307027  1
  Fe  Fe170  1  0.60665124  0.08307380  0.87281874  1
  Fe  Fe171  1  0.64330117  0.91693025  0.99779802  1
  Fe  Fe172  1  0.10830401  0.08298887  0.87326586  1
  Fe  Fe173  1  0.14220380  0.58355204  0.24783868  1
  Fe  Fe174  1  0.39268380  0.58378160  0.62670520  1
  Fe  Fe175  1  0.85767933  0.74989008  0.50154035  1
  Fe  Fe176  1  0.85640386  0.08297732  0.25129306  1
  Fe  Fe177  1  0.10733138  0.74963182  0.62277920  1
  Fe  Fe178  1  0.39187140  0.25029253  0.37568673  1
  Fe  Fe179  1  0.35648699  0.75009724  0.25128478  1
  Fe  Fe180  1  0.39255140  0.91661154  0.62660208  1
  Fe  Fe181  1  0.64237131  0.25024315  0.99822082  1
  Fe  Fe182  1  0.89339813  0.91732943  0.87593568  1
  Fe  Fe183  1  0.10844796  0.08348560  0.62309037  1
  Fe  Fe184  1  0.35699151  0.41687536  0.75140146  1
  Fe  Fe185  1  0.14241828  0.91688628  0.74769986  1
  Fe  Fe186  1  0.14273982  0.58283671  0.74754537  1
  Fe  Fe187  1  0.64210458  0.91569456  0.49895393  1
  Fe  Fe188  1  0.14277163  0.58278519  0.49844060  1
  Fe  Fe189  1  0.89190090  0.91632745  0.12702424  1
  Fe  Fe190  1  0.35793577  0.41786199  0.50197657  1
  Fe  Fe191  1  0.89294428  0.58322758  0.37682493  1
  P  P192  1  0.05451611  0.25051562  0.11132957  1
  P  P193  1  0.05404222  0.25032547  0.35918852  1
  P  P194  1  0.05586172  0.25041112  0.61098337  1
  P  P195  1  0.05445957  0.24887197  0.85908668  1
  P  P196  1  0.05563340  0.58385142  0.11085737  1
  P  P197  1  0.05418607  0.58412342  0.36062030  1
  P  P198  1  0.05491488  0.58293818  0.61048673  1
  P  P199  1  0.05544851  0.58333537  0.86041794  1
  P  P200  1  0.05286414  0.91569911  0.11164207  1
  P  P201  1  0.05365223  0.91561408  0.35937346  1
  P  P202  1  0.05499840  0.91670113  0.61070784  1
  P  P203  1  0.05312603  0.91758373  0.85918840  1
  P  P204  1  0.55420443  0.24957992  0.10879653  1
  P  P205  1  0.55108212  0.25127888  0.35991231  1
  P  P206  1  0.55102452  0.24978947  0.61066787  1
  P  P207  1  0.55463820  0.25020264  0.86128598  1
  P  P208  1  0.55338833  0.58463604  0.11167540  1
  P  P209  1  0.55557846  0.58252793  0.36102186  1
  P  P210  1  0.55359265  0.58294261  0.61030824  1
  P  P211  1  0.55431398  0.58350836  0.85905123  1
  P  P212  1  0.55641530  0.91591175  0.11089702  1
  P  P213  1  0.55577869  0.91630930  0.36001765  1
  P  P214  1  0.55216599  0.91739775  0.60972009  1
  P  P215  1  0.55475179  0.91636413  0.86163097  1
  P  P216  1  0.44768905  0.08283049  0.13836837  1
  P  P217  1  0.44661945  0.08380484  0.38946329  1
  P  P218  1  0.44672723  0.08287616  0.64094420  1
  P  P219  1  0.44556835  0.08284981  0.88955145  1
  P  P220  1  0.44670513  0.41815607  0.13985549  1
  P  P221  1  0.44652027  0.41656004  0.39037553  1
  P  P222  1  0.44524933  0.41742800  0.63934262  1
  P  P223  1  0.44680589  0.41749257  0.88852978  1
  P  P224  1  0.44746930  0.74927941  0.14124893  1
  P  P225  1  0.44560534  0.74982471  0.38865801  1
  P  P226  1  0.44637356  0.74998273  0.63967087  1
  P  P227  1  0.44827471  0.74981856  0.89030829  1
  P  P228  1  0.94525512  0.08256055  0.14065419  1
  P  P229  1  0.94505636  0.08322015  0.38907580  1
  P  P230  1  0.94857208  0.08357642  0.63979260  1
  P  P231  1  0.94871957  0.08267440  0.88991984  1
  P  P232  1  0.94664528  0.41702007  0.13886346  1
  P  P233  1  0.94700076  0.41787960  0.39030955  1
  P  P234  1  0.94861733  0.41787528  0.63985474  1
  P  P235  1  0.94622621  0.41649436  0.89068001  1
  P  P236  1  0.94688276  0.75037895  0.14057027  1
  P  P237  1  0.94561162  0.74902266  0.38924804  1
  P  P238  1  0.94674096  0.74871137  0.63832124  1
  P  P239  1  0.94701935  0.75092861  0.88980701  1
  P  P240  1  0.19676293  0.08313246  0.23515969  1
  P  P241  1  0.19602031  0.08331797  0.48585540  1
  P  P242  1  0.19614913  0.08348815  0.73538556  1
  P  P243  1  0.19736768  0.08294506  0.98392839  1
  P  P244  1  0.19575194  0.41671257  0.23445146  1
  P  P245  1  0.19745020  0.41790610  0.48609967  1
  P  P246  1  0.19730175  0.41646250  0.73443106  1
  P  P247  1  0.19568058  0.41742129  0.98602327  1
  P  P248  1  0.19519479  0.75028120  0.23578317  1
  P  P249  1  0.19422825  0.74845726  0.48532538  1
  P  P250  1  0.19555675  0.75009382  0.73430230  1
  P  P251  1  0.19565302  0.74954555  0.98628270  1
  P  P252  1  0.69697288  0.08256797  0.23423762  1
  P  P253  1  0.69433576  0.08227364  0.48678114  1
  P  P254  1  0.69463444  0.08320117  0.73527957  1
  P  P255  1  0.69454163  0.08346823  0.98526380  1
  P  P256  1  0.69516972  0.41777295  0.23698389  1
  P  P257  1  0.69377543  0.41761429  0.48614328  1
  P  P258  1  0.69411393  0.41761735  0.73456391  1
  P  P259  1  0.69695749  0.41608404  0.98406488  1
  P  P260  1  0.69788139  0.74930980  0.23447013  1
  P  P261  1  0.69796413  0.74986969  0.48528543  1
  P  P262  1  0.69552852  0.74924793  0.73589221  1
  P  P263  1  0.69477907  0.75033195  0.98559468  1
  P  P264  1  0.30344450  0.24876449  0.01467067  1
  P  P265  1  0.30254889  0.24991659  0.26511800  1
  P  P266  1  0.30614407  0.25117227  0.51447431  1
  P  P267  1  0.30401487  0.25027469  0.76335677  1
  P  P268  1  0.30308791  0.58368735  0.01571286  1
  P  P269  1  0.30291780  0.58459592  0.26352106  1
  P  P270  1  0.30289768  0.58297914  0.51542392  1
  P  P271  1  0.30315873  0.58272813  0.76357743  1
  P  P272  1  0.30327915  0.91744987  0.01513977  1
  P  P273  1  0.30198164  0.91540644  0.26471026  1
  P  P274  1  0.30402956  0.91640393  0.51571556  1
  P  P275  1  0.30325591  0.91692728  0.76353023  1
  P  P276  1  0.80184712  0.25107322  0.01452264  1
  P  P277  1  0.80248710  0.24911241  0.26550017  1
  P  P278  1  0.80248607  0.25015601  0.51575355  1
  P  P279  1  0.80292697  0.24991609  0.76491904  1
  P  P280  1  0.80312913  0.58187676  0.01472575  1
  P  P281  1  0.80340523  0.58413458  0.26565820  1
  P  P282  1  0.80441561  0.58410703  0.51464707  1
  P  P283  1  0.80334224  0.58292825  0.76356672  1
  P  P284  1  0.80441439  0.91693858  0.01375878  1
  P  P285  1  0.80336829  0.91643074  0.26318310  1
  P  P286  1  0.80191474  0.91547717  0.51534787  1
  P  P287  1  0.80406049  0.91690998  0.76598654  1
  O  O288  1  0.05887251  0.24987879  0.18803841  1
  O  O289  1  0.05759709  0.25032431  0.43602189  1
  O  O290  1  0.05992653  0.25052992  0.68776929  1
  O  O291  1  0.05691316  0.24969295  0.93595079  1
  O  O292  1  0.05902734  0.58371037  0.18774927  1
  O  O293  1  0.05868089  0.58315278  0.43729803  1
  O  O294  1  0.05930618  0.58261514  0.68726240  1
  O  O295  1  0.05949855  0.58329482  0.93720077  1
  O  O296  1  0.05789167  0.91637578  0.18824533  1
  O  O297  1  0.05691101  0.91645976  0.43616816  1
  O  O298  1  0.05885340  0.91680396  0.68750936  1
  O  O299  1  0.05604297  0.91685103  0.93600756  1
  O  O300  1  0.55669325  0.25006168  0.18566661  1
  O  O301  1  0.55435487  0.25052529  0.43663336  1
  O  O302  1  0.55461069  0.24989644  0.68736636  1
  O  O303  1  0.55853023  0.25059970  0.93800269  1
  O  O304  1  0.55840505  0.58395639  0.18830317  1
  O  O305  1  0.55955689  0.58428181  0.43777270  1
  O  O306  1  0.55816463  0.58392066  0.68699006  1
  O  O307  1  0.55670515  0.58309168  0.93591593  1
  O  O308  1  0.56029744  0.91611183  0.18777942  1
  O  O309  1  0.55951420  0.91563794  0.43682537  1
  O  O310  1  0.55588678  0.91626546  0.68646029  1
  O  O311  1  0.55865362  0.91637940  0.93837550  1
  O  O312  1  0.44253243  0.08258567  0.06174744  1
  O  O313  1  0.44388765  0.08280356  0.31260404  1
  O  O314  1  0.44388531  0.08275848  0.56419567  1
  O  O315  1  0.44006095  0.08281579  0.81287239  1
  O  O316  1  0.44378086  0.41794061  0.06302582  1
  O  O317  1  0.44295475  0.41760662  0.31362390  1
  O  O318  1  0.44128566  0.41791096  0.56259901  1
  O  O319  1  0.44133531  0.41720916  0.81187538  1
  O  O320  1  0.44400814  0.74978733  0.06447197  1
  O  O321  1  0.44078655  0.74986301  0.31197828  1
  O  O322  1  0.44328443  0.74965319  0.56289663  1
  O  O323  1  0.44354021  0.75011761  0.81364777  1
  O  O324  1  0.94242866  0.08334832  0.06380616  1
  O  O325  1  0.94013741  0.08294263  0.31236262  1
  O  O326  1  0.94417677  0.08341087  0.56307528  1
  O  O327  1  0.94509719  0.08360231  0.81323533  1
  O  O328  1  0.94134530  0.41658718  0.06225225  1
  O  O329  1  0.94392467  0.41735002  0.31348233  1
  O  O330  1  0.94428573  0.41730770  0.56318560  1
  O  O331  1  0.94297813  0.41669857  0.81386536  1
  O  O332  1  0.94308925  0.74980428  0.06384176  1
  O  O333  1  0.94069772  0.74976829  0.31256678  1
  O  O334  1  0.94194992  0.74949187  0.56163024  1
  O  O335  1  0.94440794  0.74974618  0.81296998  1
  O  O336  1  0.19299719  0.08282853  0.06062470  1
  O  O337  1  0.19422503  0.08315547  0.31196497  1
  O  O338  1  0.19193481  0.08326536  0.56266194  1
  O  O339  1  0.19192040  0.08314671  0.81209559  1
  O  O340  1  0.19164548  0.41664812  0.06275418  1
  O  O341  1  0.19369095  0.41704633  0.31134874  1
  O  O342  1  0.19279901  0.41719836  0.56273652  1
  O  O343  1  0.19392231  0.41653765  0.81118160  1
  O  O344  1  0.19142911  0.75055723  0.06300076  1
  O  O345  1  0.19101669  0.75014890  0.31254756  1
  O  O346  1  0.19042812  0.74939159  0.56210678  1
  O  O347  1  0.19325969  0.75043140  0.81116661  1
  O  O348  1  0.69132972  0.08329179  0.06212169  1
  O  O349  1  0.69367797  0.08349675  0.31105661  1
  O  O350  1  0.68951893  0.08346859  0.56350712  1
  O  O351  1  0.69022730  0.08330535  0.81206145  1
  O  O352  1  0.69356979  0.41710687  0.06089676  1
  O  O353  1  0.69093504  0.41673756  0.31368595  1
  O  O354  1  0.68917741  0.41634880  0.56291203  1
  O  O355  1  0.69036580  0.41682290  0.81138493  1
  O  O356  1  0.69108605  0.74941683  0.06234982  1
  O  O357  1  0.69476462  0.74932306  0.31123205  1
  O  O358  1  0.69430873  0.74981089  0.56200569  1
  O  O359  1  0.69144753  0.74984357  0.81265113  1
  O  O360  1  0.30649177  0.24983641  0.18838713  1
  O  O361  1  0.30978730  0.25037933  0.43763539  1
  O  O362  1  0.30866301  0.25010769  0.68659286  1
  O  O363  1  0.30648991  0.24970305  0.93782530  1
  O  O364  1  0.30798953  0.58413253  0.18691655  1
  O  O365  1  0.30640117  0.58355086  0.43865883  1
  O  O366  1  0.30839099  0.58351443  0.68697370  1
  O  O367  1  0.30697865  0.58387733  0.93892785  1
  O  O368  1  0.30629280  0.91594601  0.18803226  1
  O  O369  1  0.30732376  0.91654601  0.43891986  1
  O  O370  1  0.30846695  0.91628666  0.68691121  1
  O  O371  1  0.30637675  0.91654008  0.93831995  1
  O  O372  1  0.80543829  0.25019384  0.18866016  1
  O  O373  1  0.80616133  0.25036932  0.43897368  1
  O  O374  1  0.80683837  0.24987080  0.68816333  1
  O  O375  1  0.80573480  0.25015238  0.93784172  1
  O  O376  1  0.80715208  0.58328197  0.18891698  1
  O  O377  1  0.80910964  0.58316312  0.43797756  1
  O  O378  1  0.80880728  0.58292269  0.68692925  1
  O  O379  1  0.80610599  0.58280182  0.93794953  1
  O  O380  1  0.80769751  0.91621629  0.18645003  1
  O  O381  1  0.80548061  0.91624744  0.43857291  1
  O  O382  1  0.80741629  0.91706152  0.68915099  1
  O  O383  1  0.80947805  0.91709069  0.93712600  1
  O  O384  1  0.23380300  0.24903543  0.03976466  1
  O  O385  1  0.23248663  0.25042017  0.28966340  1
  O  O386  1  0.23609197  0.25017829  0.53862426  1
  O  O387  1  0.23364807  0.25017070  0.78713918  1
  O  O388  1  0.23289906  0.58360341  0.03978115  1
  O  O389  1  0.23243749  0.58395784  0.28699867  1
  O  O390  1  0.23281116  0.58303661  0.53987574  1
  O  O391  1  0.23268263  0.58309987  0.78695697  1
  O  O392  1  0.23359192  0.91677501  0.04021195  1
  O  O393  1  0.23192537  0.91615100  0.28923750  1
  O  O394  1  0.23413783  0.91630158  0.54015889  1
  O  O395  1  0.23273443  0.91681620  0.78689038  1
  O  O396  1  0.73183475  0.25034296  0.03921609  1
  O  O397  1  0.73288180  0.24946430  0.29103261  1
  O  O398  1  0.73256534  0.25014300  0.54025549  1
  O  O399  1  0.73300141  0.25028337  0.78911319  1
  O  O400  1  0.73347668  0.58257736  0.04002566  1
  O  O401  1  0.73329280  0.58385713  0.29011158  1
  O  O402  1  0.73387985  0.58372382  0.53807831  1
  O  O403  1  0.73289886  0.58282784  0.78684027  1
  O  O404  1  0.73381259  0.91705873  0.03677991  1
  O  O405  1  0.73305804  0.91583724  0.28729687  1
  O  O406  1  0.73195668  0.91574668  0.54029431  1
  O  O407  1  0.73420570  0.91656868  0.79045984  1
  O  O408  1  0.26630703  0.08277598  0.20938327  1
  O  O409  1  0.26605572  0.08339320  0.46184038  1
  O  O410  1  0.26657760  0.08345150  0.71141643  1
  O  O411  1  0.26744160  0.08308165  0.95959052  1
  O  O412  1  0.26536323  0.41685445  0.20881254  1
  O  O413  1  0.26764162  0.41792534  0.46196046  1
  O  O414  1  0.26740959  0.41650650  0.70981433  1
  O  O415  1  0.26554629  0.41704393  0.96125171  1
  O  O416  1  0.26546139  0.74982668  0.21152176  1
  O  O417  1  0.26425665  0.74944374  0.46112127  1
  O  O418  1  0.26518662  0.74968807  0.70879652  1
  O  O419  1  0.26554649  0.74990913  0.96154450  1
  O  O420  1  0.76689015  0.08297056  0.20924911  1
  O  O421  1  0.76439050  0.08223640  0.46272232  1
  O  O422  1  0.76476869  0.08300099  0.71144996  1
  O  O423  1  0.76451160  0.08353240  0.96054176  1
  O  O424  1  0.76514870  0.41720641  0.21253833  1
  O  O425  1  0.76400451  0.41731893  0.46250700  1
  O  O426  1  0.76415016  0.41698102  0.71026326  1
  O  O427  1  0.76684874  0.41666716  0.95906094  1
  O  O428  1  0.76784793  0.74985590  0.20943019  1
  O  O429  1  0.76785956  0.74966557  0.46028174  1
  O  O430  1  0.76553268  0.74978888  0.71167831  1
  O  O431  1  0.76480630  0.74934040  0.96118177  1
  O  O432  1  0.01503777  0.08303720  0.16561632  1
  O  O433  1  0.01528466  0.08321446  0.41260199  1
  O  O434  1  0.01881992  0.08355388  0.66363603  1
  O  O435  1  0.01859160  0.08281881  0.91511518  1
  O  O436  1  0.01708793  0.41769148  0.16226671  1
  O  O437  1  0.01672811  0.41749621  0.41534830  1
  O  O438  1  0.01874591  0.41760645  0.66414406  1
  O  O439  1  0.01612457  0.41614201  0.91523736  1
  O  O440  1  0.01699219  0.74958738  0.16493982  1
  O  O441  1  0.01611338  0.74975771  0.41253198  1
  O  O442  1  0.01711977  0.74906393  0.66199765  1
  O  O443  1  0.01653701  0.75087657  0.91540387  1
  O  O444  1  0.51815300  0.08285880  0.16182057  1
  O  O445  1  0.51617376  0.08382755  0.41491435  1
  O  O446  1  0.51669645  0.08308141  0.66612447  1
  O  O447  1  0.51621683  0.08293154  0.91220800  1
  O  O448  1  0.51636716  0.41720860  0.16502746  1
  O  O449  1  0.51648085  0.41711842  0.41517075  1
  O  O450  1  0.51567127  0.41688720  0.66321353  1
  O  O451  1  0.51727897  0.41782417  0.91180105  1
  O  O452  1  0.51756817  0.74993378  0.16577134  1
  O  O453  1  0.51578923  0.74959686  0.41240905  1
  O  O454  1  0.51611936  0.75036431  0.66471961  1
  O  O455  1  0.51842984  0.74947509  0.91425126  1
  O  O456  1  0.48463749  0.25039940  0.08321319  1
  O  O457  1  0.48129653  0.25053392  0.33449445  1
  O  O458  1  0.48089459  0.25023842  0.58620547  1
  O  O459  1  0.48464825  0.24987418  0.83678371  1
  O  O460  1  0.48317417  0.58446099  0.08750966  1
  O  O461  1  0.48543951  0.58300988  0.33702007  1
  O  O462  1  0.48315571  0.58333046  0.58661570  1
  O  O463  1  0.48467237  0.58351750  0.83351745  1
  O  O464  1  0.48633557  0.91578925  0.08664742  1
  O  O465  1  0.48578373  0.91671924  0.33562917  1
  O  O466  1  0.48207144  0.91676177  0.58519514  1
  O  O467  1  0.48483109  0.91658016  0.83699235  1
  O  O468  1  0.98447143  0.24966382  0.08706572  1
  O  O469  1  0.98425060  0.25083990  0.33449940  1
  O  O470  1  0.98593835  0.25024054  0.58631734  1
  O  O471  1  0.98487972  0.24996369  0.83358558  1
  O  O472  1  0.98566497  0.58386540  0.08628441  1
  O  O473  1  0.98387864  0.58368165  0.33666404  1
  O  O474  1  0.98460279  0.58338199  0.58651117  1
  O  O475  1  0.98538829  0.58345922  0.83626247  1
  O  O476  1  0.98250354  0.91628287  0.08792263  1
  O  O477  1  0.98376307  0.91574497  0.33488373  1
  O  O478  1  0.98511834  0.91660590  0.58585576  1
  O  O479  1  0.98329890  0.91694782  0.83391495  1
  O  O480  1  0.08765212  0.31587146  0.07832518  1
  O  O481  1  0.08854369  0.31522921  0.32689634  1
  O  O482  1  0.08929760  0.31584273  0.57814599  1
  O  O483  1  0.08959335  0.31347862  0.82661645  1
  O  O484  1  0.08930129  0.64914186  0.07825748  1
  O  O485  1  0.08741661  0.64947705  0.32761865  1
  O  O486  1  0.08853870  0.64794912  0.57735110  1
  O  O487  1  0.08923434  0.64823387  0.82730410  1
  O  O488  1  0.08633346  0.98057745  0.07795180  1
  O  O489  1  0.08788906  0.98039354  0.32639850  1
  O  O490  1  0.08869941  0.98183197  0.57793446  1
  O  O491  1  0.08733797  0.98275127  0.82704471  1
  O  O492  1  0.58904149  0.31448551  0.07661538  1
  O  O493  1  0.58481692  0.31659236  0.32771120  1
  O  O494  1  0.58489423  0.31472905  0.57780845  1
  O  O495  1  0.58786623  0.31536075  0.82802606  1
  O  O496  1  0.58683249  0.64979727  0.07870710  1
  O  O497  1  0.58960729  0.64708362  0.32714090  1
  O  O498  1  0.58732879  0.64768740  0.57650971  1
  O  O499  1  0.58864339  0.64873866  0.82705736  1
  O  O500  1  0.59008602  0.98086251  0.07766614  1
  O  O501  1  0.58980497  0.98126512  0.32731751  1
  O  O502  1  0.58580162  0.98274671  0.57757401  1
  O  O503  1  0.58833246  0.98149317  0.82864748  1
  O  O504  1  0.41463322  0.01783259  0.17218644  1
  O  O505  1  0.41257303  0.01878104  0.42216559  1
  O  O506  1  0.41271125  0.01775826  0.67352401  1
  O  O507  1  0.41255586  0.01791063  0.92333965  1
  O  O508  1  0.41223144  0.35302828  0.17186563  1
  O  O509  1  0.41258999  0.35136835  0.42249496  1
  O  O510  1  0.41161687  0.35241426  0.67250800  1
  O  O511  1  0.41385585  0.35236833  0.92218671  1
  O  O512  1  0.41342599  0.68425780  0.17384623  1
  O  O513  1  0.41212224  0.68479196  0.42193681  1
  O  O514  1  0.41264199  0.68466034  0.67228822  1
  O  O515  1  0.41454980  0.68472923  0.92308105  1
  O  O516  1  0.91125944  0.01727565  0.17279645  1
  O  O517  1  0.91188613  0.01795097  0.42241665  1
  O  O518  1  0.91493465  0.01850762  0.67269999  1
  O  O519  1  0.91461038  0.01749608  0.92208048  1
  O  O520  1  0.91370452  0.35194623  0.17267154  1
  O  O521  1  0.91269487  0.35300303  0.42295531  1
  O  O522  1  0.91480108  0.35287158  0.67286563  1
  O  O523  1  0.91194112  0.35149552  0.92318340  1
  O  O524  1  0.91269703  0.68556054  0.17358002  1
  O  O525  1  0.91273162  0.68372368  0.42257581  1
  O  O526  1  0.91370938  0.68345010  0.67159877  1
  O  O527  1  0.91279960  0.68595965  0.92250527  1
  O  O528  1  0.16229308  0.01804940  0.20296364  1
  O  O529  1  0.16247679  0.01825268  0.45282936  1
  O  O530  1  0.16255519  0.01854902  0.70203913  1
  O  O531  1  0.16343828  0.01790113  0.95105195  1
  O  O532  1  0.16145563  0.35154636  0.20245637  1
  O  O533  1  0.16414081  0.35291881  0.45258982  1
  O  O534  1  0.16347255  0.35145594  0.70161608  1
  O  O535  1  0.16194356  0.35246798  0.95280459  1
  O  O536  1  0.16130775  0.68537494  0.20268255  1
  O  O537  1  0.16109863  0.68297136  0.45265968  1
  O  O538  1  0.16101995  0.68499740  0.70230323  1
  O  O539  1  0.16214649  0.68418780  0.95375627  1
  O  O540  1  0.66317179  0.01734108  0.20190256  1
  O  O541  1  0.66103546  0.01694795  0.45411510  1
  O  O542  1  0.66081223  0.01822881  0.70228799  1
  O  O543  1  0.66076953  0.01831150  0.95247182  1
  O  O544  1  0.66127509  0.35304937  0.20351971  1
  O  O545  1  0.65991067  0.35290689  0.45239474  1
  O  O546  1  0.65986724  0.35280388  0.70145119  1
  O  O547  1  0.66295258  0.35090569  0.95181167  1
  O  O548  1  0.66402732  0.68399081  0.20202375  1
  O  O549  1  0.66393352  0.68479490  0.45264319  1
  O  O550  1  0.66216251  0.68410067  0.70281136  1
  O  O551  1  0.66050608  0.68569438  0.95235391  1
  O  O552  1  0.33756250  0.31382191  0.04721637  1
  O  O553  1  0.33677467  0.31489333  0.29778656  1
  O  O554  1  0.33916386  0.31669795  0.54712231  1
  O  O555  1  0.33716675  0.31552433  0.79655942  1
  O  O556  1  0.33682343  0.64867696  0.04885164  1
  O  O557  1  0.33587493  0.64965439  0.29708661  1
  O  O558  1  0.33675477  0.64795463  0.54849848  1
  O  O559  1  0.33627481  0.64771669  0.79743935  1
  O  O560  1  0.33714958  0.98281695  0.04722204  1
  O  O561  1  0.33618358  0.98035644  0.29746231  1
  O  O562  1  0.33800653  0.98136152  0.54855770  1
  O  O563  1  0.33645041  0.98205261  0.79673433  1
  O  O564  1  0.83532824  0.31635941  0.04725507  1
  O  O565  1  0.83682545  0.31413126  0.29803349  1
  O  O566  1  0.83639628  0.31534937  0.54831830  1
  O  O567  1  0.83692483  0.31497408  0.79735802  1
  O  O568  1  0.83759631  0.64677803  0.04730684  1
  O  O569  1  0.83717152  0.64949256  0.29792889  1
  O  O570  1  0.83765566  0.64935974  0.54766895  1
  O  O571  1  0.83643168  0.64797183  0.79728477  1
  O  O572  1  0.83761927  0.98188921  0.04737383  1
  O  O573  1  0.83613356  0.98172450  0.29658670  1
  O  O574  1  0.83596790  0.98036041  0.54832775  1
  O  O575  1  0.83803036  0.98198854  0.79865699  1
  O  O576  1  0.41441211  0.14798077  0.17155230  1
  O  O577  1  0.41229594  0.14894895  0.42125594  1
  O  O578  1  0.41248191  0.14796382  0.67340816  1
  O  O579  1  0.41250328  0.14791697  0.92309836  1
  O  O580  1  0.41302288  0.48332048  0.17250350  1
  O  O581  1  0.41236776  0.48141970  0.42356122  1
  O  O582  1  0.41212514  0.48261222  0.67274967  1
  O  O583  1  0.41345910  0.48243933  0.92188419  1
  O  O584  1  0.41310053  0.81419940  0.17395723  1
  O  O585  1  0.41228605  0.81489849  0.42184283  1
  O  O586  1  0.41224900  0.81506185  0.67213669  1
  O  O587  1  0.41486177  0.81481514  0.92364727  1
  O  O588  1  0.91067048  0.14734267  0.17323322  1
  O  O589  1  0.91179437  0.14832119  0.42234487  1
  O  O590  1  0.91501910  0.14859735  0.67284049  1
  O  O591  1  0.91461258  0.14766224  0.92288322  1
  O  O592  1  0.91327762  0.48203367  0.17228727  1
  O  O593  1  0.91307775  0.48318875  0.42244653  1
  O  O594  1  0.91488997  0.48305108  0.67251587  1
  O  O595  1  0.91236884  0.48160416  0.92337189  1
  O  O596  1  0.91312950  0.81550165  0.17329957  1
  O  O597  1  0.91191786  0.81376461  0.42304710  1
  O  O598  1  0.91333362  0.81364429  0.67182802  1
  O  O599  1  0.91282327  0.81626283  0.92144508  1
  O  O600  1  0.08831777  0.18554503  0.07811151  1
  O  O601  1  0.08796343  0.18524337  0.32650251  1
  O  O602  1  0.08958985  0.18528404  0.57819682  1
  O  O603  1  0.08846032  0.18346369  0.82727467  1
  O  O604  1  0.08951312  0.51888401  0.07790389  1
  O  O605  1  0.08812712  0.51952145  0.32697254  1
  O  O606  1  0.08831570  0.51788659  0.57702387  1
  O  O607  1  0.08908479  0.51828957  0.82721513  1
  O  O608  1  0.08583820  0.85039807  0.07838796  1
  O  O609  1  0.08764078  0.85038438  0.32717824  1
  O  O610  1  0.08845512  0.85128997  0.57806327  1
  O  O611  1  0.08773033  0.85287867  0.82642791  1
  O  O612  1  0.58837494  0.18440187  0.07676917  1
  O  O613  1  0.58554950  0.18647030  0.32720838  1
  O  O614  1  0.58440192  0.18452290  0.57793332  1
  O  O615  1  0.58813493  0.18488779  0.82858177  1
  O  O616  1  0.58676835  0.51972161  0.07786480  1
  O  O617  1  0.58879085  0.51701774  0.32867066  1
  O  O618  1  0.58686874  0.51768945  0.57753243  1
  O  O619  1  0.58873354  0.51860500  0.82659435  1
  O  O620  1  0.59012021  0.85063978  0.07835804  1
  O  O621  1  0.58949266  0.85125570  0.32686444  1
  O  O622  1  0.58651755  0.85271780  0.57635993  1
  O  O623  1  0.58817834  0.85116570  0.82855232  1
  O  O624  1  0.33744287  0.18345167  0.04667188  1
  O  O625  1  0.33639258  0.18483741  0.29785697  1
  O  O626  1  0.34027058  0.18648639  0.54790096  1
  O  O627  1  0.33732802  0.18514546  0.79648480  1
  O  O628  1  0.33700436  0.51869456  0.04848521  1
  O  O629  1  0.33625450  0.51956937  0.29708135  1
  O  O630  1  0.33712005  0.51811238  0.54804302  1
  O  O631  1  0.33611690  0.51745359  0.79682214  1
  O  O632  1  0.33775366  0.85262823  0.04780281  1
  O  O633  1  0.33538458  0.85011867  0.29745394  1
  O  O634  1  0.33804209  0.85135561  0.54825761  1
  O  O635  1  0.33627467  0.85187952  0.79745719  1
  O  O636  1  0.83601062  0.18614256  0.04734577  1
  O  O637  1  0.83642538  0.18366725  0.29717769  1
  O  O638  1  0.83651190  0.18509400  0.54820265  1
  O  O639  1  0.83645287  0.18473281  0.79785775  1
  O  O640  1  0.83691199  0.51659286  0.04695763  1
  O  O641  1  0.83748364  0.51940550  0.29900431  1
  O  O642  1  0.83788427  0.51931325  0.54857359  1
  O  O643  1  0.83657736  0.51792344  0.79700609  1
  O  O644  1  0.83742394  0.85180323  0.04744735  1
  O  O645  1  0.83695753  0.85143836  0.29641258  1
  O  O646  1  0.83593339  0.85022539  0.54747712  1
  O  O647  1  0.83843220  0.85196080  0.79832441  1
  O  O648  1  0.16280692  0.14841490  0.20297927  1
  O  O649  1  0.16246218  0.14835877  0.45289034  1
  O  O650  1  0.16296659  0.14871381  0.70217366  1
  O  O651  1  0.16329522  0.14780648  0.95098641  1
  O  O652  1  0.16122554  0.48178085  0.20237333  1
  O  O653  1  0.16381497  0.48297123  0.45311631  1
  O  O654  1  0.16329454  0.48145542  0.70161246  1
  O  O655  1  0.16223912  0.48277090  0.95345825  1
  O  O656  1  0.16183917  0.81543085  0.20247773  1
  O  O657  1  0.15990658  0.81300118  0.45195802  1
  O  O658  1  0.16132769  0.81516502  0.70195822  1
  O  O659  1  0.16180597  0.81445554  0.95299416  1
  O  O660  1  0.66249674  0.14741149  0.20156728  1
  O  O661  1  0.66109093  0.14741462  0.45306109  1
  O  O662  1  0.66087115  0.14812119  0.70197909  1
  O  O663  1  0.66064168  0.14854196  0.95265676  1
  O  O664  1  0.66208562  0.48332881  0.20412015  1
  O  O665  1  0.66060229  0.48307869  0.45359514  1
  O  O666  1  0.66055162  0.48281094  0.70186736  1
  O  O667  1  0.66249286  0.48093114  0.95129441  1
  O  O668  1  0.66330160  0.81396526  0.20187492  1
  O  O669  1  0.66399452  0.81488847  0.45266780  1
  O  O670  1  0.66181514  0.81423166  0.70269218  1
  O  O671  1  0.66169828  0.81586697  0.95285672  1
