# generated using pymatgen
data_Na2MnFe(PO4)2
_symmetry_space_group_name_H-M   'P 1'
_cell_length_a   21.08105952
_cell_length_b   18.93342573
_cell_length_c   20.04052275
_cell_angle_alpha   89.99998359
_cell_angle_beta   89.99832624
_cell_angle_gamma   89.99786136
_symmetry_Int_Tables_number   1
_chemical_formula_structural   Na2MnFe(PO4)2
_chemical_formula_sum   'Na96 Mn48 Fe48 P96 O384'
_cell_volume   7998.90759731
_cell_formula_units_Z   48
loop_
 _symmetry_equiv_pos_site_id
 _symmetry_equiv_pos_as_xyz
  1  'x, y, z'
loop_
 _atom_site_type_symbol
 _atom_site_label
 _atom_site_symmetry_multiplicity
 _atom_site_fract_x
 _atom_site_fract_y
 _atom_site_fract_z
 _atom_site_occupancy
  Na  Na0  1  -0.00275343  -0.00022439  0.00071230  1
  Na  Na1  1  -0.00327760  0.00009312  0.24983356  1
  Na  Na2  1  -0.00039373  0.00052674  0.49888021  1
  Na  Na3  1  0.00008637  0.00065426  0.74944956  1
  Na  Na4  1  -0.00029885  0.33341675  -0.00052739  1
  Na  Na5  1  0.00017116  0.33351858  0.24993103  1
  Na  Na6  1  -0.00047165  0.33337753  0.50012036  1
  Na  Na7  1  -0.00169264  0.33273716  0.75078547  1
  Na  Na8  1  0.00245783  0.66698947  -0.00034462  1
  Na  Na9  1  0.00188165  0.66685814  0.24934856  1
  Na  Na10  1  0.00021190  0.66617186  0.50020274  1
  Na  Na11  1  0.00206372  0.66738692  0.75080572  1
  Na  Na12  1  0.49955240  0.00021526  0.00042381  1
  Na  Na13  1  0.49917669  0.00011751  0.25066373  1
  Na  Na14  1  0.50038285  0.00071731  0.49961034  1
  Na  Na15  1  0.50050223  0.00042227  0.74958530  1
  Na  Na16  1  0.50127761  0.33347277  -0.00001667  1
  Na  Na17  1  0.49989710  0.33315998  0.25014352  1
  Na  Na18  1  0.49939858  0.33341730  0.49985660  1
  Na  Na19  1  0.49870356  0.33259294  0.75013376  1
  Na  Na20  1  0.50107835  0.66667717  -0.00071750  1
  Na  Na21  1  0.50160371  0.66698534  0.25081036  1
  Na  Na22  1  0.50238947  0.66703597  0.50026596  1
  Na  Na23  1  0.50081260  0.66621290  0.75048716  1
  Na  Na24  1  0.25282869  0.00080141  0.12501688  1
  Na  Na25  1  0.24953297  0.00036224  0.37441884  1
  Na  Na26  1  0.24856152  0.00062198  0.62569359  1
  Na  Na27  1  0.25062194  0.00063516  0.87520516  1
  Na  Na28  1  0.25145077  0.33360258  0.12564159  1
  Na  Na29  1  0.25015706  0.33296235  0.37364799  1
  Na  Na30  1  0.24991132  0.33367841  0.62537820  1
  Na  Na31  1  0.24850730  0.33256163  0.87534446  1
  Na  Na32  1  0.24875020  0.66570226  0.12472427  1
  Na  Na33  1  0.24888378  0.66604706  0.37422681  1
  Na  Na34  1  0.24866141  0.66644018  0.62535961  1
  Na  Na35  1  0.24752895  0.66586325  0.87490851  1
  Na  Na36  1  0.75063691  0.00059517  0.12420728  1
  Na  Na37  1  0.75218001  0.00100869  0.37481520  1
  Na  Na38  1  0.74989546  -0.00057765  0.62560267  1
  Na  Na39  1  0.75064736  0.00043844  0.87482318  1
  Na  Na40  1  0.74849881  0.33285464  0.12428008  1
  Na  Na41  1  0.74935878  0.33236048  0.37433286  1
  Na  Na42  1  0.75428335  0.33498377  0.62568967  1
  Na  Na43  1  0.74916611  0.33280377  0.87511962  1
  Na  Na44  1  0.74808962  0.66657194  0.12507123  1
  Na  Na45  1  0.74736981  0.66558930  0.37461641  1
  Na  Na46  1  0.75094484  0.66716339  0.62461482  1
  Na  Na47  1  0.74917366  0.66651989  0.87659773  1
  Na  Na48  1  -0.00041375  0.16642948  0.00012404  1
  Na  Na49  1  -0.00136804  0.16701606  0.24994696  1
  Na  Na50  1  0.00035912  0.16627591  0.49878675  1
  Na  Na51  1  0.00154537  0.16602459  0.75043318  1
  Na  Na52  1  0.00104391  0.49925608  0.00034864  1
  Na  Na53  1  0.00083157  0.49929466  0.24828252  1
  Na  Na54  1  0.00047763  0.49955502  0.50081350  1
  Na  Na55  1  -0.00011915  0.49978205  0.75036155  1
  Na  Na56  1  -0.00050191  0.83340981  -0.00024623  1
  Na  Na57  1  -0.00234200  0.83500407  0.25057218  1
  Na  Na58  1  -0.00107953  0.83405084  0.49977488  1
  Na  Na59  1  -0.00229079  0.83481935  0.75000290  1
  Na  Na60  1  0.50088655  0.16644302  0.00064362  1
  Na  Na61  1  0.49962835  0.16627007  0.24982144  1
  Na  Na62  1  0.49983116  0.16613211  0.49942977  1
  Na  Na63  1  0.50193168  0.16542281  0.75016457  1
  Na  Na64  1  0.50119134  0.49883993  -0.00075697  1
  Na  Na65  1  0.49916487  0.50006126  0.25114772  1
  Na  Na66  1  0.49883471  0.49957244  0.50009995  1
  Na  Na67  1  0.49990823  0.49938899  0.74961727  1
  Na  Na68  1  0.50054068  0.83388822  -0.00001726  1
  Na  Na69  1  0.50170512  0.83363824  0.25041899  1
  Na  Na70  1  0.50343868  0.83291597  0.50013482  1
  Na  Na71  1  0.49903259  0.83492035  0.75058995  1
  Na  Na72  1  0.25149507  0.16575172  0.12567932  1
  Na  Na73  1  0.24853456  0.16653584  0.37409910  1
  Na  Na74  1  0.24751241  0.16639010  0.62527702  1
  Na  Na75  1  0.24897862  0.16649015  0.87453773  1
  Na  Na76  1  0.25033182  0.49978849  0.12545627  1
  Na  Na77  1  0.25009928  0.49976198  0.37422907  1
  Na  Na78  1  0.25062057  0.49884557  0.62509215  1
  Na  Na79  1  0.24775236  0.50035777  0.87539304  1
  Na  Na80  1  0.25214728  0.83333245  0.12435295  1
  Na  Na81  1  0.24983867  0.83439667  0.37395038  1
  Na  Na82  1  0.24929721  0.83408920  0.62622397  1
  Na  Na83  1  0.25064785  0.83359641  0.87545614  1
  Na  Na84  1  0.74907868  0.16680553  0.12422762  1
  Na  Na85  1  0.75030715  0.16628647  0.37511869  1
  Na  Na86  1  0.75102134  0.16606672  0.62578689  1
  Na  Na87  1  0.74867004  0.16679692  0.87449726  1
  Na  Na88  1  0.74795521  0.49974544  0.12473659  1
  Na  Na89  1  0.75024861  0.49909170  0.37437621  1
  Na  Na90  1  0.75032284  0.50008566  0.62581734  1
  Na  Na91  1  0.75000867  0.49881302  0.87571318  1
  Na  Na92  1  0.74885067  0.83451916  0.12486146  1
  Na  Na93  1  0.74980680  0.83429617  0.37410971  1
  Na  Na94  1  0.75269961  0.83355150  0.62460538  1
  Na  Na95  1  0.75160819  0.83336152  0.87594932  1
  Mn  Mn96  1  0.39210919  0.58354957  0.87739694  1
  Mn  Mn97  1  0.14153367  0.91628535  0.74831727  1
  Mn  Mn98  1  0.85740048  0.74955452  0.00298555  1
  Mn  Mn99  1  0.39245824  0.91615835  0.37815531  1
  Mn  Mn100  1  0.85716650  0.74978584  0.25209019  1
  Mn  Mn101  1  0.64267368  0.91778924  0.24757608  1
  Mn  Mn102  1  0.64296792  0.58369569  0.74778339  1
  Mn  Mn103  1  0.10707583  0.08330881  0.12277694  1
  Mn  Mn104  1  0.89213048  0.58329818  0.12682758  1
  Mn  Mn105  1  0.60787856  0.41642042  0.37348813  1
  Mn  Mn106  1  0.85831844  0.08333098  0.75236060  1
  Mn  Mn107  1  0.89304614  0.58382575  0.87799714  1
  Mn  Mn108  1  0.60802291  0.41580419  0.62262984  1
  Mn  Mn109  1  0.64258815  0.25025291  0.74721746  1
  Mn  Mn110  1  0.14239866  0.91731416  0.99789552  1
  Mn  Mn111  1  0.35757621  0.08384080  0.75210881  1
  Mn  Mn112  1  0.89189867  0.58343313  0.62783552  1
  Mn  Mn113  1  0.10739594  0.41595858  0.62277472  1
  Mn  Mn114  1  0.64116552  0.58229271  0.24698313  1
  Mn  Mn115  1  0.14244306  0.25005978  0.24700397  1
  Mn  Mn116  1  0.89209472  0.25051963  0.37712307  1
  Mn  Mn117  1  0.60926520  0.75049765  0.62312435  1
  Mn  Mn118  1  0.89251691  0.58341773  0.37667205  1
  Mn  Mn119  1  0.10794486  0.75002961  0.37227867  1
  Mn  Mn120  1  0.35805368  0.75065078  0.50274123  1
  Mn  Mn121  1  0.35891575  0.74984564  0.25204033  1
  Mn  Mn122  1  0.10793502  0.75109222  0.12283581  1
  Mn  Mn123  1  0.64295179  0.91615278  0.74816579  1
  Mn  Mn124  1  0.39225966  0.58411110  0.37768248  1
  Mn  Mn125  1  0.39178812  0.24972528  0.37758514  1
  Mn  Mn126  1  0.39133636  0.24941182  0.62661585  1
  Mn  Mn127  1  0.14201666  0.58311234  0.49725321  1
  Mn  Mn128  1  0.10738916  0.75124635  0.62242559  1
  Mn  Mn129  1  0.60816890  0.75049197  0.87221415  1
  Mn  Mn130  1  0.35778314  0.74997872  0.00242961  1
  Mn  Mn131  1  0.35759528  0.74939639  0.75236065  1
  Mn  Mn132  1  0.14149250  0.25060781  0.74773742  1
  Mn  Mn133  1  0.89238239  0.24949901  0.87796588  1
  Mn  Mn134  1  0.85756997  0.74959852  0.50177240  1
  Mn  Mn135  1  0.10793550  0.41583206  0.12240330  1
  Mn  Mn136  1  0.39220268  0.58382033  0.62706507  1
  Mn  Mn137  1  0.39240975  0.24937383  0.87760869  1
  Mn  Mn138  1  0.60824433  0.08339427  0.37302164  1
  Mn  Mn139  1  0.39242809  0.91669462  0.62626262  1
  Mn  Mn140  1  0.85712372  0.41623223  0.25192241  1
  Mn  Mn141  1  0.64329750  0.25012385  0.49839268  1
  Mn  Mn142  1  0.14220667  0.91637049  0.24722295  1
  Mn  Mn143  1  0.35770815  0.41615045  0.00205373  1
  Fe  Fe144  1  0.35644533  0.41587498  0.50147779  1
  Fe  Fe145  1  0.39396426  0.91664763  0.12638637  1
  Fe  Fe146  1  0.60830927  0.75021886  0.37362680  1
  Fe  Fe147  1  0.14171989  0.91721677  0.49808279  1
  Fe  Fe148  1  0.64259386  0.91746708  0.99800772  1
  Fe  Fe149  1  0.60718105  0.08325157  0.12305333  1
  Fe  Fe150  1  0.89146121  0.91693590  0.12645462  1
  Fe  Fe151  1  0.60725362  0.08332004  0.87377237  1
  Fe  Fe152  1  0.60649421  0.41653655  0.12317944  1
  Fe  Fe153  1  0.60755667  0.41607887  0.87277933  1
  Fe  Fe154  1  0.14270268  0.58270617  0.99827054  1
  Fe  Fe155  1  0.64228346  0.24986334  0.99858192  1
  Fe  Fe156  1  0.89285810  0.91730832  0.62641249  1
  Fe  Fe157  1  0.89282167  0.91680069  0.87693881  1
  Fe  Fe158  1  0.85657721  0.08412340  0.00157177  1
  Fe  Fe159  1  0.64208649  0.24943501  0.24785886  1
  Fe  Fe160  1  0.39281406  0.91718402  0.87687741  1
  Fe  Fe161  1  0.85634459  0.41622909  0.00162756  1
  Fe  Fe162  1  0.89323297  0.24943470  0.62619401  1
  Fe  Fe163  1  0.10714336  0.08291420  0.87462693  1
  Fe  Fe164  1  0.10642729  0.08335143  0.37275864  1
  Fe  Fe165  1  0.10701961  0.41650738  0.87342546  1
  Fe  Fe166  1  0.85819353  0.41655850  0.50137929  1
  Fe  Fe167  1  0.14256507  0.58296290  0.74847429  1
  Fe  Fe168  1  0.10720734  0.75070683  0.87325409  1
  Fe  Fe169  1  0.39331725  0.24995970  0.12616407  1
  Fe  Fe170  1  0.35572448  0.08357766  0.50169635  1
  Fe  Fe171  1  0.60711927  0.75008680  0.12331637  1
  Fe  Fe172  1  0.35784785  0.08353437  0.25189357  1
  Fe  Fe173  1  0.35779300  0.41659946  0.25149752  1
  Fe  Fe174  1  0.64405991  0.91676707  0.49858721  1
  Fe  Fe175  1  0.10790094  0.41626819  0.37338649  1
  Fe  Fe176  1  0.60781290  0.08336934  0.62263193  1
  Fe  Fe177  1  0.10676178  0.08322278  0.62251858  1
  Fe  Fe178  1  0.35798485  0.08393844  0.00158035  1
  Fe  Fe179  1  0.14259721  0.24975120  0.99932769  1
  Fe  Fe180  1  0.89143302  0.24978471  0.12608355  1
  Fe  Fe181  1  0.14189694  0.24981267  0.49819118  1
  Fe  Fe182  1  0.35680667  0.41681039  0.75198337  1
  Fe  Fe183  1  0.64299830  0.58313781  0.49889486  1
  Fe  Fe184  1  0.89271365  0.91672835  0.37712915  1
  Fe  Fe185  1  0.39284121  0.58326524  0.12599636  1
  Fe  Fe186  1  0.85764530  0.41747008  0.75276996  1
  Fe  Fe187  1  0.85791696  0.08390330  0.50207133  1
  Fe  Fe188  1  0.85852023  0.74922773  0.75240011  1
  Fe  Fe189  1  0.64169832  0.58289171  0.99852905  1
  Fe  Fe190  1  0.85652887  0.08408265  0.25120249  1
  Fe  Fe191  1  0.14327317  0.58317404  0.24824660  1
  P  P192  1  0.05203388  0.24960196  0.10927899  1
  P  P193  1  0.05472455  0.25002263  0.36088894  1
  P  P194  1  0.05265538  0.24940507  0.60932999  1
  P  P195  1  0.05473869  0.24978008  0.86195516  1
  P  P196  1  0.05532593  0.58318405  0.11021750  1
  P  P197  1  0.05425463  0.58183454  0.35883397  1
  P  P198  1  0.05418216  0.58319338  0.61127618  1
  P  P199  1  0.05568553  0.58284427  0.86101829  1
  P  P200  1  0.05126799  0.91738249  0.11002288  1
  P  P201  1  0.05317489  0.91803311  0.36074458  1
  P  P202  1  0.05230823  0.91768455  0.60928612  1
  P  P203  1  0.05208497  0.91724459  0.86058092  1
  P  P204  1  0.55396729  0.24970387  0.11095736  1
  P  P205  1  0.55412337  0.24973203  0.35937107  1
  P  P206  1  0.55311308  0.24913948  0.60959616  1
  P  P207  1  0.55513721  0.24961073  0.86134729  1
  P  P208  1  0.55229702  0.58281392  0.10955352  1
  P  P209  1  0.55509019  0.58358130  0.36163543  1
  P  P210  1  0.55434887  0.58276587  0.60944372  1
  P  P211  1  0.55484268  0.58213723  0.86081636  1
  P  P212  1  0.55342958  0.91744458  0.10985306  1
  P  P213  1  0.55536984  0.91657882  0.36136718  1
  P  P214  1  0.55482449  0.91775917  0.60933950  1
  P  P215  1  0.55364030  0.91808858  0.86128277  1
  P  P216  1  0.44627530  0.08354552  0.13910561  1
  P  P217  1  0.44486816  0.08328385  0.38998057  1
  P  P218  1  0.44656867  0.08326386  0.63871214  1
  P  P219  1  0.44728306  0.08303309  0.89062574  1
  P  P220  1  0.44715027  0.41646206  0.13995999  1
  P  P221  1  0.44475103  0.41649475  0.38983569  1
  P  P222  1  0.44440241  0.41622014  0.63962158  1
  P  P223  1  0.44679669  0.41632135  0.88895585  1
  P  P224  1  0.44831109  0.74985089  0.13959539  1
  P  P225  1  0.44865963  0.75022982  0.39069440  1
  P  P226  1  0.44771457  0.75034018  0.64048885  1
  P  P227  1  0.44679697  0.75079147  0.89010217  1
  P  P228  1  0.94376027  0.08414164  0.13909601  1
  P  P229  1  0.94518265  0.08329315  0.38891933  1
  P  P230  1  0.94665112  0.08378624  0.63845277  1
  P  P231  1  0.94695648  0.08265314  0.89074254  1
  P  P232  1  0.94486758  0.41537245  0.13840081  1
  P  P233  1  0.94775160  0.41691885  0.39014169  1
  P  P234  1  0.94469254  0.41568037  0.63979603  1
  P  P235  1  0.94602124  0.41693675  0.89000818  1
  P  P236  1  0.94644919  0.75051641  0.14004216  1
  P  P237  1  0.94681933  0.75030657  0.38977185  1
  P  P238  1  0.94588284  0.75071821  0.64053796  1
  P  P239  1  0.94686536  0.75053911  0.88929218  1
  P  P240  1  0.19663067  0.08304090  0.23561817  1
  P  P241  1  0.19467302  0.08334436  0.48528895  1
  P  P242  1  0.19395155  0.08317877  0.73567888  1
  P  P243  1  0.19758276  0.08417833  0.98517152  1
  P  P244  1  0.19680887  0.41710477  0.23591004  1
  P  P245  1  0.19689845  0.41542598  0.48428222  1
  P  P246  1  0.19600810  0.41724853  0.73627593  1
  P  P247  1  0.19601849  0.41587998  0.98492887  1
  P  P248  1  0.19723354  0.74958809  0.23449275  1
  P  P249  1  0.19685526  0.75146594  0.48469682  1
  P  P250  1  0.19490802  0.74950011  0.73634486  1
  P  P251  1  0.19594037  0.74979747  0.98451572  1
  P  P252  1  0.69688366  0.08404495  0.23405905  1
  P  P253  1  0.69756309  0.08276369  0.48631694  1
  P  P254  1  0.69518987  0.08302077  0.73556808  1
  P  P255  1  0.69558038  0.08341727  0.98572061  1
  P  P256  1  0.69527679  0.41516296  0.23404485  1
  P  P257  1  0.69863636  0.41687078  0.48530753  1
  P  P258  1  0.69715074  0.41661010  0.73611623  1
  P  P259  1  0.69494660  0.41615041  0.98592478  1
  P  P260  1  0.69463877  0.75039605  0.23501796  1
  P  P261  1  0.69655963  0.75056947  0.48447203  1
  P  P262  1  0.69936602  0.75043297  0.73515882  1
  P  P263  1  0.69465071  0.75051114  0.98663262  1
  P  P264  1  0.30292710  0.24907510  0.01560314  1
  P  P265  1  0.30545856  0.24982787  0.26325972  1
  P  P266  1  0.30113126  0.24923887  0.51453751  1
  P  P267  1  0.30311080  0.25059294  0.76509533  1
  P  P268  1  0.30252079  0.58304196  0.01539673  1
  P  P269  1  0.30442973  0.58270759  0.26348111  1
  P  P270  1  0.30292364  0.58269884  0.51498846  1
  P  P271  1  0.30216059  0.58240014  0.76517428  1
  P  P272  1  0.30561064  0.91792051  0.01441027  1
  P  P273  1  0.30554576  0.91737521  0.26362035  1
  P  P274  1  0.30130906  0.91811995  0.51504368  1
  P  P275  1  0.30398305  0.91705650  0.76582606  1
  P  P276  1  0.80225251  0.24988528  0.01483366  1
  P  P277  1  0.80271669  0.24911784  0.26341645  1
  P  P278  1  0.80464557  0.24982521  0.51556621  1
  P  P279  1  0.80521989  0.25038765  0.76414375  1
  P  P280  1  0.80159207  0.58227795  0.01500196  1
  P  P281  1  0.80259955  0.58304807  0.26473908  1
  P  P282  1  0.80241597  0.58252193  0.51465208  1
  P  P283  1  0.80391595  0.58357841  0.76596643  1
  P  P284  1  0.80377631  0.91768073  0.01400429  1
  P  P285  1  0.80537442  0.91790656  0.26412537  1
  P  P286  1  0.80478200  0.91766567  0.51418496  1
  P  P287  1  0.80595269  0.91612292  0.76482603  1
  O  O288  1  0.05619385  0.24978134  0.18603322  1
  O  O289  1  0.05848376  0.25018290  0.43763296  1
  O  O290  1  0.05592907  0.25037110  0.68612679  1
  O  O291  1  0.05866020  0.24987014  0.93865442  1
  O  O292  1  0.05975649  0.58287081  0.18697648  1
  O  O293  1  0.05675854  0.58258127  0.43573895  1
  O  O294  1  0.05849912  0.58283204  0.68803174  1
  O  O295  1  0.05932970  0.58261470  0.93787785  1
  O  O296  1  0.05542595  0.91761099  0.18671751  1
  O  O297  1  0.05790344  0.91733077  0.43739965  1
  O  O298  1  0.05593456  0.91695323  0.68598920  1
  O  O299  1  0.05567688  0.91711712  0.93725754  1
  O  O300  1  0.55803617  0.24936822  0.18765161  1
  O  O301  1  0.55782588  0.24968876  0.43613324  1
  O  O302  1  0.55637736  0.24994121  0.68639932  1
  O  O303  1  0.55893040  0.24993507  0.93816747  1
  O  O304  1  0.55529998  0.58270040  0.18634497  1
  O  O305  1  0.55956275  0.58244426  0.43836355  1
  O  O306  1  0.55745281  0.58260313  0.68630170  1
  O  O307  1  0.55889408  0.58257530  0.93761814  1
  O  O308  1  0.55673391  0.91796618  0.18658488  1
  O  O309  1  0.55999698  0.91763571  0.43804889  1
  O  O310  1  0.55737240  0.91698755  0.68618751  1
  O  O311  1  0.55848481  0.91743660  0.93793708  1
  O  O312  1  0.44186990  0.08402183  0.06240231  1
  O  O313  1  0.44077037  0.08337462  0.31316355  1
  O  O314  1  0.44077025  0.08360016  0.56211305  1
  O  O315  1  0.44365174  0.08376108  0.81389658  1
  O  O316  1  0.44389023  0.41625710  0.06318504  1
  O  O317  1  0.44070087  0.41643893  0.31303216  1
  O  O318  1  0.43958760  0.41588349  0.56281241  1
  O  O319  1  0.44142697  0.41651020  0.81232588  1
  O  O320  1  0.44454755  0.74975565  0.06292500  1
  O  O321  1  0.44451671  0.75036463  0.31396718  1
  O  O322  1  0.44438242  0.75028891  0.56368652  1
  O  O323  1  0.44354284  0.74996823  0.81332385  1
  O  O324  1  0.93977226  0.08427479  0.06230210  1
  O  O325  1  0.94050850  0.08421631  0.31224960  1
  O  O326  1  0.94233953  0.08376747  0.56177205  1
  O  O327  1  0.94389013  0.08369568  0.81394845  1
  O  O328  1  0.94024085  0.41614411  0.06166103  1
  O  O329  1  0.94352883  0.41669989  0.31340686  1
  O  O330  1  0.94086184  0.41700144  0.56296371  1
  O  O331  1  0.94126371  0.41700915  0.81326335  1
  O  O332  1  0.94361364  0.74947083  0.06316937  1
  O  O333  1  0.94352343  0.74966323  0.31302506  1
  O  O334  1  0.94283122  0.74941120  0.56372236  1
  O  O335  1  0.94236143  0.74956147  0.81261920  1
  O  O336  1  0.19380225  0.08308994  0.06189464  1
  O  O337  1  0.19106086  0.08296171  0.31221671  1
  O  O338  1  0.19027082  0.08321639  0.56210827  1
  O  O339  1  0.18965973  0.08291343  0.81244660  1
  O  O340  1  0.19381850  0.41586350  0.06178674  1
  O  O341  1  0.19210075  0.41627214  0.31252762  1
  O  O342  1  0.19316721  0.41589626  0.56103983  1
  O  O343  1  0.19119898  0.41625405  0.81291289  1
  O  O344  1  0.19334053  0.75100592  0.06133640  1
  O  O345  1  0.19376731  0.75064345  0.31127174  1
  O  O346  1  0.19373274  0.75116336  0.56154008  1
  O  O347  1  0.19063627  0.75090522  0.81310942  1
  O  O348  1  0.69099386  0.08312716  0.06242306  1
  O  O349  1  0.69370278  0.08332105  0.31080819  1
  O  O350  1  0.69282970  0.08323443  0.56297832  1
  O  O351  1  0.69087418  0.08305189  0.81233427  1
  O  O352  1  0.69005786  0.41633230  0.06262326  1
  O  O353  1  0.69274468  0.41596183  0.31084547  1
  O  O354  1  0.69504425  0.41639583  0.56201036  1
  O  O355  1  0.69196646  0.41594578  0.81277916  1
  O  O356  1  0.69031188  0.75061679  0.06343534  1
  O  O357  1  0.69102393  0.75043522  0.31181593  1
  O  O358  1  0.69459476  0.75081911  0.56133624  1
  O  O359  1  0.69499459  0.75081723  0.81188101  1
  O  O360  1  0.30994362  0.24979746  0.18652543  1
  O  O361  1  0.30479524  0.24909382  0.43783707  1
  O  O362  1  0.30594723  0.24958691  0.68832054  1
  O  O363  1  0.30632712  0.24952679  0.93886364  1
  O  O364  1  0.30946107  0.58348434  0.18678547  1
  O  O365  1  0.30593820  0.58364851  0.43815983  1
  O  O366  1  0.30595125  0.58315500  0.68848257  1
  O  O367  1  0.30633752  0.58319466  0.93868978  1
  O  O368  1  0.31044711  0.91655918  0.18686106  1
  O  O369  1  0.30541600  0.91729530  0.43832220  1
  O  O370  1  0.30711709  0.91730559  0.68902387  1
  O  O371  1  0.30956910  0.91720042  0.93763007  1
  O  O372  1  0.80707187  0.24991219  0.18679590  1
  O  O373  1  0.80665800  0.24955524  0.43864119  1
  O  O374  1  0.80958450  0.24940609  0.68745408  1
  O  O375  1  0.80607142  0.24974986  0.93812742  1
  O  O376  1  0.80608496  0.58335444  0.18798756  1
  O  O377  1  0.80588253  0.58292133  0.43795666  1
  O  O378  1  0.80642919  0.58372223  0.68913295  1
  O  O379  1  0.80608139  0.58289817  0.93836762  1
  O  O380  1  0.80875828  0.91688534  0.18725967  1
  O  O381  1  0.80904258  0.91726131  0.43739409  1
  O  O382  1  0.80992492  0.91726913  0.68800502  1
  O  O383  1  0.80877676  0.91690726  0.93730513  1
  O  O384  1  0.23292392  0.24970447  0.04052707  1
  O  O385  1  0.23534908  0.24978501  0.28719447  1
  O  O386  1  0.23116859  0.24948840  0.53953498  1
  O  O387  1  0.23341331  0.25005450  0.79010862  1
  O  O388  1  0.23227613  0.58265718  0.03938611  1
  O  O389  1  0.23408660  0.58284570  0.28720800  1
  O  O390  1  0.23326368  0.58260031  0.54028014  1
  O  O391  1  0.23216124  0.58281991  0.78979287  1
  O  O392  1  0.23550235  0.91728993  0.03864398  1
  O  O393  1  0.23536824  0.91721063  0.28733159  1
  O  O394  1  0.23131065  0.91795313  0.53971128  1
  O  O395  1  0.23411811  0.91700905  0.79056825  1
  O  O396  1  0.73195871  0.24990429  0.03887012  1
  O  O397  1  0.73259014  0.24920862  0.28778895  1
  O  O398  1  0.73522516  0.25025288  0.54159251  1
  O  O399  1  0.73518728  0.24990411  0.78825142  1
  O  O400  1  0.73133893  0.58282007  0.03904068  1
  O  O401  1  0.73279080  0.58224655  0.28928982  1
  O  O402  1  0.73250406  0.58351602  0.53981225  1
  O  O403  1  0.73442339  0.58300231  0.79164504  1
  O  O404  1  0.73327289  0.91751390  0.03743890  1
  O  O405  1  0.73538615  0.91765399  0.28843029  1
  O  O406  1  0.73453401  0.91660855  0.53825676  1
  O  O407  1  0.73592245  0.91680501  0.78909421  1
  O  O408  1  0.26714084  0.08333557  0.21255489  1
  O  O409  1  0.26497394  0.08348649  0.46123253  1
  O  O410  1  0.26414315  0.08357524  0.71193602  1
  O  O411  1  0.26768917  0.08381834  0.96064025  1
  O  O412  1  0.26713325  0.41666084  0.21200072  1
  O  O413  1  0.26702758  0.41603356  0.45981031  1
  O  O414  1  0.26620922  0.41664762  0.71224526  1
  O  O415  1  0.26567265  0.41620171  0.95944343  1
  O  O416  1  0.26694483  0.74948557  0.20947631  1
  O  O417  1  0.26643107  0.75068471  0.45909448  1
  O  O418  1  0.26487027  0.74992274  0.71198384  1
  O  O419  1  0.26567123  0.74990039  0.95935378  1
  O  O420  1  0.76685536  0.08371179  0.20933174  1
  O  O421  1  0.76782398  0.08369683  0.46229302  1
  O  O422  1  0.76545064  0.08310957  0.71201526  1
  O  O423  1  0.76604920  0.08374886  0.96188638  1
  O  O424  1  0.76493850  0.41619033  0.20881737  1
  O  O425  1  0.76856531  0.41577065  0.46016069  1
  O  O426  1  0.76759049  0.41727441  0.71292901  1
  O  O427  1  0.76552126  0.41565707  0.96244448  1
  O  O428  1  0.76457672  0.75062051  0.21056989  1
  O  O429  1  0.76606778  0.75023167  0.45849898  1
  O  O430  1  0.76931921  0.75026191  0.71068836  1
  O  O431  1  0.76480107  0.75022177  0.96260997  1
  O  O432  1  0.01380693  0.08387970  0.16351404  1
  O  O433  1  0.01560594  0.08363315  0.41243588  1
  O  O434  1  0.01684077  0.08353306  0.66275697  1
  O  O435  1  0.01697410  0.08295508  0.91554873  1
  O  O436  1  0.01501906  0.41567238  0.16229670  1
  O  O437  1  0.01786579  0.41636494  0.41441783  1
  O  O438  1  0.01474159  0.41611998  0.66407347  1
  O  O439  1  0.01651523  0.41657335  0.91320102  1
  O  O440  1  0.01601396  0.75108516  0.16549547  1
  O  O441  1  0.01646845  0.75020752  0.41503216  1
  O  O442  1  0.01562760  0.75096368  0.66553864  1
  O  O443  1  0.01720324  0.75018110  0.91307439  1
  O  O444  1  0.51678264  0.08335145  0.16290184  1
  O  O445  1  0.51510654  0.08353631  0.41348120  1
  O  O446  1  0.51698540  0.08297834  0.66206467  1
  O  O447  1  0.51736216  0.08347498  0.91516224  1
  O  O448  1  0.51727311  0.41646893  0.16471011  1
  O  O449  1  0.51486068  0.41622382  0.41382236  1
  O  O450  1  0.51467857  0.41609880  0.66311555  1
  O  O451  1  0.51717069  0.41598837  0.91242526  1
  O  O452  1  0.51840996  0.75016904  0.16433514  1
  O  O453  1  0.51876331  0.75011474  0.41480913  1
  O  O454  1  0.51739523  0.75058573  0.66569516  1
  O  O455  1  0.51656169  0.75059241  0.91495326  1
  O  O456  1  0.48358794  0.24978087  0.08680777  1
  O  O457  1  0.48420631  0.24956017  0.33509458  1
  O  O458  1  0.48349089  0.24944079  0.58435857  1
  O  O459  1  0.48524531  0.24926236  0.83669007  1
  O  O460  1  0.48227823  0.58270429  0.08444632  1
  O  O461  1  0.48507684  0.58350986  0.33738607  1
  O  O462  1  0.48460264  0.58309378  0.58453069  1
  O  O463  1  0.48489561  0.58278199  0.83639820  1
  O  O464  1  0.48322418  0.91732063  0.08541956  1
  O  O465  1  0.48534182  0.91695665  0.33724088  1
  O  O466  1  0.48519429  0.91713296  0.58386409  1
  O  O467  1  0.48336506  0.91783442  0.83737891  1
  O  O468  1  0.98192226  0.24956372  0.08510270  1
  O  O469  1  0.98473192  0.25007946  0.33631163  1
  O  O470  1  0.98272133  0.24967627  0.58452582  1
  O  O471  1  0.98479468  0.24961883  0.83733308  1
  O  O472  1  0.98521452  0.58309691  0.08618652  1
  O  O473  1  0.98469772  0.58286266  0.33324644  1
  O  O474  1  0.98413450  0.58303170  0.58711558  1
  O  O475  1  0.98564835  0.58328166  0.83665601  1
  O  O476  1  0.98110274  0.91712660  0.08587370  1
  O  O477  1  0.98274560  0.91789236  0.33721654  1
  O  O478  1  0.98214623  0.91731539  0.58494706  1
  O  O479  1  0.98214475  0.91761588  0.83557214  1
  O  O480  1  0.08623476  0.31439109  0.07642155  1
  O  O481  1  0.08835944  0.31512444  0.32788355  1
  O  O482  1  0.08687873  0.31423114  0.57641269  1
  O  O483  1  0.08801191  0.31506787  0.82869320  1
  O  O484  1  0.08895804  0.64824230  0.07728199  1
  O  O485  1  0.08942262  0.64650707  0.32656188  1
  O  O486  1  0.08752301  0.64838387  0.57832206  1
  O  O487  1  0.08963688  0.64785249  0.82830087  1
  O  O488  1  0.08480989  0.98241908  0.07698100  1
  O  O489  1  0.08625484  0.98324449  0.32743313  1
  O  O490  1  0.08600227  0.98279800  0.57657060  1
  O  O491  1  0.08608214  0.98233495  0.82813462  1
  O  O492  1  0.58733023  0.31484020  0.07776152  1
  O  O493  1  0.58806698  0.31476257  0.32670867  1
  O  O494  1  0.58726821  0.31419030  0.57704851  1
  O  O495  1  0.58866444  0.31470521  0.82811713  1
  O  O496  1  0.58651785  0.64783100  0.07715277  1
  O  O497  1  0.58860286  0.64878885  0.32891730  1
  O  O498  1  0.58895587  0.64778385  0.57748743  1
  O  O499  1  0.58869895  0.64728756  0.82800592  1
  O  O500  1  0.58720213  0.98247800  0.07680563  1
  O  O501  1  0.58882151  0.98155151  0.32772959  1
  O  O502  1  0.58899907  0.98293405  0.57709172  1
  O  O503  1  0.58693405  0.98325571  0.82829612  1
  O  O504  1  0.41292523  0.01838457  0.17223564  1
  O  O505  1  0.41134001  0.01836930  0.42330046  1
  O  O506  1  0.41330368  0.01822768  0.67215971  1
  O  O507  1  0.41333819  0.01803878  0.92320232  1
  O  O508  1  0.41320905  0.35136854  0.17259129  1
  O  O509  1  0.41099696  0.35150374  0.42297853  1
  O  O510  1  0.41073695  0.35131676  0.67295686  1
  O  O511  1  0.41359099  0.35127716  0.92249693  1
  O  O512  1  0.41485233  0.68456475  0.17237089  1
  O  O513  1  0.41479618  0.68526011  0.42340330  1
  O  O514  1  0.41373187  0.68510802  0.67288685  1
  O  O515  1  0.41281237  0.68571175  0.92283234  1
  O  O516  1  0.90986971  0.01913520  0.17190209  1
  O  O517  1  0.91187737  0.01822968  0.42220577  1
  O  O518  1  0.91305673  0.01876110  0.67158275  1
  O  O519  1  0.91266908  0.01766613  0.92289147  1
  O  O520  1  0.91172879  0.34995526  0.17133891  1
  O  O521  1  0.91348611  0.35203849  0.42290534  1
  O  O522  1  0.91141737  0.35017245  0.67219400  1
  O  O523  1  0.91230624  0.35202841  0.92323079  1
  O  O524  1  0.91264807  0.68527187  0.17256944  1
  O  O525  1  0.91287548  0.68520447  0.42241366  1
  O  O526  1  0.91191142  0.68578385  0.67375027  1
  O  O527  1  0.91345930  0.68575546  0.92316597  1
  O  O528  1  0.16364582  0.01809902  0.20176503  1
  O  O529  1  0.16121881  0.01826783  0.45195901  1
  O  O530  1  0.16056931  0.01816400  0.70228454  1
  O  O531  1  0.16339980  0.01938663  0.95195168  1
  O  O532  1  0.16333184  0.35219044  0.20223981  1
  O  O533  1  0.16325551  0.35024516  0.45160908  1
  O  O534  1  0.16241611  0.35238325  0.70260548  1
  O  O535  1  0.16180770  0.35064741  0.95287232  1
  O  O536  1  0.16297199  0.68437239  0.20278084  1
  O  O537  1  0.16230676  0.68636593  0.45264871  1
  O  O538  1  0.16151569  0.68410030  0.70391632  1
  O  O539  1  0.16172190  0.68450174  0.95286975  1
  O  O540  1  0.66279207  0.01919589  0.20099591  1
  O  O541  1  0.66474420  0.01747960  0.45291206  1
  O  O542  1  0.66188792  0.01796062  0.70236044  1
  O  O543  1  0.66243813  0.01832520  0.95213492  1
  O  O544  1  0.66153091  0.34976815  0.20191859  1
  O  O545  1  0.66414542  0.35205629  0.45266204  1
  O  O546  1  0.66441836  0.35158268  0.70210870  1
  O  O547  1  0.66162959  0.35102520  0.95260510  1
  O  O548  1  0.66074439  0.68536016  0.20216345  1
  O  O549  1  0.66185896  0.68552168  0.45267782  1
  O  O550  1  0.66540562  0.68538463  0.70265385  1
  O  O551  1  0.66115360  0.68532566  0.95380765  1
  O  O552  1  0.33748045  0.31391172  0.04822138  1
  O  O553  1  0.33871767  0.31507731  0.29629887  1
  O  O554  1  0.33524606  0.31427382  0.54694255  1
  O  O555  1  0.33701620  0.31581937  0.79731991  1
  O  O556  1  0.33622086  0.64808278  0.04838751  1
  O  O557  1  0.33764714  0.64770351  0.29723356  1
  O  O558  1  0.33691710  0.64776656  0.54770928  1
  O  O559  1  0.33607080  0.64736537  0.79816401  1
  O  O560  1  0.33903503  0.98323816  0.04707507  1
  O  O561  1  0.33878915  0.98261673  0.29656868  1
  O  O562  1  0.33503473  0.98343514  0.54748616  1
  O  O563  1  0.33809760  0.98211939  0.79840172  1
  O  O564  1  0.83607257  0.31479435  0.04781529  1
  O  O565  1  0.83637084  0.31396155  0.29701654  1
  O  O566  1  0.83957786  0.31474475  0.54720308  1
  O  O567  1  0.83854699  0.31564391  0.79702243  1
  O  O568  1  0.83540479  0.64727815  0.04799935  1
  O  O569  1  0.83597867  0.64830232  0.29758144  1
  O  O570  1  0.83680004  0.64738547  0.54733033  1
  O  O571  1  0.83780941  0.64890692  0.79828614  1
  O  O572  1  0.83697444  0.98293547  0.04695400  1
  O  O573  1  0.83887855  0.98333200  0.29650555  1
  O  O574  1  0.83780844  0.98291319  0.54752440  1
  O  O575  1  0.83986892  0.98103111  0.79814293  1
  O  O576  1  0.41297053  0.14859528  0.17256373  1
  O  O577  1  0.41107508  0.14816499  0.42319681  1
  O  O578  1  0.41356365  0.14830002  0.67259896  1
  O  O579  1  0.41324012  0.14787511  0.92386376  1
  O  O580  1  0.41319042  0.48157195  0.17252040  1
  O  O581  1  0.41113629  0.48144487  0.42290650  1
  O  O582  1  0.41102910  0.48136408  0.67292069  1
  O  O583  1  0.41367965  0.48132962  0.92258887  1
  O  O584  1  0.41463514  0.81504243  0.17226902  1
  O  O585  1  0.41504105  0.81528144  0.42370900  1
  O  O586  1  0.41327993  0.81536714  0.67249365  1
  O  O587  1  0.41292128  0.81600955  0.92229288  1
  O  O588  1  0.91030914  0.14941323  0.17217677  1
  O  O589  1  0.91176679  0.14818046  0.42266000  1
  O  O590  1  0.91349775  0.14890099  0.67191554  1
  O  O591  1  0.91262685  0.14740544  0.92372691  1
  O  O592  1  0.91149626  0.48035559  0.17182909  1
  O  O593  1  0.91411163  0.48198816  0.42312303  1
  O  O594  1  0.91072138  0.48043413  0.67334375  1
  O  O595  1  0.91281215  0.48188965  0.92359408  1
  O  O596  1  0.91177941  0.81558756  0.17158163  1
  O  O597  1  0.91271330  0.81555951  0.42181095  1
  O  O598  1  0.91165967  0.81602973  0.67219876  1
  O  O599  1  0.91349032  0.81581056  0.92203457  1
  O  O600  1  0.08616263  0.18467013  0.07660646  1
  O  O601  1  0.08816732  0.18470374  0.32798755  1
  O  O602  1  0.08667589  0.18432780  0.57695798  1
  O  O603  1  0.08823987  0.18452333  0.82923043  1
  O  O604  1  0.08898239  0.51817928  0.07701576  1
  O  O605  1  0.08814796  0.51636344  0.32689712  1
  O  O606  1  0.08772598  0.51821066  0.57805503  1
  O  O607  1  0.08898574  0.51749864  0.82796924  1
  O  O608  1  0.08531545  0.85255211  0.07727219  1
  O  O609  1  0.08642634  0.85301777  0.32714401  1
  O  O610  1  0.08634786  0.85290548  0.57611923  1
  O  O611  1  0.08565988  0.85207692  0.82765160  1
  O  O612  1  0.58755742  0.18476238  0.07753082  1
  O  O613  1  0.58825930  0.18480292  0.32653139  1
  O  O614  1  0.58731728  0.18398115  0.57749910  1
  O  O615  1  0.58894392  0.18434689  0.82891853  1
  O  O616  1  0.58641653  0.51770633  0.07707177  1
  O  O617  1  0.58828892  0.51846184  0.32807723  1
  O  O618  1  0.58837037  0.51771049  0.57677216  1
  O  O619  1  0.58817984  0.51685806  0.82802178  1
  O  O620  1  0.58732048  0.85239871  0.07725151  1
  O  O621  1  0.58875391  0.85133120  0.32859785  1
  O  O622  1  0.58974193  0.85298927  0.57710587  1
  O  O623  1  0.58709562  0.85313667  0.82761802  1
  O  O624  1  0.33702122  0.18400085  0.04805712  1
  O  O625  1  0.33869153  0.18467504  0.29654794  1
  O  O626  1  0.33480872  0.18403381  0.54741009  1
  O  O627  1  0.33738581  0.18566342  0.79777084  1
  O  O628  1  0.33659509  0.51812119  0.04811932  1
  O  O629  1  0.33765755  0.51749624  0.29648402  1
  O  O630  1  0.33697467  0.51733834  0.54674224  1
  O  O631  1  0.33582578  0.51718712  0.79782620  1
  O  O632  1  0.33968905  0.85311288  0.04770727  1
  O  O633  1  0.33888264  0.85230797  0.29717462  1
  O  O634  1  0.33542117  0.85320613  0.54791889  1
  O  O635  1  0.33829186  0.85212218  0.79828626  1
  O  O636  1  0.83596536  0.18484286  0.04772075  1
  O  O637  1  0.83628562  0.18400087  0.29641869  1
  O  O638  1  0.83892890  0.18466306  0.54785460  1
  O  O639  1  0.83869872  0.18534415  0.79760430  1
  O  O640  1  0.83497600  0.51702189  0.04764399  1
  O  O641  1  0.83700138  0.51813266  0.29707766  1
  O  O642  1  0.83599758  0.51729979  0.54724973  1
  O  O643  1  0.83852166  0.51856226  0.79799156  1
  O  O644  1  0.83713099  0.85283758  0.04786499  1
  O  O645  1  0.83933854  0.85319287  0.29755244  1
  O  O646  1  0.83887811  0.85289737  0.54725644  1
  O  O647  1  0.83941350  0.85089022  0.79762329  1
  O  O648  1  0.16337684  0.14807341  0.20214150  1
  O  O649  1  0.16111817  0.14844548  0.45217754  1
  O  O650  1  0.16011466  0.14806292  0.70246911  1
  O  O651  1  0.16366151  0.14941705  0.95294728  1
  O  O652  1  0.16353504  0.48222112  0.20284774  1
  O  O653  1  0.16272024  0.48028246  0.45136893  1
  O  O654  1  0.16281972  0.48244687  0.70317305  1
  O  O655  1  0.16143316  0.48081067  0.95276773  1
  O  O656  1  0.16340464  0.81475812  0.20163989  1
  O  O657  1  0.16295598  0.81677673  0.45244525  1
  O  O658  1  0.16125156  0.81446115  0.70295428  1
  O  O659  1  0.16152349  0.81475080  0.95184098  1
  O  O660  1  0.66265723  0.14896458  0.20155658  1
  O  O661  1  0.66375578  0.14759940  0.45294489  1
  O  O662  1  0.66155985  0.14787172  0.70212257  1
  O  O663  1  0.66206535  0.14849768  0.95266806  1
  O  O664  1  0.66026673  0.47970916  0.20135973  1
  O  O665  1  0.66505921  0.48213439  0.45277318  1
  O  O666  1  0.66361232  0.48151568  0.70299908  1
  O  O667  1  0.66197736  0.48130938  0.95242164  1
  O  O668  1  0.66075593  0.81534748  0.20206533  1
  O  O669  1  0.66243404  0.81581191  0.45224759  1
  O  O670  1  0.66569119  0.81543646  0.70220555  1
  O  O671  1  0.66168603  0.81590234  0.95338628  1
