# generated using pymatgen
data_Na2MnFe(PO4)2
_symmetry_space_group_name_H-M   'P 1'
_cell_length_a   21.08645973
_cell_length_b   18.93966034
_cell_length_c   20.04491260
_cell_angle_alpha   89.99986956
_cell_angle_beta   89.99956532
_cell_angle_gamma   89.99919065
_symmetry_Int_Tables_number   1
_chemical_formula_structural   Na2MnFe(PO4)2
_chemical_formula_sum   'Na96 Mn48 Fe48 P96 O384'
_cell_volume   8005.34446308
_cell_formula_units_Z   48
loop_
 _symmetry_equiv_pos_site_id
 _symmetry_equiv_pos_as_xyz
  1  'x, y, z'
loop_
 _atom_site_type_symbol
 _atom_site_label
 _atom_site_symmetry_multiplicity
 _atom_site_fract_x
 _atom_site_fract_y
 _atom_site_fract_z
 _atom_site_occupancy
  Na  Na0  1  -0.00066453  0.00021224  0.00018787  1
  Na  Na1  1  -0.00081405  -0.00074079  0.24945782  1
  Na  Na2  1  -0.00057947  -0.00060186  0.50002021  1
  Na  Na3  1  -0.00087172  0.00024687  0.75012729  1
  Na  Na4  1  -0.00080936  0.33326279  -0.00043883  1
  Na  Na5  1  0.00316080  0.33387164  0.24923100  1
  Na  Na6  1  0.00251968  0.33403685  0.49918966  1
  Na  Na7  1  -0.00073866  0.33330742  0.75148863  1
  Na  Na8  1  0.00085060  0.66718881  0.00031888  1
  Na  Na9  1  0.00126370  0.66694581  0.24909732  1
  Na  Na10  1  -0.00065367  0.66633909  0.50001201  1
  Na  Na11  1  -0.00179863  0.66629393  0.75057685  1
  Na  Na12  1  0.50321464  0.00058648  0.00055919  1
  Na  Na13  1  0.50116383  0.00008235  0.25061339  1
  Na  Na14  1  0.50124232  -0.00002420  0.49922644  1
  Na  Na15  1  0.50294421  0.00026848  0.75036409  1
  Na  Na16  1  0.50052238  0.33320346  0.00093164  1
  Na  Na17  1  0.50087319  0.33429715  0.24891897  1
  Na  Na18  1  0.49886260  0.33301865  0.49942252  1
  Na  Na19  1  0.49877752  0.33275193  0.75062382  1
  Na  Na20  1  0.49966048  0.66568652  0.00040035  1
  Na  Na21  1  0.49780212  0.66592637  0.24999675  1
  Na  Na22  1  0.49810887  0.66592632  0.49973134  1
  Na  Na23  1  0.50063971  0.66616360  0.74974232  1
  Na  Na24  1  0.24967703  -0.00011078  0.12411024  1
  Na  Na25  1  0.25034762  -0.00003304  0.37574483  1
  Na  Na26  1  0.25151892  0.00027176  0.62631164  1
  Na  Na27  1  0.24897306  -0.00062567  0.87387083  1
  Na  Na28  1  0.24792482  0.33278483  0.12482574  1
  Na  Na29  1  0.24644893  0.33263618  0.37543810  1
  Na  Na30  1  0.24900176  0.33307717  0.62551636  1
  Na  Na31  1  0.25096082  0.33349303  0.87464449  1
  Na  Na32  1  0.25147073  0.66686233  0.12468949  1
  Na  Na33  1  0.25093154  0.66720254  0.37557437  1
  Na  Na34  1  0.25057093  0.66672559  0.62539990  1
  Na  Na35  1  0.25071219  0.66615365  0.87430530  1
  Na  Na36  1  0.74815063  -0.00049000  0.12514598  1
  Na  Na37  1  0.74947946  -0.00047338  0.37538043  1
  Na  Na38  1  0.74858357  -0.00000480  0.62436439  1
  Na  Na39  1  0.74662425  -0.00075524  0.87563251  1
  Na  Na40  1  0.74952352  0.33352769  0.12534165  1
  Na  Na41  1  0.74907798  0.33259754  0.37453654  1
  Na  Na42  1  0.75239458  0.33459019  0.62595925  1
  Na  Na43  1  0.75004650  0.33318398  0.87386682  1
  Na  Na44  1  0.74864755  0.66540831  0.12471832  1
  Na  Na45  1  0.75042138  0.66626674  0.37657437  1
  Na  Na46  1  0.75109934  0.66655318  0.62389495  1
  Na  Na47  1  0.74979982  0.66593105  0.87438030  1
  Na  Na48  1  0.00130911  0.16628547  -0.00047568  1
  Na  Na49  1  0.00042512  0.16730019  0.25013798  1
  Na  Na50  1  -0.00041236  0.16698526  0.49967611  1
  Na  Na51  1  -0.00213243  0.16764438  0.75099230  1
  Na  Na52  1  -0.00190219  0.50040451  0.00031580  1
  Na  Na53  1  0.00245838  0.49912398  0.24826992  1
  Na  Na54  1  0.00078273  0.49996659  0.49987580  1
  Na  Na55  1  -0.00213724  0.50059702  0.75076881  1
  Na  Na56  1  -0.00112551  0.83380162  -0.00019877  1
  Na  Na57  1  0.00070572  0.83340503  0.24940407  1
  Na  Na58  1  0.00141334  0.83259823  0.49965949  1
  Na  Na59  1  0.00062861  0.83212972  0.75046042  1
  Na  Na60  1  0.50244709  0.16636261  0.00093143  1
  Na  Na61  1  0.50100160  0.16652005  0.24987310  1
  Na  Na62  1  0.50000825  0.16650744  0.49853504  1
  Na  Na63  1  0.50027484  0.16725375  0.75076387  1
  Na  Na64  1  0.49922588  0.50085820  0.00054786  1
  Na  Na65  1  0.49886665  0.50061085  0.24885690  1
  Na  Na66  1  0.49842845  0.50120056  0.50061739  1
  Na  Na67  1  0.50064377  0.50015314  0.75011088  1
  Na  Na68  1  0.50173546  0.83317683  0.00043635  1
  Na  Na69  1  0.49953011  0.83328911  0.25064789  1
  Na  Na70  1  0.50011311  0.83304301  0.49941764  1
  Na  Na71  1  0.50147295  0.83348332  0.74980391  1
  Na  Na72  1  0.24950020  0.16677375  0.12350803  1
  Na  Na73  1  0.24875833  0.16723764  0.37536540  1
  Na  Na74  1  0.25006970  0.16692923  0.62644818  1
  Na  Na75  1  0.24956718  0.16747346  0.87415961  1
  Na  Na76  1  0.25003118  0.50006967  0.12496149  1
  Na  Na77  1  0.24883552  0.50045153  0.37555382  1
  Na  Na78  1  0.25065173  0.50016984  0.62452932  1
  Na  Na79  1  0.25225649  0.49951457  0.87523865  1
  Na  Na80  1  0.25017389  0.83274589  0.12509655  1
  Na  Na81  1  0.25004091  0.83284767  0.37602245  1
  Na  Na82  1  0.25046365  0.83243759  0.62608472  1
  Na  Na83  1  0.24906177  0.83328606  0.87346846  1
  Na  Na84  1  0.74804984  0.16788055  0.12507052  1
  Na  Na85  1  0.74938242  0.16703593  0.37537978  1
  Na  Na86  1  0.75112279  0.16609109  0.62564666  1
  Na  Na87  1  0.74917902  0.16678099  0.87469486  1
  Na  Na88  1  0.74875130  0.50066362  0.12459329  1
  Na  Na89  1  0.75126545  0.50008652  0.37576457  1
  Na  Na90  1  0.75166231  0.50035113  0.62499903  1
  Na  Na91  1  0.75031413  0.50009145  0.87384049  1
  Na  Na92  1  0.74881120  0.83390172  0.12568615  1
  Na  Na93  1  0.74884620  0.83383501  0.37514178  1
  Na  Na94  1  0.74804580  0.83403027  0.62387841  1
  Na  Na95  1  0.74873173  0.83335699  0.87504382  1
  Mn  Mn96  1  0.85711696  0.74976292  0.00253677  1
  Mn  Mn97  1  0.89152921  0.91649498  0.62789246  1
  Mn  Mn98  1  0.14190750  0.58298402  0.74827593  1
  Mn  Mn99  1  0.39376733  0.91694366  0.87761894  1
  Mn  Mn100  1  0.14303042  0.58288640  0.99720355  1
  Mn  Mn101  1  0.10816656  0.08255081  0.37225980  1
  Mn  Mn102  1  0.60783940  0.41680268  0.12231853  1
  Mn  Mn103  1  0.35860790  0.41671860  0.75222566  1
  Mn  Mn104  1  0.89184932  0.25016576  0.87796782  1
  Mn  Mn105  1  0.10731534  0.41729544  0.87303985  1
  Mn  Mn106  1  0.85829120  0.75047966  0.50189479  1
  Mn  Mn107  1  0.60776992  0.08390792  0.37220317  1
  Mn  Mn108  1  0.35809531  0.74992309  0.00161950  1
  Mn  Mn109  1  0.39125793  0.25076843  0.37653683  1
  Mn  Mn110  1  0.85770304  0.08339703  0.50206324  1
  Mn  Mn111  1  0.60735399  0.75006678  0.12346798  1
  Mn  Mn112  1  0.89188932  0.58310427  0.12750657  1
  Mn  Mn113  1  0.85663673  0.08393803  0.00244288  1
  Mn  Mn114  1  0.64237831  0.25040322  0.74694890  1
  Mn  Mn115  1  0.64204393  0.25032028  0.49850437  1
  Mn  Mn116  1  0.39238908  0.24969065  0.12738306  1
  Mn  Mn117  1  0.35801133  0.08316452  0.50314600  1
  Mn  Mn118  1  0.85764659  0.74963951  0.25252838  1
  Mn  Mn119  1  0.10825967  0.74998599  0.12243351  1
  Mn  Mn120  1  0.39171422  0.91626858  0.37716183  1
  Mn  Mn121  1  0.35678641  0.41654587  0.50236943  1
  Mn  Mn122  1  0.85709634  0.08343134  0.25186828  1
  Mn  Mn123  1  0.10792181  0.08355843  0.12268381  1
  Mn  Mn124  1  0.60768318  0.41740226  0.37322128  1
  Mn  Mn125  1  0.60799102  0.41630249  0.62251376  1
  Mn  Mn126  1  0.85797563  0.41697888  0.25200070  1
  Mn  Mn127  1  0.39243531  0.91665537  0.12733341  1
  Mn  Mn128  1  0.14190658  0.58341824  0.49803435  1
  Mn  Mn129  1  0.14194483  0.91652545  0.74749205  1
  Mn  Mn130  1  0.60862788  0.74935073  0.87196021  1
  Mn  Mn131  1  0.35853354  0.74995724  0.75203376  1
  Mn  Mn132  1  0.64238841  0.58321643  0.49768737  1
  Mn  Mn133  1  0.35907872  0.08311907  0.75255536  1
  Mn  Mn134  1  0.14232839  0.25034135  0.74786299  1
  Mn  Mn135  1  0.89129920  0.91640371  0.87678785  1
  Mn  Mn136  1  0.35816982  0.08339109  0.00168546  1
  Mn  Mn137  1  0.10697565  0.08339624  0.62293505  1
  Mn  Mn138  1  0.60691502  0.74889219  0.37260787  1
  Mn  Mn139  1  0.85961620  0.41614658  0.50184256  1
  Mn  Mn140  1  0.89286065  0.25035037  0.37692422  1
  Mn  Mn141  1  0.14146710  0.91701027  0.99739016  1
  Mn  Mn142  1  0.35628719  0.41616043  0.25242546  1
  Mn  Mn143  1  0.14257340  0.91702575  0.49849856  1
  Fe  Fe144  1  0.10791232  0.74976848  0.37338558  1
  Fe  Fe145  1  0.39397366  0.58274627  0.87671212  1
  Fe  Fe146  1  0.85771418  0.41701525  0.75183602  1
  Fe  Fe147  1  0.10668547  0.74998456  0.87328528  1
  Fe  Fe148  1  0.39149513  0.58290357  0.37633372  1
  Fe  Fe149  1  0.14302943  0.58374157  0.24818518  1
  Fe  Fe150  1  0.64273344  0.91584752  0.74751989  1
  Fe  Fe151  1  0.35719843  0.75031806  0.50278372  1
  Fe  Fe152  1  0.64290575  0.25080350  0.99801641  1
  Fe  Fe153  1  0.39262152  0.58347525  0.12712525  1
  Fe  Fe154  1  0.89278869  0.24984052  0.12644571  1
  Fe  Fe155  1  0.60740949  0.41649526  0.87359538  1
  Fe  Fe156  1  0.89364662  0.58382237  0.37542543  1
  Fe  Fe157  1  0.64221219  0.58273449  0.99779660  1
  Fe  Fe158  1  0.39439525  0.91679842  0.62657812  1
  Fe  Fe159  1  0.10669264  0.41709279  0.62438084  1
  Fe  Fe160  1  0.10675917  0.74931167  0.62371683  1
  Fe  Fe161  1  0.89180299  0.58387409  0.87682918  1
  Fe  Fe162  1  0.64232554  0.91662272  0.49805710  1
  Fe  Fe163  1  0.89299797  0.58296493  0.62681846  1
  Fe  Fe164  1  0.35644284  0.75050879  0.25201195  1
  Fe  Fe165  1  0.89293447  0.25049198  0.62631986  1
  Fe  Fe166  1  0.39315056  0.58339799  0.62712937  1
  Fe  Fe167  1  0.64237166  0.25041018  0.24808332  1
  Fe  Fe168  1  0.10772597  0.41775608  0.37267470  1
  Fe  Fe169  1  0.60742554  0.75001680  0.62313989  1
  Fe  Fe170  1  0.85635122  0.08269442  0.75188863  1
  Fe  Fe171  1  0.64269739  0.91637717  0.24835796  1
  Fe  Fe172  1  0.14256134  0.91682343  0.24848939  1
  Fe  Fe173  1  0.64199274  0.58332267  0.24906770  1
  Fe  Fe174  1  0.89170073  0.91729191  0.12722650  1
  Fe  Fe175  1  0.39370506  0.25036524  0.87747579  1
  Fe  Fe176  1  0.14201203  0.24942157  0.49936344  1
  Fe  Fe177  1  0.14289331  0.25002563  0.99795489  1
  Fe  Fe178  1  0.35727444  0.08302788  0.25075635  1
  Fe  Fe179  1  0.14229923  0.24921478  0.24739787  1
  Fe  Fe180  1  0.35790620  0.41618530  0.00145701  1
  Fe  Fe181  1  0.85693159  0.75052894  0.75106154  1
  Fe  Fe182  1  0.60765455  0.08341190  0.12382670  1
  Fe  Fe183  1  0.64274199  0.91645250  0.99857249  1
  Fe  Fe184  1  0.64357663  0.58381364  0.74780465  1
  Fe  Fe185  1  0.39211933  0.24973585  0.62615977  1
  Fe  Fe186  1  0.60788878  0.08445028  0.87305530  1
  Fe  Fe187  1  0.89285534  0.91587969  0.37617497  1
  Fe  Fe188  1  0.85623426  0.41640362  0.00152689  1
  Fe  Fe189  1  0.60741123  0.08350742  0.62348018  1
  Fe  Fe190  1  0.10690113  0.08282753  0.87298834  1
  Fe  Fe191  1  0.10723534  0.41644434  0.12194838  1
  P  P192  1  0.05437706  0.25053038  0.10988875  1
  P  P193  1  0.05561721  0.25044607  0.36042388  1
  P  P194  1  0.05244242  0.25089651  0.61028117  1
  P  P195  1  0.05462755  0.24958269  0.86149358  1
  P  P196  1  0.05485566  0.58261179  0.11065761  1
  P  P197  1  0.05339099  0.58394875  0.35932359  1
  P  P198  1  0.05213227  0.58327573  0.61073222  1
  P  P199  1  0.05171575  0.58384723  0.86043384  1
  P  P200  1  0.05290066  0.91687004  0.11096398  1
  P  P201  1  0.05313041  0.91566325  0.35952352  1
  P  P202  1  0.05271486  0.91567542  0.61015981  1
  P  P203  1  0.05299247  0.91670453  0.86000688  1
  P  P204  1  0.55547935  0.24947750  0.11066544  1
  P  P205  1  0.55353781  0.25080302  0.35897807  1
  P  P206  1  0.55168672  0.24939753  0.60996782  1
  P  P207  1  0.55424265  0.25090441  0.86156331  1
  P  P208  1  0.55389943  0.58349809  0.11064339  1
  P  P209  1  0.55168286  0.58317922  0.35935343  1
  P  P210  1  0.55386918  0.58415120  0.61120074  1
  P  P211  1  0.55480322  0.58192420  0.86045247  1
  P  P212  1  0.55535658  0.91724107  0.11117862  1
  P  P213  1  0.55483286  0.91618802  0.36042510  1
  P  P214  1  0.55484232  0.91643340  0.61043801  1
  P  P215  1  0.55632666  0.91731913  0.86051070  1
  P  P216  1  0.44766680  0.08318455  0.14062923  1
  P  P217  1  0.44491570  0.08341098  0.38861086  1
  P  P218  1  0.44839543  0.08289979  0.63985422  1
  P  P219  1  0.44902176  0.08410357  0.89039238  1
  P  P220  1  0.44506464  0.41721604  0.13878642  1
  P  P221  1  0.44586897  0.41760330  0.38977144  1
  P  P222  1  0.44665880  0.41662226  0.63988084  1
  P  P223  1  0.44762818  0.41674803  0.89070729  1
  P  P224  1  0.44553625  0.74943581  0.14073142  1
  P  P225  1  0.44376038  0.74904052  0.38946902  1
  P  P226  1  0.44713205  0.75033087  0.63872661  1
  P  P227  1  0.44779665  0.74918606  0.88988987  1
  P  P228  1  0.94619925  0.08421166  0.13965240  1
  P  P229  1  0.94657295  0.08230826  0.38953366  1
  P  P230  1  0.94550197  0.08423057  0.64082782  1
  P  P231  1  0.94584769  0.08295420  0.88921100  1
  P  P232  1  0.94628625  0.41531096  0.13831846  1
  P  P233  1  0.94870479  0.41763257  0.38884078  1
  P  P234  1  0.94731679  0.41645956  0.64055983  1
  P  P235  1  0.94411006  0.41776721  0.88992424  1
  P  P236  1  0.94629659  0.75066900  0.13992117  1
  P  P237  1  0.94809748  0.74994997  0.38926167  1
  P  P238  1  0.94692791  0.74931031  0.64045816  1
  P  P239  1  0.94569911  0.74945864  0.88890857  1
  P  P240  1  0.19776828  0.08285660  0.23476324  1
  P  P241  1  0.19666369  0.08390076  0.48568454  1
  P  P242  1  0.19580101  0.08340931  0.73593869  1
  P  P243  1  0.19599159  0.08423758  0.98362422  1
  P  P244  1  0.19393412  0.41711541  0.23536492  1
  P  P245  1  0.19387205  0.41612418  0.48624414  1
  P  P246  1  0.19632548  0.41714533  0.73445467  1
  P  P247  1  0.19708617  0.41597771  0.98566955  1
  P  P248  1  0.19629142  0.75000300  0.23645716  1
  P  P249  1  0.19586173  0.74978723  0.48614729  1
  P  P250  1  0.19469685  0.74927583  0.73535726  1
  P  P251  1  0.19626135  0.74972349  0.98359465  1
  P  P252  1  0.69574351  0.08332394  0.23465556  1
  P  P253  1  0.69490540  0.08302242  0.48620189  1
  P  P254  1  0.69567734  0.08283302  0.73557064  1
  P  P255  1  0.69442538  0.08392333  0.98597822  1
  P  P256  1  0.69636594  0.41745348  0.23516354  1
  P  P257  1  0.69767841  0.41663991  0.48501740  1
  P  P258  1  0.69695769  0.41776622  0.73611881  1
  P  P259  1  0.69686492  0.41656785  0.98413675  1
  P  P260  1  0.69639452  0.74922104  0.23560364  1
  P  P261  1  0.69518452  0.75043822  0.48595772  1
  P  P262  1  0.69729124  0.74947268  0.73396326  1
  P  P263  1  0.69616805  0.74953845  0.98520169  1
  P  P264  1  0.30397323  0.25065186  0.01360034  1
  P  P265  1  0.30130980  0.24928126  0.26450792  1
  P  P266  1  0.30202724  0.25013742  0.51586437  1
  P  P267  1  0.30600444  0.25004806  0.76495792  1
  P  P268  1  0.30595933  0.58228839  0.01422583  1
  P  P269  1  0.30334387  0.58378294  0.26435901  1
  P  P270  1  0.30487599  0.58417786  0.51467759  1
  P  P271  1  0.30562415  0.58331078  0.76474269  1
  P  P272  1  0.30316245  0.91660515  0.01466158  1
  P  P273  1  0.30198291  0.91679065  0.26481687  1
  P  P274  1  0.30426352  0.91569860  0.51647398  1
  P  P275  1  0.30545636  0.91639855  0.76405713  1
  P  P276  1  0.80233544  0.25096953  0.01538004  1
  P  P277  1  0.80309707  0.25008676  0.26378388  1
  P  P278  1  0.80404643  0.25015619  0.51589845  1
  P  P279  1  0.80494715  0.24987262  0.76362579  1
  P  P280  1  0.80284978  0.58227455  0.01360206  1
  P  P281  1  0.80236370  0.58324717  0.26582980  1
  P  P282  1  0.80621182  0.58327644  0.51432095  1
  P  P283  1  0.80466042  0.58395032  0.76368126  1
  P  P284  1  0.80221331  0.91687666  0.01552714  1
  P  P285  1  0.80348045  0.91671776  0.26466560  1
  P  P286  1  0.80330049  0.91657233  0.51379585  1
  P  P287  1  0.80141128  0.91650470  0.76459830  1
  O  O288  1  0.05910470  0.24947143  0.18666101  1
  O  O289  1  0.05920406  0.24927313  0.43719717  1
  O  O290  1  0.05586723  0.25010274  0.68702803  1
  O  O291  1  0.05886288  0.25032729  0.93822331  1
  O  O292  1  0.05942319  0.58344423  0.18734943  1
  O  O293  1  0.05632455  0.58397658  0.43607407  1
  O  O294  1  0.05546358  0.58332734  0.68736454  1
  O  O295  1  0.05592992  0.58308843  0.93708608  1
  O  O296  1  0.05863291  0.91685233  0.18757207  1
  O  O297  1  0.05706356  0.91655976  0.43620015  1
  O  O298  1  0.05577941  0.91643816  0.68689904  1
  O  O299  1  0.05552920  0.91690964  0.93681893  1
  O  O300  1  0.55946845  0.25064948  0.18741796  1
  O  O301  1  0.55668695  0.25055224  0.43576041  1
  O  O302  1  0.55575528  0.25018057  0.68672298  1
  O  O303  1  0.55886411  0.25093802  0.93821752  1
  O  O304  1  0.55868178  0.58330088  0.18728362  1
  O  O305  1  0.55611555  0.58336936  0.43604877  1
  O  O306  1  0.55921911  0.58369464  0.68784786  1
  O  O307  1  0.55920325  0.58285004  0.93721499  1
  O  O308  1  0.55916061  0.91616276  0.18797321  1
  O  O309  1  0.55886757  0.91624690  0.43721300  1
  O  O310  1  0.55928981  0.91614838  0.68723910  1
  O  O311  1  0.56003597  0.91616895  0.93733514  1
  O  O312  1  0.44388194  0.08319702  0.06392457  1
  O  O313  1  0.44021337  0.08328339  0.31187694  1
  O  O314  1  0.44486737  0.08284873  0.56310419  1
  O  O315  1  0.44522513  0.08339248  0.81371512  1
  O  O316  1  0.44127815  0.41627369  0.06205982  1
  O  O317  1  0.44268748  0.41689422  0.31298532  1
  O  O318  1  0.44334019  0.41671446  0.56314438  1
  O  O319  1  0.44437900  0.41669518  0.81399310  1
  O  O320  1  0.44322154  0.75038127  0.06394079  1
  O  O321  1  0.43941950  0.75024207  0.31268062  1
  O  O322  1  0.44253626  0.75020766  0.56206494  1
  O  O323  1  0.44476896  0.74990241  0.81312422  1
  O  O324  1  0.94316199  0.08419568  0.06286811  1
  O  O325  1  0.94333350  0.08304667  0.31278580  1
  O  O326  1  0.94292676  0.08310874  0.56399656  1
  O  O327  1  0.94030298  0.08283869  0.81259345  1
  O  O328  1  0.94078541  0.41608125  0.06171548  1
  O  O329  1  0.94493730  0.41668971  0.31215310  1
  O  O330  1  0.94484156  0.41629156  0.56378299  1
  O  O331  1  0.94008308  0.41688167  0.81310209  1
  O  O332  1  0.94290025  0.75004660  0.06312243  1
  O  O333  1  0.94442301  0.75012618  0.31259721  1
  O  O334  1  0.94368127  0.75042820  0.56373971  1
  O  O335  1  0.94059758  0.75018241  0.81226797  1
  O  O336  1  0.19298861  0.08345619  0.06045462  1
  O  O337  1  0.19438266  0.08289352  0.31147247  1
  O  O338  1  0.19346900  0.08323517  0.56244771  1
  O  O339  1  0.19090403  0.08324495  0.81262280  1
  O  O340  1  0.19210020  0.41668306  0.06233809  1
  O  O341  1  0.19049364  0.41757124  0.31230100  1
  O  O342  1  0.18984808  0.41734479  0.56300073  1
  O  O343  1  0.19303010  0.41737085  0.81124471  1
  O  O344  1  0.19338292  0.74959693  0.06046815  1
  O  O345  1  0.19190464  0.74981718  0.31317649  1
  O  O346  1  0.19057374  0.74931222  0.56280418  1
  O  O347  1  0.18979210  0.74910694  0.81207685  1
  O  O348  1  0.69115045  0.08393281  0.06273993  1
  O  O349  1  0.69362966  0.08343107  0.31152738  1
  O  O350  1  0.69082613  0.08377349  0.56298837  1
  O  O351  1  0.69114891  0.08411332  0.81231701  1
  O  O352  1  0.69345702  0.41689368  0.06085027  1
  O  O353  1  0.69371502  0.41727821  0.31191580  1
  O  O354  1  0.69425612  0.41694303  0.56182235  1
  O  O355  1  0.69181234  0.41682093  0.81268465  1
  O  O356  1  0.69325930  0.74931377  0.06192373  1
  O  O357  1  0.69372260  0.74917356  0.31237462  1
  O  O358  1  0.69098449  0.74961793  0.56268574  1
  O  O359  1  0.69398154  0.74908694  0.81071315  1
  O  O360  1  0.30549242  0.25002554  0.18782755  1
  O  O361  1  0.30573062  0.25040794  0.43915637  1
  O  O362  1  0.31036974  0.24980220  0.68815836  1
  O  O363  1  0.30934870  0.25021609  0.93694135  1
  O  O364  1  0.30797163  0.58318647  0.18766575  1
  O  O365  1  0.30829953  0.58322241  0.43788969  1
  O  O366  1  0.31004474  0.58345402  0.68793672  1
  O  O367  1  0.31031984  0.58292716  0.93744099  1
  O  O368  1  0.30561526  0.91658644  0.18812801  1
  O  O369  1  0.30666831  0.91648771  0.43965577  1
  O  O370  1  0.31067699  0.91650005  0.68738511  1
  O  O371  1  0.30691302  0.91666604  0.93791380  1
  O  O372  1  0.80826075  0.25021945  0.18718807  1
  O  O373  1  0.80717960  0.25023347  0.43904474  1
  O  O374  1  0.80917079  0.25028467  0.68695424  1
  O  O375  1  0.80600992  0.24990437  0.93861245  1
  O  O376  1  0.80617649  0.58329325  0.18906363  1
  O  O377  1  0.81106852  0.58330672  0.43760180  1
  O  O378  1  0.80934013  0.58358459  0.68695666  1
  O  O379  1  0.80763153  0.58334507  0.93694844  1
  O  O380  1  0.80844043  0.91669822  0.18795504  1
  O  O381  1  0.80874885  0.91609003  0.43716524  1
  O  O382  1  0.80492151  0.91676242  0.68789262  1
  O  O383  1  0.80600887  0.91690715  0.93879784  1
  O  O384  1  0.23356311  0.25001100  0.03704440  1
  O  O385  1  0.23115643  0.24996657  0.28872076  1
  O  O386  1  0.23197195  0.24997793  0.54039941  1
  O  O387  1  0.23574144  0.25051916  0.78830422  1
  O  O388  1  0.23580995  0.58337062  0.03810095  1
  O  O389  1  0.23298627  0.58351489  0.28824687  1
  O  O390  1  0.23481955  0.58370081  0.53904575  1
  O  O391  1  0.23548413  0.58305005  0.78852844  1
  O  O392  1  0.23337638  0.91649242  0.03940218  1
  O  O393  1  0.23207463  0.91650086  0.29001731  1
  O  O394  1  0.23467273  0.91625740  0.54192414  1
  O  O395  1  0.23515621  0.91621065  0.78719797  1
  O  O396  1  0.73214739  0.25087983  0.03943563  1
  O  O397  1  0.73268807  0.24993161  0.28730396  1
  O  O398  1  0.73442271  0.25036996  0.54116463  1
  O  O399  1  0.73482938  0.24965541  0.78777281  1
  O  O400  1  0.73246383  0.58249121  0.03723935  1
  O  O401  1  0.73234886  0.58317365  0.29039704  1
  O  O402  1  0.73595695  0.58333792  0.53778901  1
  O  O403  1  0.73415209  0.58358978  0.78718915  1
  O  O404  1  0.73194730  0.91690340  0.03945915  1
  O  O405  1  0.73298232  0.91679062  0.28789760  1
  O  O406  1  0.73289195  0.91684371  0.53714391  1
  O  O407  1  0.73140939  0.91607307  0.78936228  1
  O  O408  1  0.26758298  0.08308817  0.20932843  1
  O  O409  1  0.26631241  0.08365934  0.46051415  1
  O  O410  1  0.26601657  0.08360647  0.71245595  1
  O  O411  1  0.26575001  0.08356696  0.95857945  1
  O  O412  1  0.26393622  0.41646183  0.21093645  1
  O  O413  1  0.26389374  0.41677600  0.46187934  1
  O  O414  1  0.26610610  0.41680598  0.70979848  1
  O  O415  1  0.26737013  0.41632232  0.96183078  1
  O  O416  1  0.26654757  0.74995311  0.21224215  1
  O  O417  1  0.26633775  0.75001069  0.46305523  1
  O  O418  1  0.26502126  0.74943066  0.71216117  1
  O  O419  1  0.26597195  0.74974454  0.95860239  1
  O  O420  1  0.76523522  0.08344536  0.20885756  1
  O  O421  1  0.76479959  0.08322389  0.46166720  1
  O  O422  1  0.76605638  0.08320033  0.71193162  1
  O  O423  1  0.76432994  0.08351351  0.96105452  1
  O  O424  1  0.76590678  0.41749062  0.20941529  1
  O  O425  1  0.76733332  0.41632479  0.45996720  1
  O  O426  1  0.76747026  0.41784372  0.71275822  1
  O  O427  1  0.76687654  0.41638812  0.95939164  1
  O  O428  1  0.76582982  0.74941953  0.20968509  1
  O  O429  1  0.76521155  0.75006910  0.46177605  1
  O  O430  1  0.76731196  0.74995397  0.70916761  1
  O  O431  1  0.76574555  0.74959315  0.95960634  1
  O  O432  1  0.01582424  0.08377102  0.16499895  1
  O  O433  1  0.01624027  0.08266494  0.41471400  1
  O  O434  1  0.01517120  0.08379380  0.66612534  1
  O  O435  1  0.01622700  0.08306701  0.91256644  1
  O  O436  1  0.01673863  0.41581594  0.16152799  1
  O  O437  1  0.01872536  0.41749100  0.41348083  1
  O  O438  1  0.01718496  0.41683677  0.66603563  1
  O  O439  1  0.01422743  0.41699625  0.91382826  1
  O  O440  1  0.01609838  0.75015084  0.16457467  1
  O  O441  1  0.01806171  0.74971531  0.41415259  1
  O  O442  1  0.01696046  0.74936581  0.66512946  1
  O  O443  1  0.01601567  0.75005002  0.91274452  1
  O  O444  1  0.51777870  0.08336472  0.16485709  1
  O  O445  1  0.51507841  0.08332026  0.41223549  1
  O  O446  1  0.51838122  0.08315215  0.66482300  1
  O  O447  1  0.51910244  0.08404387  0.91478083  1
  O  O448  1  0.51508518  0.41725494  0.16292871  1
  O  O449  1  0.51539678  0.41746249  0.41530549  1
  O  O450  1  0.51630369  0.41667236  0.66527545  1
  O  O451  1  0.51760951  0.41686963  0.91562624  1
  O  O452  1  0.51514223  0.74964269  0.16617080  1
  O  O453  1  0.51393337  0.74935607  0.41322835  1
  O  O454  1  0.51740939  0.75017390  0.66292334  1
  O  O455  1  0.51745568  0.74903411  0.91512467  1
  O  O456  1  0.48537041  0.24987584  0.08669475  1
  O  O457  1  0.48380070  0.25060872  0.33393287  1
  O  O458  1  0.48171056  0.24961533  0.58524195  1
  O  O459  1  0.48391143  0.25058935  0.83776150  1
  O  O460  1  0.48344729  0.58348697  0.08733834  1
  O  O461  1  0.48149644  0.58336849  0.33542437  1
  O  O462  1  0.48337851  0.58378591  0.58791637  1
  O  O463  1  0.48440210  0.58264329  0.83686181  1
  O  O464  1  0.48541817  0.91660852  0.08666927  1
  O  O465  1  0.48470077  0.91634260  0.33657154  1
  O  O466  1  0.48453433  0.91643667  0.58640285  1
  O  O467  1  0.48637204  0.91663001  0.83611050  1
  O  O468  1  0.98404203  0.25001174  0.08617168  1
  O  O469  1  0.98561064  0.25032939  0.33586294  1
  O  O470  1  0.98248060  0.25062141  0.58536824  1
  O  O471  1  0.98446244  0.25040564  0.83772412  1
  O  O472  1  0.98470717  0.58318931  0.08686805  1
  O  O473  1  0.98346301  0.58366217  0.33396384  1
  O  O474  1  0.98219412  0.58307239  0.58564661  1
  O  O475  1  0.98162590  0.58335874  0.83613217  1
  O  O476  1  0.98242111  0.91715442  0.08769543  1
  O  O477  1  0.98293649  0.91604687  0.33522495  1
  O  O478  1  0.98306290  0.91581799  0.58493108  1
  O  O479  1  0.98339650  0.91636140  0.83447332  1
  O  O480  1  0.08781208  0.31572501  0.07688846  1
  O  O481  1  0.08928519  0.31566937  0.32799363  1
  O  O482  1  0.08644804  0.31603972  0.57809985  1
  O  O483  1  0.08826353  0.31453628  0.82828458  1
  O  O484  1  0.08858110  0.64745162  0.07741070  1
  O  O485  1  0.08747628  0.64907611  0.32689556  1
  O  O486  1  0.08593578  0.64830313  0.57783674  1
  O  O487  1  0.08527412  0.64893403  0.82769925  1
  O  O488  1  0.08616460  0.98187522  0.07754007  1
  O  O489  1  0.08711614  0.98048955  0.32620807  1
  O  O490  1  0.08676524  0.98076184  0.57757908  1
  O  O491  1  0.08707586  0.98183024  0.82765415  1
  O  O492  1  0.58926985  0.31425747  0.07707175  1
  O  O493  1  0.58770898  0.31587102  0.32664308  1
  O  O494  1  0.58559553  0.31443947  0.57722942  1
  O  O495  1  0.58724356  0.31610653  0.82805257  1
  O  O496  1  0.58722573  0.64847160  0.07726153  1
  O  O497  1  0.58551722  0.64803249  0.32618986  1
  O  O498  1  0.58671889  0.64923764  0.57762631  1
  O  O499  1  0.58864330  0.64654310  0.82665319  1
  O  O500  1  0.58882757  0.98260910  0.07873131  1
  O  O501  1  0.58868092  0.98102336  0.32735609  1
  O  O502  1  0.58819752  0.98165275  0.57751943  1
  O  O503  1  0.58964017  0.98277523  0.82810784  1
  O  O504  1  0.41377895  0.01821732  0.17350583  1
  O  O505  1  0.41171891  0.01834985  0.42199220  1
  O  O506  1  0.41496628  0.01761641  0.67265484  1
  O  O507  1  0.41543510  0.01901336  0.92335382  1
  O  O508  1  0.41158001  0.35226956  0.17219842  1
  O  O509  1  0.41158659  0.35255431  0.42218324  1
  O  O510  1  0.41268178  0.35141695  0.67213544  1
  O  O511  1  0.41351097  0.35179038  0.92351201  1
  O  O512  1  0.41121426  0.68418822  0.17252816  1
  O  O513  1  0.41038986  0.68377131  0.42213079  1
  O  O514  1  0.41355704  0.68535457  0.67197211  1
  O  O515  1  0.41363457  0.68400766  0.92182976  1
  O  O516  1  0.91173258  0.01923172  0.17182105  1
  O  O517  1  0.91264768  0.01702200  0.42168631  1
  O  O518  1  0.91082196  0.01943189  0.67353112  1
  O  O519  1  0.91259188  0.01796160  0.92262276  1
  O  O520  1  0.91351457  0.34999816  0.17172972  1
  O  O521  1  0.91500181  0.35267286  0.42199554  1
  O  O522  1  0.91315986  0.35151499  0.67315402  1
  O  O523  1  0.91009282  0.35302810  0.92328430  1
  O  O524  1  0.91226355  0.68558157  0.17247830  1
  O  O525  1  0.91409237  0.68485389  0.42164111  1
  O  O526  1  0.91291911  0.68415427  0.67262909  1
  O  O527  1  0.91272349  0.68410967  0.92210149  1
  O  O528  1  0.16380975  0.01767143  0.20237270  1
  O  O529  1  0.16268583  0.01881267  0.45296473  1
  O  O530  1  0.16252720  0.01843447  0.70250583  1
  O  O531  1  0.16128861  0.01943060  0.95117735  1
  O  O532  1  0.15986137  0.35210304  0.20272281  1
  O  O533  1  0.16055957  0.35072423  0.45384802  1
  O  O534  1  0.16188958  0.35226315  0.70210379  1
  O  O535  1  0.16371890  0.35094355  0.95259597  1
  O  O536  1  0.16309197  0.68494476  0.20301218  1
  O  O537  1  0.16271634  0.68484255  0.45227705  1
  O  O538  1  0.16150233  0.68421629  0.70182769  1
  O  O539  1  0.16198202  0.68473554  0.95115905  1
  O  O540  1  0.66140679  0.01813828  0.20269639  1
  O  O541  1  0.66126781  0.01787446  0.45352150  1
  O  O542  1  0.66245643  0.01751892  0.70282037  1
  O  O543  1  0.66035040  0.01896656  0.95334669  1
  O  O544  1  0.66216983  0.35240380  0.20273644  1
  O  O545  1  0.66325087  0.35172129  0.45290872  1
  O  O546  1  0.66403892  0.35261967  0.70233732  1
  O  O547  1  0.66287830  0.35142307  0.95160972  1
  O  O548  1  0.66218899  0.68405930  0.20344592  1
  O  O549  1  0.66155532  0.68545584  0.45271613  1
  O  O550  1  0.66343778  0.68439695  0.70118931  1
  O  O551  1  0.66219176  0.68445595  0.95257432  1
  O  O552  1  0.33682628  0.31574897  0.04718221  1
  O  O553  1  0.33491035  0.31428740  0.29775845  1
  O  O554  1  0.33592664  0.31508951  0.54874377  1
  O  O555  1  0.33962178  0.31503521  0.79810569  1
  O  O556  1  0.33996714  0.64704364  0.04757185  1
  O  O557  1  0.33679376  0.64878836  0.29745543  1
  O  O558  1  0.33848391  0.64940295  0.54740542  1
  O  O559  1  0.33930897  0.64819621  0.79789894  1
  O  O560  1  0.33709298  0.98172054  0.04722489  1
  O  O561  1  0.33583073  0.98199395  0.29724752  1
  O  O562  1  0.33910423  0.98042835  0.54890351  1
  O  O563  1  0.33856163  0.98146922  0.79760056  1
  O  O564  1  0.83619672  0.31610757  0.04775424  1
  O  O565  1  0.83627209  0.31514223  0.29732274  1
  O  O566  1  0.83864979  0.31503736  0.54821006  1
  O  O567  1  0.83815835  0.31510813  0.79679346  1
  O  O568  1  0.83619885  0.64702822  0.04745299  1
  O  O569  1  0.83646214  0.64818099  0.29861410  1
  O  O570  1  0.83961870  0.64829453  0.54763242  1
  O  O571  1  0.83743555  0.64938851  0.79694238  1
  O  O572  1  0.83590150  0.98187244  0.04846516  1
  O  O573  1  0.83685579  0.98163711  0.29803408  1
  O  O574  1  0.83646166  0.98154451  0.54726082  1
  O  O575  1  0.83492350  0.98157941  0.79761305  1
  O  O576  1  0.41353734  0.14808979  0.17340131  1
  O  O577  1  0.41171039  0.14860152  0.42173815  1
  O  O578  1  0.41425584  0.14788507  0.67228507  1
  O  O579  1  0.41523190  0.14916407  0.92299645  1
  O  O580  1  0.41136226  0.48239308  0.17134854  1
  O  O581  1  0.41163084  0.48270687  0.42185873  1
  O  O582  1  0.41272567  0.48182130  0.67236072  1
  O  O583  1  0.41342167  0.48179019  0.92308513  1
  O  O584  1  0.41107196  0.81424941  0.17345013  1
  O  O585  1  0.41019742  0.81388867  0.42309925  1
  O  O586  1  0.41404543  0.81552767  0.67202136  1
  O  O587  1  0.41396512  0.81424879  0.92263228  1
  O  O588  1  0.91250090  0.14966545  0.17192278  1
  O  O589  1  0.91237110  0.14736769  0.42196599  1
  O  O590  1  0.91155257  0.14955791  0.67267747  1
  O  O591  1  0.91269194  0.14804890  0.92274750  1
  O  O592  1  0.91307378  0.48029802  0.17204554  1
  O  O593  1  0.91501493  0.48280120  0.42119784  1
  O  O594  1  0.91284935  0.48148222  0.67279819  1
  O  O595  1  0.91077675  0.48307381  0.92255345  1
  O  O596  1  0.91250802  0.81588107  0.17218436  1
  O  O597  1  0.91419310  0.81498994  0.42214389  1
  O  O598  1  0.91273940  0.81405651  0.67367654  1
  O  O599  1  0.91208936  0.81433414  0.92231830  1
  O  O600  1  0.08826112  0.18578745  0.07652917  1
  O  O601  1  0.08932680  0.18551186  0.32689799  1
  O  O602  1  0.08653886  0.18603242  0.57719824  1
  O  O603  1  0.08754856  0.18426411  0.82845876  1
  O  O604  1  0.08791193  0.51722014  0.07759644  1
  O  O605  1  0.08776348  0.51907281  0.32687187  1
  O  O606  1  0.08614229  0.51827491  0.57817118  1
  O  O607  1  0.08556103  0.51888165  0.82741466  1
  O  O608  1  0.08593115  0.85178961  0.07742115  1
  O  O609  1  0.08691038  0.85046396  0.32705409  1
  O  O610  1  0.08687374  0.85048893  0.57820374  1
  O  O611  1  0.08740098  0.85157869  0.82806712  1
  O  O612  1  0.58889217  0.18418273  0.07816826  1
  O  O613  1  0.58799667  0.18592230  0.32651400  1
  O  O614  1  0.58548825  0.18427835  0.57760196  1
  O  O615  1  0.58775191  0.18596909  0.82819499  1
  O  O616  1  0.58728166  0.51861425  0.07689264  1
  O  O617  1  0.58547872  0.51825284  0.32638539  1
  O  O618  1  0.58699773  0.51910503  0.57758567  1
  O  O619  1  0.58783812  0.51657443  0.82757262  1
  O  O620  1  0.58946344  0.85254797  0.07780807  1
  O  O621  1  0.58830867  0.85113571  0.32736154  1
  O  O622  1  0.58828521  0.85141041  0.57717065  1
  O  O623  1  0.59037780  0.85263131  0.82693832  1
  O  O624  1  0.33731411  0.18559712  0.04705162  1
  O  O625  1  0.33481161  0.18410377  0.29703747  1
  O  O626  1  0.33626755  0.18527016  0.54865347  1
  O  O627  1  0.33949358  0.18514504  0.79838032  1
  O  O628  1  0.33888146  0.51691854  0.04729363  1
  O  O629  1  0.33667898  0.51879275  0.29799471  1
  O  O630  1  0.33886940  0.51943234  0.54794928  1
  O  O631  1  0.33936319  0.51837358  0.79787685  1
  O  O632  1  0.33715043  0.85157709  0.04723327  1
  O  O633  1  0.33603870  0.85183754  0.29761316  1
  O  O634  1  0.33840569  0.85038484  0.54836184  1
  O  O635  1  0.33870119  0.85136809  0.79741197  1
  O  O636  1  0.83619941  0.18614554  0.04856736  1
  O  O637  1  0.83631486  0.18511532  0.29728777  1
  O  O638  1  0.83825857  0.18515695  0.54821979  1
  O  O639  1  0.83824127  0.18466266  0.79674160  1
  O  O640  1  0.83597112  0.51700203  0.04667658  1
  O  O641  1  0.83673472  0.51836415  0.29831108  1
  O  O642  1  0.83967088  0.51830412  0.54770558  1
  O  O643  1  0.83826243  0.51921341  0.79729023  1
  O  O644  1  0.83593242  0.85190828  0.04840598  1
  O  O645  1  0.83667227  0.85167574  0.29823547  1
  O  O646  1  0.83621975  0.85153843  0.54757473  1
  O  O647  1  0.83536218  0.85131342  0.79694660  1
  O  O648  1  0.16361402  0.14786410  0.20218845  1
  O  O649  1  0.16252685  0.14898077  0.45355449  1
  O  O650  1  0.16240849  0.14851611  0.70285821  1
  O  O651  1  0.16202606  0.14953716  0.95163142  1
  O  O652  1  0.16068372  0.48236887  0.20234312  1
  O  O653  1  0.16005387  0.48096305  0.45264009  1
  O  O654  1  0.16227996  0.48209767  0.70174023  1
  O  O655  1  0.16376861  0.48099134  0.95207030  1
  O  O656  1  0.16297163  0.81518878  0.20335137  1
  O  O657  1  0.16249435  0.81476550  0.45271844  1
  O  O658  1  0.16116942  0.81413653  0.70192800  1
  O  O659  1  0.16179152  0.81467347  0.95143082  1
  O  O660  1  0.66116384  0.14823650  0.20250623  1
  O  O661  1  0.66130828  0.14806874  0.45310548  1
  O  O662  1  0.66204882  0.14758910  0.70179615  1
  O  O663  1  0.66105023  0.14924686  0.95295371  1
  O  O664  1  0.66209051  0.48262246  0.20301121  1
  O  O665  1  0.66370577  0.48176603  0.45252159  1
  O  O666  1  0.66376856  0.48279987  0.70282769  1
  O  O667  1  0.66281257  0.48146103  0.95130108  1
  O  O668  1  0.66205456  0.81436917  0.20354445  1
  O  O669  1  0.66167384  0.81557784  0.45327863  1
  O  O670  1  0.66285417  0.81444658  0.70171278  1
  O  O671  1  0.66219089  0.81480751  0.95309325  1
