# generated using pymatgen
data_Na2MnFe(PO4)2
_symmetry_space_group_name_H-M   'P 1'
_cell_length_a   21.08703804
_cell_length_b   18.93903285
_cell_length_c   20.04554673
_cell_angle_alpha   89.99975197
_cell_angle_beta   90.00258217
_cell_angle_gamma   89.99876354
_symmetry_Int_Tables_number   1
_chemical_formula_structural   Na2MnFe(PO4)2
_chemical_formula_sum   'Na96 Mn48 Fe48 P96 O384'
_cell_volume   8005.55202518
_cell_formula_units_Z   48
loop_
 _symmetry_equiv_pos_site_id
 _symmetry_equiv_pos_as_xyz
  1  'x, y, z'
loop_
 _atom_site_type_symbol
 _atom_site_label
 _atom_site_symmetry_multiplicity
 _atom_site_fract_x
 _atom_site_fract_y
 _atom_site_fract_z
 _atom_site_occupancy
  Na  Na0  1  -0.00089273  -0.00022459  0.00070584  1
  Na  Na1  1  0.00039307  0.00058153  0.24994922  1
  Na  Na2  1  0.00126828  0.00072057  0.49941916  1
  Na  Na3  1  -0.00062611  -0.00040155  0.74992411  1
  Na  Na4  1  0.00033507  0.33344378  -0.00028560  1
  Na  Na5  1  0.00296833  0.33435553  0.24943799  1
  Na  Na6  1  0.00127971  0.33344198  0.49989588  1
  Na  Na7  1  0.00045483  0.33372192  0.75116605  1
  Na  Na8  1  -0.00165857  0.66622410  -0.00009945  1
  Na  Na9  1  -0.00173675  0.66613047  0.24930982  1
  Na  Na10  1  -0.00170541  0.66623796  0.49954172  1
  Na  Na11  1  -0.00126538  0.66682791  0.75094692  1
  Na  Na12  1  0.49988820  -0.00032248  0.00158997  1
  Na  Na13  1  0.50069698  0.00056386  0.24924139  1
  Na  Na14  1  0.50075016  0.00009806  0.49966283  1
  Na  Na15  1  0.49993440  -0.00088383  0.74974359  1
  Na  Na16  1  0.50080473  0.33396599  -0.00069274  1
  Na  Na17  1  0.49902670  0.33377572  0.24933963  1
  Na  Na18  1  0.49643020  0.33215481  0.50074213  1
  Na  Na19  1  0.49993386  0.33358038  0.75067069  1
  Na  Na20  1  0.49754092  0.66575997  0.00010698  1
  Na  Na21  1  0.49679169  0.66577028  0.24955535  1
  Na  Na22  1  0.49841072  0.66684373  0.49950470  1
  Na  Na23  1  0.49990265  0.66685285  0.75026466  1
  Na  Na24  1  0.25017351  0.00046023  0.12470763  1
  Na  Na25  1  0.24851203  -0.00056704  0.37502516  1
  Na  Na26  1  0.25011890  -0.00029762  0.62628317  1
  Na  Na27  1  0.25025946  -0.00035195  0.87390625  1
  Na  Na28  1  0.24812637  0.33280599  0.12574726  1
  Na  Na29  1  0.25032304  0.33363352  0.37577221  1
  Na  Na30  1  0.25120231  0.33357104  0.62423472  1
  Na  Na31  1  0.25195688  0.33488680  0.87508607  1
  Na  Na32  1  0.25202917  0.66692501  0.12442910  1
  Na  Na33  1  0.25102824  0.66706324  0.37556701  1
  Na  Na34  1  0.24943535  0.66614382  0.62460216  1
  Na  Na35  1  0.25158894  0.66703276  0.87513056  1
  Na  Na36  1  0.75109131  0.00067842  0.12480890  1
  Na  Na37  1  0.74915795  -0.00005323  0.37471701  1
  Na  Na38  1  0.75007218  0.00060500  0.62581288  1
  Na  Na39  1  0.74938595  -0.00028805  0.87483519  1
  Na  Na40  1  0.74826396  0.33312092  0.12502585  1
  Na  Na41  1  0.75131244  0.33335649  0.37535742  1
  Na  Na42  1  0.75060755  0.33389175  0.62417203  1
  Na  Na43  1  0.74653677  0.33272834  0.87506619  1
  Na  Na44  1  0.75219703  0.66643094  0.12549857  1
  Na  Na45  1  0.75393497  0.66773246  0.37520424  1
  Na  Na46  1  0.75069550  0.66675422  0.62433003  1
  Na  Na47  1  0.75255549  0.66741661  0.87482641  1
  Na  Na48  1  -0.00042731  0.16626198  0.00146693  1
  Na  Na49  1  -0.00130027  0.16690883  0.24931264  1
  Na  Na50  1  -0.00057334  0.16664242  0.49993715  1
  Na  Na51  1  0.00068126  0.16566545  0.74954531  1
  Na  Na52  1  0.00049868  0.50021893  -0.00040679  1
  Na  Na53  1  0.00214870  0.50039708  0.24903694  1
  Na  Na54  1  0.00244248  0.49918772  0.50029348  1
  Na  Na55  1  -0.00154970  0.50098871  0.75168739  1
  Na  Na56  1  -0.00149405  0.83354992  -0.00058269  1
  Na  Na57  1  -0.00060707  0.83347592  0.25008289  1
  Na  Na58  1  0.00048103  0.83240913  0.49917649  1
  Na  Na59  1  -0.00065848  0.83338972  0.75073423  1
  Na  Na60  1  0.50050295  0.16623189  0.00040383  1
  Na  Na61  1  0.49845481  0.16689264  0.24911844  1
  Na  Na62  1  0.49884073  0.16707246  0.50026468  1
  Na  Na63  1  0.50198839  0.16623515  0.75085886  1
  Na  Na64  1  0.49994663  0.49975396  -0.00055454  1
  Na  Na65  1  0.49808626  0.50058302  0.24936164  1
  Na  Na66  1  0.49794928  0.50037878  0.50054101  1
  Na  Na67  1  0.49823611  0.50062977  0.75004211  1
  Na  Na68  1  0.49837508  0.83387051  0.00106123  1
  Na  Na69  1  0.49958475  0.83247138  0.24969047  1
  Na  Na70  1  0.49883957  0.83366045  0.49924250  1
  Na  Na71  1  0.50021525  0.83309780  0.74998244  1
  Na  Na72  1  0.25146915  0.16546074  0.12500635  1
  Na  Na73  1  0.24929371  0.16682444  0.37567854  1
  Na  Na74  1  0.25117043  0.16611501  0.62517721  1
  Na  Na75  1  0.24976289  0.16692640  0.87403998  1
  Na  Na76  1  0.24920507  0.50052261  0.12555786  1
  Na  Na77  1  0.24974415  0.49973351  0.37471467  1
  Na  Na78  1  0.25118494  0.49959100  0.62409407  1
  Na  Na79  1  0.25154015  0.49964384  0.87588166  1
  Na  Na80  1  0.25027192  0.83350764  0.12413095  1
  Na  Na81  1  0.25171954  0.83251035  0.37579401  1
  Na  Na82  1  0.24979025  0.83343852  0.62567182  1
  Na  Na83  1  0.25120536  0.83317616  0.87444374  1
  Na  Na84  1  0.75013268  0.16632048  0.12616820  1
  Na  Na85  1  0.75252900  0.16576043  0.37525910  1
  Na  Na86  1  0.74948188  0.16686579  0.62516660  1
  Na  Na87  1  0.74777849  0.16702660  0.87437811  1
  Na  Na88  1  0.75018763  0.50059675  0.12506155  1
  Na  Na89  1  0.75112866  0.50047455  0.37442421  1
  Na  Na90  1  0.75069565  0.50022161  0.62471728  1
  Na  Na91  1  0.75032378  0.50000371  0.87488313  1
  Na  Na92  1  0.75083561  0.83308615  0.12408868  1
  Na  Na93  1  0.75062232  0.83277728  0.37552645  1
  Na  Na94  1  0.75007165  0.83319386  0.62477517  1
  Na  Na95  1  0.75126583  0.83249761  0.87534544  1
  Mn  Mn96  1  0.89207493  0.91626524  0.12742507  1
  Mn  Mn97  1  0.35779545  0.08266955  0.50198853  1
  Mn  Mn98  1  0.85943834  0.41650479  0.50214762  1
  Mn  Mn99  1  0.35658207  0.41636886  0.25263787  1
  Mn  Mn100  1  0.39152312  0.91620677  0.12747680  1
  Mn  Mn101  1  0.60746002  0.41744427  0.12321455  1
  Mn  Mn102  1  0.14229382  0.58299340  0.74868841  1
  Mn  Mn103  1  0.35852785  0.08368654  0.75299856  1
  Mn  Mn104  1  0.60757493  0.08297328  0.62251891  1
  Mn  Mn105  1  0.60780367  0.08352590  0.12301079  1
  Mn  Mn106  1  0.39206995  0.58360558  0.62758691  1
  Mn  Mn107  1  0.64265129  0.58382974  0.74813225  1
  Mn  Mn108  1  0.14261722  0.25084416  0.74802798  1
  Mn  Mn109  1  0.89240124  0.91647481  0.62705591  1
  Mn  Mn110  1  0.14202854  0.91626322  0.74800215  1
  Mn  Mn111  1  0.89247389  0.25055401  0.62758548  1
  Mn  Mn112  1  0.10803149  0.41624951  0.87272653  1
  Mn  Mn113  1  0.60753949  0.74910328  0.12327106  1
  Mn  Mn114  1  0.39233723  0.91684719  0.37717993  1
  Mn  Mn115  1  0.64257763  0.91613729  0.99738739  1
  Mn  Mn116  1  0.89277126  0.58284788  0.62724403  1
  Mn  Mn117  1  0.64247245  0.58334851  0.49708608  1
  Mn  Mn118  1  0.10777949  0.74979263  0.37248434  1
  Mn  Mn119  1  0.89191108  0.25101828  0.12708643  1
  Mn  Mn120  1  0.89222727  0.91697528  0.37763567  1
  Mn  Mn121  1  0.85673548  0.41629474  0.00247687  1
  Mn  Mn122  1  0.64238802  0.58399513  0.24827302  1
  Mn  Mn123  1  0.10791842  0.08308040  0.62258522  1
  Mn  Mn124  1  0.10791471  0.08347495  0.12249507  1
  Mn  Mn125  1  0.39166069  0.25039783  0.12701161  1
  Mn  Mn126  1  0.64196237  0.25028970  0.49722839  1
  Mn  Mn127  1  0.10786146  0.74960715  0.12259624  1
  Mn  Mn128  1  0.85717101  0.08344117  0.75304658  1
  Mn  Mn129  1  0.14251682  0.24952488  0.99717340  1
  Mn  Mn130  1  0.39326706  0.24941723  0.87782412  1
  Mn  Mn131  1  0.89122029  0.24945059  0.87737885  1
  Mn  Mn132  1  0.14248606  0.91636013  0.24755538  1
  Mn  Mn133  1  0.64213312  0.24983711  0.24886821  1
  Mn  Mn134  1  0.14265723  0.24924549  0.49773508  1
  Mn  Mn135  1  0.60681413  0.41650393  0.37316138  1
  Mn  Mn136  1  0.60735755  0.41725172  0.62263774  1
  Mn  Mn137  1  0.14246729  0.58402272  0.49755294  1
  Mn  Mn138  1  0.85895379  0.41651348  0.25237201  1
  Mn  Mn139  1  0.60741949  0.74958337  0.37253642  1
  Mn  Mn140  1  0.10713496  0.75059257  0.87331602  1
  Mn  Mn141  1  0.60767161  0.75000683  0.87326269  1
  Mn  Mn142  1  0.64208243  0.91688165  0.49762776  1
  Mn  Mn143  1  0.35831566  0.74918414  0.75209557  1
  Fe  Fe144  1  0.64207271  0.25028170  0.99848417  1
  Fe  Fe145  1  0.39269560  0.24941623  0.62754616  1
  Fe  Fe146  1  0.10694875  0.08398560  0.37306530  1
  Fe  Fe147  1  0.10821430  0.41622007  0.37357435  1
  Fe  Fe148  1  0.39265579  0.58362022  0.87756068  1
  Fe  Fe149  1  0.35741016  0.08316356  0.00079701  1
  Fe  Fe150  1  0.39195809  0.58297081  0.12661948  1
  Fe  Fe151  1  0.64318709  0.91629791  0.24884985  1
  Fe  Fe152  1  0.85735241  0.75003197  0.75123081  1
  Fe  Fe153  1  0.89378117  0.25072643  0.37612983  1
  Fe  Fe154  1  0.85750435  0.75063674  0.25172261  1
  Fe  Fe155  1  0.10803016  0.41719480  0.62413438  1
  Fe  Fe156  1  0.64241413  0.25030586  0.74787554  1
  Fe  Fe157  1  0.39142046  0.58265701  0.37658124  1
  Fe  Fe158  1  0.85725907  0.08290316  0.25238867  1
  Fe  Fe159  1  0.14355293  0.58407438  0.99834826  1
  Fe  Fe160  1  0.85734741  0.41677040  0.75193639  1
  Fe  Fe161  1  0.89386428  0.58218881  0.37608713  1
  Fe  Fe162  1  0.85749770  0.08292054  0.50119510  1
  Fe  Fe163  1  0.64263753  0.58332363  0.99832173  1
  Fe  Fe164  1  0.35698925  0.08319300  0.25246082  1
  Fe  Fe165  1  0.10706307  0.74967947  0.62341394  1
  Fe  Fe166  1  0.85762230  0.75085113  0.50232446  1
  Fe  Fe167  1  0.14296032  0.91649116  0.99784020  1
  Fe  Fe168  1  0.60744187  0.08384733  0.37303650  1
  Fe  Fe169  1  0.10766208  0.41721468  0.12269543  1
  Fe  Fe170  1  0.89212151  0.58328008  0.87762624  1
  Fe  Fe171  1  0.35682705  0.41688418  0.50171123  1
  Fe  Fe172  1  0.35713026  0.75025485  0.00145873  1
  Fe  Fe173  1  0.85681541  0.08357177  0.00103996  1
  Fe  Fe174  1  0.64245662  0.91622140  0.74873380  1
  Fe  Fe175  1  0.39275883  0.91680336  0.62652199  1
  Fe  Fe176  1  0.89196085  0.91708053  0.87679990  1
  Fe  Fe177  1  0.60668056  0.41705909  0.87282887  1
  Fe  Fe178  1  0.39298105  0.91652896  0.87672164  1
  Fe  Fe179  1  0.89323687  0.58271632  0.12633579  1
  Fe  Fe180  1  0.35693754  0.75026412  0.25192202  1
  Fe  Fe181  1  0.10708642  0.08301318  0.87433481  1
  Fe  Fe182  1  0.14288432  0.58374756  0.24787341  1
  Fe  Fe183  1  0.60751118  0.08298689  0.87415097  1
  Fe  Fe184  1  0.14254733  0.24971278  0.24878204  1
  Fe  Fe185  1  0.39166156  0.24997137  0.37633667  1
  Fe  Fe186  1  0.35748348  0.41675631  0.00195481  1
  Fe  Fe187  1  0.35716445  0.75045060  0.50251207  1
  Fe  Fe188  1  0.14298090  0.91632060  0.49881419  1
  Fe  Fe189  1  0.35774953  0.41668210  0.75163436  1
  Fe  Fe190  1  0.85734641  0.74999288  0.00191132  1
  Fe  Fe191  1  0.60763085  0.74999678  0.62325881  1
  P  P192  1  0.05475889  0.25072376  0.11099722  1
  P  P193  1  0.05337494  0.24956851  0.35960151  1
  P  P194  1  0.05379805  0.25106355  0.61017085  1
  P  P195  1  0.05306159  0.24851231  0.86025662  1
  P  P196  1  0.05457994  0.58324141  0.11008521  1
  P  P197  1  0.05356988  0.58310284  0.35925682  1
  P  P198  1  0.05389570  0.58354242  0.61062984  1
  P  P199  1  0.05322548  0.58389741  0.86175274  1
  P  P200  1  0.05416543  0.91633194  0.10903661  1
  P  P201  1  0.05457227  0.91731253  0.36102686  1
  P  P202  1  0.05398448  0.91539458  0.60922602  1
  P  P203  1  0.05309621  0.91755562  0.86158576  1
  P  P204  1  0.55371072  0.25025148  0.10945050  1
  P  P205  1  0.55111170  0.24962825  0.35996597  1
  P  P206  1  0.55320311  0.25027854  0.61105562  1
  P  P207  1  0.55572648  0.25014697  0.86097712  1
  P  P208  1  0.55230071  0.58358897  0.10930731  1
  P  P209  1  0.55106210  0.58324666  0.35981194  1
  P  P210  1  0.55360464  0.58441242  0.60999728  1
  P  P211  1  0.55306094  0.58295155  0.86132826  1
  P  P212  1  0.55472652  0.91607643  0.11141279  1
  P  P213  1  0.55405387  0.91713759  0.35898297  1
  P  P214  1  0.55341669  0.91549745  0.61098946  1
  P  P215  1  0.55283146  0.91699611  0.86001678  1
  P  P216  1  0.44423659  0.08320069  0.13956266  1
  P  P217  1  0.44670293  0.08379546  0.38870620  1
  P  P218  1  0.44643602  0.08305413  0.64003151  1
  P  P219  1  0.44802855  0.08219457  0.89077327  1
  P  P220  1  0.44472805  0.41744408  0.13876331  1
  P  P221  1  0.44502762  0.41657517  0.39046295  1
  P  P222  1  0.44460549  0.41594055  0.63972080  1
  P  P223  1  0.44582487  0.41728160  0.88935713  1
  P  P224  1  0.44407832  0.74899561  0.13936236  1
  P  P225  1  0.44415539  0.74922336  0.38936711  1
  P  P226  1  0.44677774  0.75093089  0.63894122  1
  P  P227  1  0.44601909  0.75023187  0.89066529  1
  P  P228  1  0.94447503  0.08337909  0.13956203  1
  P  P229  1  0.94613538  0.08418139  0.38911705  1
  P  P230  1  0.94550373  0.08307481  0.63911108  1
  P  P231  1  0.94687134  0.08271274  0.89089207  1
  P  P232  1  0.94812364  0.41762145  0.13943867  1
  P  P233  1  0.94906754  0.41675011  0.38938420  1
  P  P234  1  0.94809772  0.41672687  0.64126625  1
  P  P235  1  0.94509177  0.41692590  0.88943472  1
  P  P236  1  0.94493801  0.74913067  0.13921154  1
  P  P237  1  0.94480236  0.74920078  0.38904570  1
  P  P238  1  0.94637796  0.75011280  0.63968736  1
  P  P239  1  0.94400147  0.75028594  0.88934988  1
  P  P240  1  0.19644331  0.08423462  0.23629362  1
  P  P241  1  0.19602380  0.08209831  0.48464427  1
  P  P242  1  0.19561913  0.08338461  0.73628879  1
  P  P243  1  0.19755874  0.08237996  0.98411866  1
  P  P244  1  0.19401610  0.41657647  0.23602334  1
  P  P245  1  0.19610333  0.41671394  0.48566676  1
  P  P246  1  0.19801234  0.41710174  0.73439966  1
  P  P247  1  0.19682287  0.41775588  0.98634054  1
  P  P248  1  0.19798574  0.74917948  0.23493757  1
  P  P249  1  0.19662369  0.75090618  0.48642446  1
  P  P250  1  0.19603797  0.74954565  0.73456038  1
  P  P251  1  0.19778111  0.74986234  0.98506458  1
  P  P252  1  0.69645910  0.08268369  0.23656016  1
  P  P253  1  0.69707260  0.08365521  0.48431398  1
  P  P254  1  0.69459293  0.08290609  0.73654804  1
  P  P255  1  0.69699403  0.08378182  0.98479177  1
  P  P256  1  0.69700728  0.41689171  0.23532430  1
  P  P257  1  0.69736978  0.41689258  0.48453193  1
  P  P258  1  0.69648282  0.41669734  0.73588330  1
  P  P259  1  0.69510170  0.41755162  0.98462520  1
  P  P260  1  0.69806569  0.75052092  0.23522704  1
  P  P261  1  0.69684959  0.74999340  0.48581406  1
  P  P262  1  0.69721454  0.75067237  0.73474754  1
  P  P263  1  0.69785939  0.74855537  0.98536593  1
  P  P264  1  0.30352749  0.25000090  0.01467355  1
  P  P265  1  0.30228497  0.24940585  0.26561975  1
  P  P266  1  0.30541197  0.25032960  0.51449257  1
  P  P267  1  0.30499916  0.25096801  0.76423536  1
  P  P268  1  0.30442979  0.58331082  0.01426270  1
  P  P269  1  0.30335122  0.58376885  0.26428047  1
  P  P270  1  0.30466329  0.58340415  0.51358759  1
  P  P271  1  0.30424751  0.58241022  0.76588361  1
  P  P272  1  0.30370063  0.91696327  0.01323144  1
  P  P273  1  0.30326989  0.91671346  0.26502177  1
  P  P274  1  0.30300151  0.91624712  0.51583773  1
  P  P275  1  0.30551367  0.91633252  0.76467688  1
  P  P276  1  0.80133556  0.24929974  0.01490391  1
  P  P277  1  0.80431364  0.24950797  0.26579229  1
  P  P278  1  0.80519475  0.24911127  0.51376730  1
  P  P279  1  0.80172215  0.25092393  0.76488983  1
  P  P280  1  0.80407143  0.58369279  0.01456508  1
  P  P281  1  0.80589221  0.58396556  0.26428811  1
  P  P282  1  0.80554591  0.58377530  0.51358718  1
  P  P283  1  0.80447335  0.58350365  0.76523479  1
  P  P284  1  0.80474392  0.91693542  0.01358572  1
  P  P285  1  0.80269720  0.91658702  0.26497630  1
  P  P286  1  0.80344205  0.91724036  0.51504638  1
  P  P287  1  0.80269378  0.91582978  0.76534085  1
  O  O288  1  0.05887070  0.24960680  0.18770504  1
  O  O289  1  0.05677871  0.24926581  0.43632792  1
  O  O290  1  0.05677447  0.25026626  0.68693579  1
  O  O291  1  0.05629333  0.24937743  0.93706211  1
  O  O292  1  0.05930625  0.58454356  0.18677786  1
  O  O293  1  0.05715105  0.58410812  0.43601389  1
  O  O294  1  0.05612598  0.58381090  0.68740701  1
  O  O295  1  0.05893288  0.58394960  0.93834669  1
  O  O296  1  0.05749746  0.91633024  0.18586953  1
  O  O297  1  0.05881349  0.91636993  0.43768777  1
  O  O298  1  0.05648636  0.91611554  0.68609691  1
  O  O299  1  0.05846299  0.91661539  0.93821332  1
  O  O300  1  0.55683813  0.25014756  0.18622888  1
  O  O301  1  0.55487538  0.24987957  0.43668833  1
  O  O302  1  0.55853663  0.25062583  0.68773325  1
  O  O303  1  0.55934758  0.24999392  0.93780104  1
  O  O304  1  0.55650806  0.58377684  0.18601159  1
  O  O305  1  0.55548665  0.58362313  0.43646848  1
  O  O306  1  0.55692790  0.58381763  0.68680110  1
  O  O307  1  0.55805097  0.58360599  0.93792510  1
  O  O308  1  0.55949213  0.91591789  0.18808120  1
  O  O309  1  0.55680475  0.91654676  0.43585431  1
  O  O310  1  0.55828897  0.91582451  0.68763634  1
  O  O311  1  0.55649675  0.91631912  0.93679140  1
  O  O312  1  0.43988387  0.08303153  0.06281207  1
  O  O313  1  0.44156468  0.08322789  0.31203288  1
  O  O314  1  0.44354740  0.08290842  0.56325076  1
  O  O315  1  0.44455229  0.08305447  0.81406948  1
  O  O316  1  0.44089415  0.41665272  0.06200301  1
  O  O317  1  0.44242916  0.41673094  0.31358682  1
  O  O318  1  0.44042284  0.41669876  0.56298793  1
  O  O319  1  0.44150582  0.41684573  0.81266847  1
  O  O320  1  0.43995221  0.75020661  0.06260845  1
  O  O321  1  0.43997463  0.74993616  0.31254284  1
  O  O322  1  0.44183552  0.75056196  0.56226558  1
  O  O323  1  0.44369411  0.74993382  0.81386751  1
  O  O324  1  0.93979827  0.08348605  0.06284539  1
  O  O325  1  0.94136138  0.08285998  0.31238994  1
  O  O326  1  0.94124291  0.08302191  0.56239156  1
  O  O327  1  0.94329016  0.08328914  0.81409977  1
  O  O328  1  0.94370745  0.41678630  0.06279801  1
  O  O329  1  0.94559515  0.41694208  0.31274041  1
  O  O330  1  0.94461275  0.41655956  0.56449413  1
  O  O331  1  0.94059946  0.41633073  0.81270407  1
  O  O332  1  0.94086959  0.75006729  0.06242882  1
  O  O333  1  0.94088328  0.75078889  0.31224289  1
  O  O334  1  0.94162385  0.75035978  0.56295461  1
  O  O335  1  0.94042512  0.75039061  0.81253583  1
  O  O336  1  0.19390272  0.08291980  0.06086978  1
  O  O337  1  0.19132118  0.08384519  0.31291022  1
  O  O338  1  0.19336691  0.08320252  0.56146326  1
  O  O339  1  0.19094756  0.08324213  0.81296250  1
  O  O340  1  0.19195581  0.41726021  0.06300319  1
  O  O341  1  0.19055703  0.41657531  0.31292456  1
  O  O342  1  0.19148525  0.41680936  0.56231211  1
  O  O343  1  0.19391361  0.41699329  0.81116606  1
  O  O344  1  0.19418475  0.74980213  0.06171460  1
  O  O345  1  0.19426868  0.74947520  0.31163681  1
  O  O346  1  0.19168165  0.74991768  0.56301205  1
  O  O347  1  0.19257631  0.74981584  0.81133464  1
  O  O348  1  0.69377521  0.08314402  0.06155093  1
  O  O349  1  0.69143368  0.08374069  0.31320436  1
  O  O350  1  0.69305949  0.08382363  0.56107367  1
  O  O351  1  0.69053797  0.08268514  0.81327196  1
  O  O352  1  0.69260628  0.41778895  0.06144569  1
  O  O353  1  0.69349484  0.41696192  0.31204805  1
  O  O354  1  0.69349665  0.41704031  0.56131596  1
  O  O355  1  0.69116427  0.41744113  0.81251693  1
  O  O356  1  0.69385786  0.74892933  0.06199594  1
  O  O357  1  0.69415684  0.74956216  0.31192321  1
  O  O358  1  0.69164282  0.74975697  0.56244897  1
  O  O359  1  0.69342255  0.74992803  0.81145410  1
  O  O360  1  0.30590339  0.25002235  0.18892557  1
  O  O361  1  0.30903843  0.24951340  0.43767517  1
  O  O362  1  0.30875222  0.24967267  0.68745357  1
  O  O363  1  0.30666556  0.25032427  0.93788771  1
  O  O364  1  0.30769363  0.58296702  0.18759551  1
  O  O365  1  0.30788685  0.58319756  0.43680407  1
  O  O366  1  0.30690125  0.58349797  0.68904877  1
  O  O367  1  0.30889692  0.58306518  0.93753485  1
  O  O368  1  0.30568020  0.91696375  0.18821220  1
  O  O369  1  0.30668360  0.91700748  0.43912868  1
  O  O370  1  0.30988122  0.91655561  0.68794765  1
  O  O371  1  0.30845721  0.91697697  0.93657485  1
  O  O372  1  0.80676161  0.25064696  0.18896115  1
  O  O373  1  0.81014945  0.25028915  0.43707847  1
  O  O374  1  0.80586369  0.25048273  0.68819885  1
  O  O375  1  0.80483139  0.24999498  0.93822835  1
  O  O376  1  0.80975124  0.58245381  0.18751329  1
  O  O377  1  0.81006471  0.58255522  0.43687989  1
  O  O378  1  0.80725980  0.58320279  0.68841820  1
  O  O379  1  0.80852363  0.58296690  0.93784052  1
  O  O380  1  0.80596888  0.91668889  0.18826666  1
  O  O381  1  0.80628470  0.91702505  0.43827120  1
  O  O382  1  0.80639453  0.91665364  0.68865482  1
  O  O383  1  0.80834142  0.91708064  0.93683085  1
  O  O384  1  0.23393878  0.24954366  0.04007377  1
  O  O385  1  0.23225079  0.25027319  0.29021890  1
  O  O386  1  0.23535992  0.24937813  0.53871157  1
  O  O387  1  0.23517169  0.25110767  0.78893406  1
  O  O388  1  0.23405881  0.58353119  0.03816363  1
  O  O389  1  0.23305560  0.58299237  0.28831178  1
  O  O390  1  0.23486335  0.58337145  0.53848938  1
  O  O391  1  0.23464596  0.58327014  0.79124908  1
  O  O392  1  0.23341332  0.91670986  0.03732995  1
  O  O393  1  0.23379436  0.91619269  0.29071228  1
  O  O394  1  0.23300819  0.91670273  0.54044883  1
  O  O395  1  0.23528542  0.91621100  0.78821915  1
  O  O396  1  0.73136468  0.24982814  0.03977201  1
  O  O397  1  0.73469420  0.24965157  0.29121229  1
  O  O398  1  0.73509566  0.24980832  0.53774033  1
  O  O399  1  0.73158536  0.24999829  0.78902449  1
  O  O400  1  0.73375060  0.58330043  0.03840571  1
  O  O401  1  0.73589007  0.58398619  0.28876718  1
  O  O402  1  0.73556497  0.58364962  0.53787316  1
  O  O403  1  0.73470379  0.58388579  0.79032612  1
  O  O404  1  0.73488983  0.91674379  0.03837954  1
  O  O405  1  0.73288024  0.91637307  0.29021942  1
  O  O406  1  0.73388172  0.91718897  0.54051787  1
  O  O407  1  0.73257291  0.91610492  0.78985929  1
  O  O408  1  0.26680141  0.08340437  0.21265191  1
  O  O409  1  0.26577257  0.08285379  0.45962899  1
  O  O410  1  0.26573290  0.08295844  0.71247949  1
  O  O411  1  0.26768647  0.08312005  0.95961323  1
  O  O412  1  0.26405862  0.41664066  0.21170124  1
  O  O413  1  0.26644966  0.41686496  0.46202029  1
  O  O414  1  0.26804899  0.41679124  0.71016284  1
  O  O415  1  0.26721050  0.41749688  0.96272280  1
  O  O416  1  0.26794452  0.75007901  0.21019907  1
  O  O417  1  0.26696351  0.75037668  0.46276204  1
  O  O418  1  0.26592662  0.74963084  0.71011336  1
  O  O419  1  0.26786664  0.75002454  0.96046488  1
  O  O420  1  0.76682901  0.08331113  0.21293993  1
  O  O421  1  0.76722230  0.08291869  0.46024024  1
  O  O422  1  0.76461513  0.08336929  0.71221260  1
  O  O423  1  0.76697359  0.08331774  0.95984296  1
  O  O424  1  0.76671741  0.41659198  0.21026830  1
  O  O425  1  0.76725376  0.41683401  0.46014802  1
  O  O426  1  0.76690479  0.41722392  0.71228989  1
  O  O427  1  0.76480200  0.41680544  0.95940204  1
  O  O428  1  0.76810530  0.75014285  0.21067763  1
  O  O429  1  0.76730206  0.75037544  0.46257577  1
  O  O430  1  0.76743851  0.74996898  0.71051214  1
  O  O431  1  0.76795285  0.74944580  0.96106026  1
  O  O432  1  0.01476343  0.08328985  0.16295052  1
  O  O433  1  0.01654968  0.08382386  0.41269013  1
  O  O434  1  0.01554368  0.08270609  0.66313065  1
  O  O435  1  0.01680595  0.08300160  0.91578472  1
  O  O436  1  0.01823489  0.41767962  0.16357406  1
  O  O437  1  0.01910399  0.41633304  0.41426693  1
  O  O438  1  0.01810912  0.41739650  0.66594662  1
  O  O439  1  0.01522211  0.41664494  0.91334283  1
  O  O440  1  0.01498397  0.74996651  0.16340304  1
  O  O441  1  0.01491925  0.74945029  0.41304040  1
  O  O442  1  0.01660671  0.75000546  0.66359292  1
  O  O443  1  0.01403158  0.75003467  0.91385972  1
  O  O444  1  0.51447818  0.08360708  0.16306360  1
  O  O445  1  0.51699526  0.08343499  0.41262888  1
  O  O446  1  0.51604488  0.08311651  0.66533712  1
  O  O447  1  0.51809399  0.08287716  0.91543154  1
  O  O448  1  0.51457113  0.41743682  0.16338272  1
  O  O449  1  0.51454378  0.41641545  0.41624318  1
  O  O450  1  0.51463701  0.41701589  0.66391347  1
  O  O451  1  0.51623190  0.41656450  0.91297775  1
  O  O452  1  0.51411240  0.74918976  0.16356899  1
  O  O453  1  0.51430398  0.75027302  0.41324986  1
  O  O454  1  0.51692218  0.75019873  0.66315947  1
  O  O455  1  0.51560007  0.75012931  0.91632605  1
  O  O456  1  0.48395799  0.25007691  0.08456236  1
  O  O457  1  0.48113225  0.25024671  0.33509569  1
  O  O458  1  0.48276907  0.24974790  0.58787638  1
  O  O459  1  0.48563155  0.25011937  0.83675318  1
  O  O460  1  0.48204844  0.58309334  0.08544058  1
  O  O461  1  0.48088040  0.58301607  0.33575624  1
  O  O462  1  0.48377556  0.58392404  0.58535917  1
  O  O463  1  0.48267370  0.58362366  0.83764802  1
  O  O464  1  0.48452443  0.91637673  0.08784327  1
  O  O465  1  0.48432020  0.91658829  0.33396674  1
  O  O466  1  0.48320300  0.91647919  0.58681397  1
  O  O467  1  0.48272634  0.91613498  0.83562808  1
  O  O468  1  0.98475155  0.25040600  0.08662039  1
  O  O469  1  0.98334605  0.25018393  0.33479342  1
  O  O470  1  0.98423484  0.25049144  0.58476245  1
  O  O471  1  0.98344276  0.24922465  0.83502590  1
  O  O472  1  0.98415157  0.58323223  0.08657088  1
  O  O473  1  0.98348050  0.58337751  0.33482816  1
  O  O474  1  0.98450243  0.58293496  0.58461542  1
  O  O475  1  0.98272132  0.58401046  0.83875499  1
  O  O476  1  0.98422524  0.91633846  0.08486976  1
  O  O477  1  0.98454410  0.91719142  0.33662427  1
  O  O478  1  0.98442683  0.91637334  0.58374008  1
  O  O479  1  0.98271606  0.91689659  0.83793694  1
  O  O480  1  0.08819481  0.31605235  0.07836934  1
  O  O481  1  0.08784384  0.31444021  0.32732978  1
  O  O482  1  0.08771404  0.31647388  0.57829419  1
  O  O483  1  0.08763443  0.31351505  0.82795603  1
  O  O484  1  0.08782483  0.64814047  0.07616380  1
  O  O485  1  0.08745259  0.64798791  0.32596861  1
  O  O486  1  0.08773636  0.64878352  0.57802140  1
  O  O487  1  0.08627762  0.64883118  0.82811089  1
  O  O488  1  0.08822760  0.98136709  0.07652974  1
  O  O489  1  0.08799620  0.98260632  0.32829466  1
  O  O490  1  0.08900383  0.97997315  0.57680002  1
  O  O491  1  0.08606800  0.98281965  0.82842438  1
  O  O492  1  0.58779716  0.31528780  0.07703326  1
  O  O493  1  0.58520513  0.31462189  0.32738381  1
  O  O494  1  0.58599030  0.31535081  0.57729967  1
  O  O495  1  0.58915046  0.31538989  0.82791878  1
  O  O496  1  0.58583465  0.64864413  0.07617487  1
  O  O497  1  0.58456772  0.64836414  0.32668588  1
  O  O498  1  0.58729131  0.64966929  0.57760125  1
  O  O499  1  0.58658798  0.64785877  0.82785463  1
  O  O500  1  0.58813091  0.98114074  0.07827674  1
  O  O501  1  0.58812923  0.98234691  0.32695855  1
  O  O502  1  0.58708563  0.98046647  0.57771124  1
  O  O503  1  0.58639299  0.98222261  0.82747641  1
  O  O504  1  0.41096746  0.01812931  0.17296427  1
  O  O505  1  0.41347144  0.01871773  0.42229947  1
  O  O506  1  0.41244683  0.01789588  0.67229950  1
  O  O507  1  0.41428929  0.01697100  0.92315782  1
  O  O508  1  0.41109093  0.35253628  0.17205809  1
  O  O509  1  0.41049949  0.35154076  0.42244929  1
  O  O510  1  0.41148998  0.35060077  0.67267024  1
  O  O511  1  0.41209137  0.35248744  0.92289894  1
  O  O512  1  0.41048947  0.68363274  0.17174367  1
  O  O513  1  0.41094803  0.68392459  0.42215969  1
  O  O514  1  0.41310004  0.68594250  0.67224157  1
  O  O515  1  0.41140962  0.68529499  0.92285394  1
  O  O516  1  0.91117538  0.01828390  0.17299520  1
  O  O517  1  0.91259463  0.01944031  0.42304105  1
  O  O518  1  0.91186232  0.01816748  0.67232648  1
  O  O519  1  0.91273343  0.01767005  0.92320670  1
  O  O520  1  0.91461323  0.35262649  0.17267652  1
  O  O521  1  0.91506021  0.35176633  0.42199684  1
  O  O522  1  0.91419556  0.35167244  0.67399775  1
  O  O523  1  0.91165102  0.35185416  0.92271180  1
  O  O524  1  0.91172874  0.68367004  0.17160521  1
  O  O525  1  0.91146760  0.68378151  0.42136391  1
  O  O526  1  0.91273089  0.68516790  0.67282033  1
  O  O527  1  0.91017443  0.68528436  0.92233554  1
  O  O528  1  0.16287705  0.01940697  0.20268831  1
  O  O529  1  0.16213735  0.01678492  0.45272073  1
  O  O530  1  0.16197132  0.01841007  0.70316716  1
  O  O531  1  0.16379341  0.01726757  0.95146259  1
  O  O532  1  0.16043483  0.35144298  0.20324438  1
  O  O533  1  0.16287631  0.35159306  0.45230932  1
  O  O534  1  0.16381627  0.35237920  0.70145108  1
  O  O535  1  0.16362365  0.35270722  0.95275514  1
  O  O536  1  0.16463945  0.68390000  0.20218062  1
  O  O537  1  0.16321755  0.68612417  0.45250417  1
  O  O538  1  0.16212694  0.68445400  0.70203094  1
  O  O539  1  0.16416915  0.68467141  0.95237235  1
  O  O540  1  0.66361002  0.01734509  0.20339604  1
  O  O541  1  0.66267382  0.01885707  0.45178251  1
  O  O542  1  0.66153747  0.01737261  0.70363915  1
  O  O543  1  0.66272508  0.01890038  0.95195571  1
  O  O544  1  0.66264406  0.35186939  0.20314423  1
  O  O545  1  0.66342018  0.35172939  0.45211724  1
  O  O546  1  0.66343338  0.35146096  0.70262510  1
  O  O547  1  0.66040387  0.35268966  0.95255305  1
  O  O548  1  0.66417615  0.68553303  0.20223401  1
  O  O549  1  0.66391815  0.68507177  0.45183835  1
  O  O550  1  0.66307515  0.68594114  0.70159610  1
  O  O551  1  0.66453155  0.68341099  0.95236908  1
  O  O552  1  0.33722289  0.31524538  0.04729492  1
  O  O553  1  0.33653922  0.31427671  0.29840335  1
  O  O554  1  0.33854546  0.31580392  0.54705743  1
  O  O555  1  0.33881608  0.31615867  0.79656233  1
  O  O556  1  0.33788329  0.64849350  0.04712024  1
  O  O557  1  0.33661132  0.64897048  0.29718669  1
  O  O558  1  0.33836183  0.64854183  0.54641693  1
  O  O559  1  0.33915804  0.64706149  0.79838553  1
  O  O560  1  0.33690282  0.98206707  0.04656291  1
  O  O561  1  0.33722957  0.98184722  0.29751724  1
  O  O562  1  0.33725931  0.98108865  0.54871393  1
  O  O563  1  0.33912430  0.98114036  0.79820958  1
  O  O564  1  0.83537190  0.31428135  0.04782927  1
  O  O565  1  0.83893442  0.31432560  0.29838159  1
  O  O566  1  0.83895626  0.31397112  0.54727735  1
  O  O567  1  0.83498016  0.31607071  0.79779321  1
  O  O568  1  0.83773928  0.64873845  0.04741203  1
  O  O569  1  0.83969519  0.64924561  0.29645395  1
  O  O570  1  0.83900823  0.64917516  0.54615365  1
  O  O571  1  0.83875964  0.64864053  0.79729403  1
  O  O572  1  0.83823041  0.98206931  0.04646993  1
  O  O573  1  0.83661743  0.98166732  0.29764690  1
  O  O574  1  0.83750853  0.98245598  0.54712422  1
  O  O575  1  0.83680947  0.98065542  0.79848802  1
  O  O576  1  0.41047774  0.14807670  0.17275021  1
  O  O577  1  0.41329774  0.14880422  0.42176755  1
  O  O578  1  0.41238918  0.14818707  0.67249824  1
  O  O579  1  0.41371543  0.14701249  0.92360279  1
  O  O580  1  0.41089321  0.48255477  0.17133121  1
  O  O581  1  0.41067576  0.48169266  0.42265633  1
  O  O582  1  0.41045215  0.48066612  0.67299362  1
  O  O583  1  0.41261231  0.48243486  0.92259067  1
  O  O584  1  0.41028208  0.81377360  0.17290983  1
  O  O585  1  0.41015093  0.81401661  0.42272358  1
  O  O586  1  0.41354676  0.81597682  0.67211363  1
  O  O587  1  0.41176737  0.81541355  0.92280343  1
  O  O588  1  0.91096071  0.14833418  0.17275716  1
  O  O589  1  0.91303277  0.14951565  0.42188449  1
  O  O590  1  0.91221275  0.14818859  0.67239281  1
  O  O591  1  0.91262240  0.14763795  0.92371092  1
  O  O592  1  0.91450834  0.48273017  0.17210415  1
  O  O593  1  0.91563703  0.48193529  0.42227460  1
  O  O594  1  0.91352402  0.48149333  0.67368201  1
  O  O595  1  0.91182354  0.48219139  0.92231366  1
  O  O596  1  0.91086159  0.81380619  0.17270839  1
  O  O597  1  0.91102490  0.81394076  0.42283592  1
  O  O598  1  0.91278646  0.81501351  0.67305700  1
  O  O599  1  0.91047147  0.81544623  0.92226565  1
  O  O600  1  0.08834628  0.18575707  0.07769984  1
  O  O601  1  0.08697245  0.18442479  0.32657595  1
  O  O602  1  0.08814957  0.18619553  0.57748941  1
  O  O603  1  0.08687823  0.18317536  0.82831996  1
  O  O604  1  0.08818293  0.51814581  0.07723169  1
  O  O605  1  0.08750377  0.51794636  0.32712113  1
  O  O606  1  0.08860589  0.51849020  0.57881918  1
  O  O607  1  0.08623924  0.51877451  0.82817339  1
  O  O608  1  0.08820076  0.85137629  0.07633456  1
  O  O609  1  0.08794893  0.85223809  0.32760640  1
  O  O610  1  0.08784049  0.84994597  0.57723694  1
  O  O611  1  0.08656652  0.85269618  0.82790596  1
  O  O612  1  0.58803801  0.18531826  0.07697465  1
  O  O613  1  0.58487504  0.18452126  0.32726977  1
  O  O614  1  0.58654670  0.18526602  0.57770147  1
  O  O615  1  0.58925974  0.18504566  0.82806922  1
  O  O616  1  0.58646109  0.51880055  0.07646705  1
  O  O617  1  0.58482875  0.51824586  0.32706223  1
  O  O618  1  0.58753430  0.51936402  0.57731978  1
  O  O619  1  0.58593099  0.51768982  0.82790363  1
  O  O620  1  0.58779181  0.85100433  0.07788943  1
  O  O621  1  0.58854944  0.85218458  0.32657243  1
  O  O622  1  0.58644586  0.85031028  0.57765956  1
  O  O623  1  0.58719870  0.85222677  0.82707720  1
  O  O624  1  0.33774292  0.18475353  0.04652215  1
  O  O625  1  0.33607158  0.18432468  0.29832901  1
  O  O626  1  0.33960524  0.18563697  0.54770370  1
  O  O627  1  0.33867595  0.18607863  0.79766249  1
  O  O628  1  0.33770883  0.51836180  0.04787355  1
  O  O629  1  0.33713039  0.51894578  0.29778682  1
  O  O630  1  0.33835626  0.51829964  0.54633853  1
  O  O631  1  0.33813109  0.51705960  0.79785539  1
  O  O632  1  0.33714171  0.85190782  0.04653358  1
  O  O633  1  0.33771934  0.85164732  0.29689357  1
  O  O634  1  0.33696035  0.85111791  0.54835080  1
  O  O635  1  0.33902714  0.85130695  0.79775064  1
  O  O636  1  0.83522435  0.18420076  0.04716885  1
  O  O637  1  0.83870583  0.18434383  0.29750910  1
  O  O638  1  0.83805861  0.18348190  0.54648783  1
  O  O639  1  0.83564442  0.18595061  0.79783782  1
  O  O640  1  0.83775258  0.51881669  0.04810650  1
  O  O641  1  0.83980744  0.51918320  0.29788361  1
  O  O642  1  0.83913118  0.51889267  0.54713948  1
  O  O643  1  0.83848330  0.51848796  0.79792621  1
  O  O644  1  0.83844713  0.85172187  0.04630575  1
  O  O645  1  0.83691057  0.85160639  0.29736913  1
  O  O646  1  0.83764927  0.85207507  0.54729327  1
  O  O647  1  0.83666284  0.85070001  0.79761336  1
  O  O648  1  0.16368457  0.14953974  0.20288496  1
  O  O649  1  0.16139920  0.14680888  0.45186283  1
  O  O650  1  0.16258451  0.14857994  0.70297470  1
  O  O651  1  0.16324316  0.14718525  0.95134518  1
  O  O652  1  0.16045222  0.48173497  0.20308691  1
  O  O653  1  0.16249399  0.48149210  0.45211434  1
  O  O654  1  0.16432554  0.48228351  0.70173500  1
  O  O655  1  0.16362758  0.48283128  0.95305428  1
  O  O656  1  0.16368533  0.81394557  0.20221014  1
  O  O657  1  0.16364993  0.81618903  0.45321755  1
  O  O658  1  0.16179613  0.81440993  0.70191667  1
  O  O659  1  0.16387754  0.81483973  0.95225839  1
  O  O660  1  0.66288746  0.14755370  0.20304121  1
  O  O661  1  0.66358739  0.14876445  0.45122873  1
  O  O662  1  0.66092351  0.14794776  0.70353505  1
  O  O663  1  0.66293284  0.14882428  0.95250991  1
  O  O664  1  0.66312774  0.48207999  0.20279823  1
  O  O665  1  0.66342970  0.48184482  0.45180495  1
  O  O666  1  0.66315945  0.48173043  0.70238832  1
  O  O667  1  0.66134028  0.48289009  0.95208454  1
  O  O668  1  0.66441109  0.81568788  0.20273808  1
  O  O669  1  0.66348346  0.81504374  0.45263800  1
  O  O670  1  0.66360406  0.81598946  0.70223893  1
  O  O671  1  0.66389736  0.81348744  0.95242513  1
