# generated using pymatgen
data_Na2MnFe(PO4)2
_symmetry_space_group_name_H-M   'P 1'
_cell_length_a   21.08636464
_cell_length_b   18.93985736
_cell_length_c   20.04538705
_cell_angle_alpha   89.99977666
_cell_angle_beta   89.99942079
_cell_angle_gamma   89.99959678
_symmetry_Int_Tables_number   1
_chemical_formula_structural   Na2MnFe(PO4)2
_chemical_formula_sum   'Na96 Mn48 Fe48 P96 O384'
_cell_volume   8005.58111929
_cell_formula_units_Z   48
loop_
 _symmetry_equiv_pos_site_id
 _symmetry_equiv_pos_as_xyz
  1  'x, y, z'
loop_
 _atom_site_type_symbol
 _atom_site_label
 _atom_site_symmetry_multiplicity
 _atom_site_fract_x
 _atom_site_fract_y
 _atom_site_fract_z
 _atom_site_occupancy
  Na  Na0  1  0.00209274  -0.00018261  -0.00000983  1
  Na  Na1  1  -0.00071678  -0.00089505  0.25078658  1
  Na  Na2  1  0.00107177  0.00019326  0.50078542  1
  Na  Na3  1  0.00290871  0.00050306  0.74932811  1
  Na  Na4  1  -0.00177036  0.33284809  0.00115015  1
  Na  Na5  1  0.00031130  0.33357944  0.25038255  1
  Na  Na6  1  0.00032597  0.33396657  0.49872287  1
  Na  Na7  1  -0.00106782  0.33343087  0.74949565  1
  Na  Na8  1  -0.00034316  0.66630083  0.00085693  1
  Na  Na9  1  -0.00078360  0.66611071  0.25102161  1
  Na  Na10  1  -0.00149546  0.66587521  0.49887761  1
  Na  Na11  1  0.00110264  0.66735176  0.74909646  1
  Na  Na12  1  0.49690850  -0.00086101  0.00095066  1
  Na  Na13  1  0.49864443  -0.00031411  0.25054264  1
  Na  Na14  1  0.50310572  0.00138034  0.49880778  1
  Na  Na15  1  0.50081720  0.00051588  0.74957464  1
  Na  Na16  1  0.49836271  0.33280417  0.00149982  1
  Na  Na17  1  0.49914700  0.33349637  0.24935505  1
  Na  Na18  1  0.49928780  0.33273973  0.49813120  1
  Na  Na19  1  0.50066966  0.33397911  0.75008941  1
  Na  Na20  1  0.49696971  0.66625519  0.00087003  1
  Na  Na21  1  0.49906031  0.66672179  0.25038422  1
  Na  Na22  1  0.50164618  0.66699263  0.49883631  1
  Na  Na23  1  0.49892868  0.66636265  0.74987960  1
  Na  Na24  1  0.25135227  0.00078808  0.12644161  1
  Na  Na25  1  0.24905505  0.00007283  0.37513976  1
  Na  Na26  1  0.24639727  -0.00073572  0.62475625  1
  Na  Na27  1  0.24809463  -0.00059237  0.87445273  1
  Na  Na28  1  0.25108656  0.33415012  0.12620797  1
  Na  Na29  1  0.24894291  0.33302642  0.37575944  1
  Na  Na30  1  0.24962823  0.33302942  0.62398012  1
  Na  Na31  1  0.25114445  0.33352121  0.87406329  1
  Na  Na32  1  0.25240590  0.66753152  0.12541209  1
  Na  Na33  1  0.24859174  0.66542974  0.37481613  1
  Na  Na34  1  0.25016888  0.66642534  0.62514809  1
  Na  Na35  1  0.25142626  0.66674831  0.87433314  1
  Na  Na36  1  0.75062278  -0.00010883  0.12545500  1
  Na  Na37  1  0.75031213  0.00051890  0.37520190  1
  Na  Na38  1  0.74817435  -0.00104072  0.62408650  1
  Na  Na39  1  0.75109970  0.00043428  0.87524542  1
  Na  Na40  1  0.75227910  0.33407325  0.12520444  1
  Na  Na41  1  0.75121640  0.33381538  0.37586089  1
  Na  Na42  1  0.75110887  0.33364677  0.62488375  1
  Na  Na43  1  0.75118773  0.33348128  0.87424144  1
  Na  Na44  1  0.75108931  0.66727863  0.12567435  1
  Na  Na45  1  0.75115377  0.66711278  0.37486926  1
  Na  Na46  1  0.75020116  0.66677520  0.62421484  1
  Na  Na47  1  0.74894082  0.66630129  0.87527383  1
  Na  Na48  1  0.00027192  0.16716716  0.00057480  1
  Na  Na49  1  0.00197419  0.16645327  0.25121718  1
  Na  Na50  1  0.00063995  0.16648798  0.49947284  1
  Na  Na51  1  0.00183770  0.16590761  0.74923141  1
  Na  Na52  1  -0.00170996  0.50073923  0.00120184  1
  Na  Na53  1  -0.00169910  0.50088230  0.25017567  1
  Na  Na54  1  0.00004243  0.49985738  0.49868249  1
  Na  Na55  1  -0.00073311  0.50038348  0.74947627  1
  Na  Na56  1  0.00153615  0.83319071  0.00023498  1
  Na  Na57  1  -0.00131311  0.83373506  0.25095782  1
  Na  Na58  1  0.00008838  0.83265460  0.50027663  1
  Na  Na59  1  0.00095668  0.83328581  0.74913679  1
  Na  Na60  1  0.49848069  0.16665205  0.00160103  1
  Na  Na61  1  0.49985660  0.16633074  0.24871151  1
  Na  Na62  1  0.50088502  0.16638178  0.49891925  1
  Na  Na63  1  0.49956523  0.16667088  0.75030586  1
  Na  Na64  1  0.49659593  0.50117139  0.00135232  1
  Na  Na65  1  0.49709616  0.50129294  0.25041242  1
  Na  Na66  1  0.50076062  0.49958841  0.49836020  1
  Na  Na67  1  0.49895946  0.50053182  0.74972194  1
  Na  Na68  1  0.49806522  0.83309839  0.00048886  1
  Na  Na69  1  0.49892713  0.83347755  0.25076553  1
  Na  Na70  1  0.50326322  0.83211154  0.49889056  1
  Na  Na71  1  0.50126325  0.83278613  0.74930486  1
  Na  Na72  1  0.25147195  0.16568089  0.12607039  1
  Na  Na73  1  0.24797829  0.16741464  0.37643621  1
  Na  Na74  1  0.24862291  0.16703742  0.62468296  1
  Na  Na75  1  0.24994369  0.16630275  0.87364158  1
  Na  Na76  1  0.25254384  0.49974149  0.12576085  1
  Na  Na77  1  0.25028258  0.50035485  0.37486485  1
  Na  Na78  1  0.25007230  0.50098071  0.62438478  1
  Na  Na79  1  0.25245221  0.49998378  0.87436784  1
  Na  Na80  1  0.25052705  0.83248258  0.12638033  1
  Na  Na81  1  0.24867368  0.83335123  0.37432714  1
  Na  Na82  1  0.24720466  0.83374857  0.62487121  1
  Na  Na83  1  0.24863936  0.83353765  0.87470607  1
  Na  Na84  1  0.75055353  0.16648427  0.12571180  1
  Na  Na85  1  0.74958420  0.16693475  0.37512259  1
  Na  Na86  1  0.75114095  0.16585868  0.62459314  1
  Na  Na87  1  0.74931070  0.16740877  0.87432201  1
  Na  Na88  1  0.75317415  0.49917941  0.12574696  1
  Na  Na89  1  0.75272930  0.49950543  0.37533057  1
  Na  Na90  1  0.74944741  0.50089960  0.62433332  1
  Na  Na91  1  0.75136458  0.49966651  0.87440843  1
  Na  Na92  1  0.75089444  0.83260808  0.12480052  1
  Na  Na93  1  0.74980438  0.83285280  0.37547711  1
  Na  Na94  1  0.74882381  0.83380585  0.62421181  1
  Na  Na95  1  0.75027841  0.83296644  0.87626072  1
  Mn  Mn96  1  0.35739876  0.08265960  0.75099057  1
  Mn  Mn97  1  0.64117025  0.58337408  0.74759391  1
  Mn  Mn98  1  0.39265426  0.91675143  0.62618019  1
  Mn  Mn99  1  0.10748720  0.74928077  0.62170168  1
  Mn  Mn100  1  0.35903621  0.41655419  0.75122542  1
  Mn  Mn101  1  0.39268005  0.91681563  0.37825035  1
  Mn  Mn102  1  0.10756179  0.41693066  0.12307998  1
  Mn  Mn103  1  0.64243975  0.25024089  0.49773092  1
  Mn  Mn104  1  0.60682569  0.08225931  0.12264323  1
  Mn  Mn105  1  0.64263393  0.91670734  0.24745714  1
  Mn  Mn106  1  0.35733703  0.75051546  0.50183528  1
  Mn  Mn107  1  0.89301217  0.24953417  0.37747683  1
  Mn  Mn108  1  0.85850205  0.74962661  0.00226671  1
  Mn  Mn109  1  0.14254353  0.58314222  0.74775713  1
  Mn  Mn110  1  0.89224838  0.58432894  0.87729428  1
  Mn  Mn111  1  0.10796008  0.74966833  0.12336507  1
  Mn  Mn112  1  0.35807002  0.75091046  0.75106972  1
  Mn  Mn113  1  0.14251521  0.91649375  0.24812719  1
  Mn  Mn114  1  0.14250599  0.24998263  0.99789699  1
  Mn  Mn115  1  0.64145219  0.91698938  0.99809742  1
  Mn  Mn116  1  0.60779110  0.41636538  0.37217291  1
  Mn  Mn117  1  0.60729244  0.08321401  0.87356103  1
  Mn  Mn118  1  0.35715142  0.41670510  0.50212913  1
  Mn  Mn119  1  0.89262304  0.91669790  0.12723769  1
  Mn  Mn120  1  0.64180903  0.24984450  0.74724045  1
  Mn  Mn121  1  0.89234362  0.91692372  0.62729679  1
  Mn  Mn122  1  0.39163815  0.25020983  0.87762689  1
  Mn  Mn123  1  0.89257464  0.24918024  0.87733406  1
  Mn  Mn124  1  0.64189153  0.91675552  0.74831324  1
  Mn  Mn125  1  0.64280958  0.25039027  0.99837130  1
  Mn  Mn126  1  0.64201664  0.58268976  0.99884749  1
  Mn  Mn127  1  0.39145366  0.24986091  0.12825295  1
  Mn  Mn128  1  0.10827794  0.41703155  0.87340687  1
  Mn  Mn129  1  0.85845318  0.08264232  0.75205689  1
  Mn  Mn130  1  0.85770848  0.41684185  0.75187982  1
  Mn  Mn131  1  0.10742115  0.41683646  0.62241772  1
  Mn  Mn132  1  0.14189590  0.25033218  0.74730451  1
  Mn  Mn133  1  0.64310658  0.58266003  0.24785280  1
  Mn  Mn134  1  0.60755127  0.41762904  0.12305174  1
  Mn  Mn135  1  0.39065128  0.91636902  0.87721192  1
  Mn  Mn136  1  0.60750576  0.41696415  0.87396373  1
  Mn  Mn137  1  0.60686435  0.74978878  0.87344541  1
  Mn  Mn138  1  0.35705530  0.08281728  0.50219140  1
  Mn  Mn139  1  0.85792023  0.08326915  0.25281197  1
  Mn  Mn140  1  0.85905316  0.08378332  0.00213426  1
  Mn  Mn141  1  0.10856776  0.08343162  0.12305811  1
  Mn  Mn142  1  0.14306011  0.58354426  0.99818594  1
  Mn  Mn143  1  0.85778014  0.75043216  0.75223841  1
  Fe  Fe144  1  0.10697945  0.08407128  0.62235792  1
  Fe  Fe145  1  0.39203679  0.58339965  0.87706098  1
  Fe  Fe146  1  0.39252235  0.24992824  0.37641024  1
  Fe  Fe147  1  0.89275315  0.91637422  0.37737734  1
  Fe  Fe148  1  0.85822673  0.41669197  0.00179902  1
  Fe  Fe149  1  0.64318354  0.91640625  0.49803643  1
  Fe  Fe150  1  0.39349839  0.58319856  0.62516768  1
  Fe  Fe151  1  0.35661530  0.08291998  0.00125028  1
  Fe  Fe152  1  0.35688728  0.75067963  0.00214460  1
  Fe  Fe153  1  0.35689460  0.08383289  0.25311736  1
  Fe  Fe154  1  0.14343204  0.25070396  0.24856523  1
  Fe  Fe155  1  0.39194233  0.58413599  0.12757936  1
  Fe  Fe156  1  0.85667908  0.74998515  0.50155119  1
  Fe  Fe157  1  0.39266179  0.58341972  0.37726495  1
  Fe  Fe158  1  0.60765348  0.08379214  0.37274595  1
  Fe  Fe159  1  0.10826007  0.74994229  0.87383549  1
  Fe  Fe160  1  0.89277587  0.24994110  0.12780376  1
  Fe  Fe161  1  0.60621200  0.74997763  0.12388083  1
  Fe  Fe162  1  0.89317718  0.25008703  0.62590601  1
  Fe  Fe163  1  0.60792768  0.74964032  0.62285255  1
  Fe  Fe164  1  0.10826807  0.08305898  0.87350431  1
  Fe  Fe165  1  0.60782211  0.08373687  0.62294783  1
  Fe  Fe166  1  0.35663160  0.41635224  0.25256595  1
  Fe  Fe167  1  0.85779045  0.41672379  0.50205802  1
  Fe  Fe168  1  0.85743872  0.74986363  0.25229640  1
  Fe  Fe169  1  0.89236935  0.58291514  0.62621300  1
  Fe  Fe170  1  0.14324289  0.58282421  0.24850637  1
  Fe  Fe171  1  0.64325392  0.58349815  0.49800088  1
  Fe  Fe172  1  0.10680049  0.08309958  0.37370185  1
  Fe  Fe173  1  0.89423325  0.91664662  0.87640076  1
  Fe  Fe174  1  0.14159988  0.91611435  0.49740072  1
  Fe  Fe175  1  0.14198179  0.58347856  0.49771945  1
  Fe  Fe176  1  0.64302132  0.25051629  0.24848887  1
  Fe  Fe177  1  0.85723269  0.08324698  0.50185047  1
  Fe  Fe178  1  0.10699305  0.41720925  0.37281077  1
  Fe  Fe179  1  0.14204181  0.25046147  0.49805903  1
  Fe  Fe180  1  0.89327849  0.58385687  0.37709689  1
  Fe  Fe181  1  0.89247954  0.58339621  0.12757654  1
  Fe  Fe182  1  0.85780315  0.41654391  0.25207790  1
  Fe  Fe183  1  0.14326871  0.91639534  0.99866360  1
  Fe  Fe184  1  0.39280342  0.25004343  0.62556932  1
  Fe  Fe185  1  0.39130852  0.91587667  0.12683554  1
  Fe  Fe186  1  0.35723604  0.74969240  0.25285106  1
  Fe  Fe187  1  0.14186811  0.91622102  0.74832627  1
  Fe  Fe188  1  0.35770513  0.41641171  0.00215427  1
  Fe  Fe189  1  0.60739127  0.41668001  0.62287348  1
  Fe  Fe190  1  0.10618975  0.74956019  0.37324939  1
  Fe  Fe191  1  0.60777250  0.74984877  0.37246732  1
  P  P192  1  0.05362385  0.25046706  0.11166823  1
  P  P193  1  0.05564034  0.25032008  0.36076394  1
  P  P194  1  0.05277146  0.25003584  0.60890198  1
  P  P195  1  0.05362819  0.24976972  0.86008374  1
  P  P196  1  0.05337572  0.58318569  0.11174696  1
  P  P197  1  0.05419304  0.58335514  0.36057856  1
  P  P198  1  0.05242920  0.58309085  0.60865172  1
  P  P199  1  0.05358958  0.58413032  0.86024417  1
  P  P200  1  0.05456127  0.91639451  0.10979913  1
  P  P201  1  0.05324914  0.91625056  0.36157989  1
  P  P202  1  0.05508710  0.91699963  0.61026739  1
  P  P203  1  0.05522463  0.91619432  0.86082652  1
  P  P204  1  0.55422368  0.25030180  0.11154009  1
  P  P205  1  0.55299443  0.24947461  0.35877190  1
  P  P206  1  0.55222416  0.25023379  0.60944346  1
  P  P207  1  0.55304833  0.25012888  0.86048879  1
  P  P208  1  0.55167547  0.58439663  0.11101232  1
  P  P209  1  0.55389544  0.58371713  0.36085699  1
  P  P210  1  0.55316194  0.58316123  0.60878198  1
  P  P211  1  0.55148493  0.58326866  0.86065921  1
  P  P212  1  0.55127949  0.91540978  0.11066238  1
  P  P213  1  0.55547340  0.91668611  0.36105733  1
  P  P214  1  0.55450021  0.91672714  0.60882405  1
  P  P215  1  0.55203121  0.91657400  0.86012508  1
  P  P216  1  0.44347303  0.08199803  0.13984279  1
  P  P217  1  0.44644984  0.08451785  0.38873351  1
  P  P218  1  0.44799134  0.08379243  0.63894602  1
  P  P219  1  0.44543434  0.08312013  0.89083042  1
  P  P220  1  0.44410452  0.41757255  0.14025684  1
  P  P221  1  0.44475943  0.41640929  0.38830385  1
  P  P222  1  0.44798756  0.41667555  0.63847789  1
  P  P223  1  0.44594791  0.41734718  0.89104928  1
  P  P224  1  0.44475044  0.75032453  0.14006579  1
  P  P225  1  0.44667537  0.74924082  0.38896298  1
  P  P226  1  0.44828059  0.74953571  0.63865640  1
  P  P227  1  0.44517467  0.74955319  0.89059930  1
  P  P228  1  0.94731391  0.08403714  0.14071598  1
  P  P229  1  0.94709021  0.08235049  0.39079703  1
  P  P230  1  0.94672122  0.08409818  0.63834498  1
  P  P231  1  0.94905372  0.08192802  0.88958937  1
  P  P232  1  0.94475330  0.41658378  0.14000368  1
  P  P233  1  0.94580491  0.41739617  0.38894631  1
  P  P234  1  0.94515825  0.41683095  0.63800635  1
  P  P235  1  0.94643032  0.41692742  0.89080367  1
  P  P236  1  0.94623044  0.74939131  0.14129222  1
  P  P237  1  0.94544062  0.75000859  0.38935941  1
  P  P238  1  0.94499955  0.74904931  0.63822963  1
  P  P239  1  0.94862204  0.75127128  0.88975129  1
  P  P240  1  0.19637404  0.08415174  0.23720867  1
  P  P241  1  0.19399711  0.08331619  0.48561155  1
  P  P242  1  0.19410784  0.08264449  0.73494138  1
  P  P243  1  0.19750143  0.08252508  0.98498565  1
  P  P244  1  0.19629414  0.41717612  0.23687539  1
  P  P245  1  0.19533582  0.41718417  0.48425524  1
  P  P246  1  0.19728783  0.41692638  0.73425740  1
  P  P247  1  0.19875789  0.41704944  0.98539644  1
  P  P248  1  0.19634549  0.74868304  0.23680829  1
  P  P249  1  0.19545684  0.74955872  0.48385855  1
  P  P250  1  0.19524084  0.75022559  0.73575899  1
  P  P251  1  0.19770122  0.75035802  0.98515354  1
  P  P252  1  0.69534301  0.08422492  0.23609440  1
  P  P253  1  0.69598729  0.08301126  0.48538833  1
  P  P254  1  0.69628073  0.08311088  0.73403900  1
  P  P255  1  0.69729570  0.08347317  0.98512820  1
  P  P256  1  0.69821258  0.41612469  0.23536181  1
  P  P257  1  0.69673066  0.41750038  0.48611321  1
  P  P258  1  0.69566003  0.41678587  0.73392506  1
  P  P259  1  0.69866511  0.41694956  0.98524590  1
  P  P260  1  0.69631523  0.74972121  0.23553940  1
  P  P261  1  0.69564985  0.74945810  0.48548192  1
  P  P262  1  0.69589653  0.75006510  0.73420905  1
  P  P263  1  0.69531642  0.74958682  0.98664837  1
  P  P264  1  0.30308149  0.24969525  0.01534723  1
  P  P265  1  0.30270433  0.25009027  0.26636147  1
  P  P266  1  0.30332393  0.24975846  0.51407848  1
  P  P267  1  0.30473666  0.24973239  0.76304992  1
  P  P268  1  0.30530406  0.58373617  0.01468319  1
  P  P269  1  0.30446148  0.58357235  0.26484506  1
  P  P270  1  0.30337663  0.58372157  0.51400590  1
  P  P271  1  0.30601664  0.58359420  0.76364978  1
  P  P272  1  0.30209724  0.91643253  0.01572077  1
  P  P273  1  0.30484634  0.91640439  0.26458788  1
  P  P274  1  0.30112591  0.91651986  0.51491169  1
  P  P275  1  0.30148101  0.91676574  0.76423162  1
  P  P276  1  0.80475154  0.25055546  0.01591750  1
  P  P277  1  0.80369491  0.25060445  0.26463033  1
  P  P278  1  0.80445718  0.24981622  0.51521076  1
  P  P279  1  0.80467408  0.24964043  0.76351400  1
  P  P280  1  0.80429354  0.58285715  0.01601008  1
  P  P281  1  0.80579511  0.58349418  0.26486636  1
  P  P282  1  0.80450695  0.58364121  0.51373398  1
  P  P283  1  0.80381805  0.58369196  0.76383601  1
  P  P284  1  0.80471776  0.91670257  0.01414148  1
  P  P285  1  0.80441652  0.91572114  0.26607140  1
  P  P286  1  0.80378349  0.91658317  0.51336500  1
  P  P287  1  0.80401031  0.91654046  0.76601737  1
  O  O288  1  0.05919535  0.25060347  0.18831528  1
  O  O289  1  0.05906714  0.25058295  0.43754761  1
  O  O290  1  0.05614168  0.25071770  0.68562881  1
  O  O291  1  0.05648648  0.25047865  0.93693673  1
  O  O292  1  0.05881555  0.58304201  0.18836940  1
  O  O293  1  0.05859746  0.58322998  0.43724835  1
  O  O294  1  0.05668914  0.58321920  0.68532690  1
  O  O295  1  0.05668978  0.58343024  0.93706460  1
  O  O296  1  0.05751375  0.91633690  0.18663725  1
  O  O297  1  0.05754074  0.91605877  0.43828504  1
  O  O298  1  0.05880652  0.91614579  0.68705539  1
  O  O299  1  0.05962462  0.91615096  0.93757653  1
  O  O300  1  0.55901793  0.25071173  0.18823198  1
  O  O301  1  0.55705753  0.25011430  0.43549047  1
  O  O302  1  0.55546647  0.25024623  0.68613634  1
  O  O303  1  0.55630274  0.24998793  0.93728566  1
  O  O304  1  0.55615658  0.58348398  0.18765001  1
  O  O305  1  0.55931436  0.58302711  0.43744643  1
  O  O306  1  0.55580027  0.58328235  0.68555810  1
  O  O307  1  0.55540348  0.58323848  0.93733852  1
  O  O308  1  0.55557596  0.91631706  0.18733172  1
  O  O309  1  0.56007234  0.91663407  0.43777131  1
  O  O310  1  0.55659650  0.91674067  0.68562599  1
  O  O311  1  0.55504196  0.91666886  0.93691139  1
  O  O312  1  0.43908955  0.08288826  0.06308081  1
  O  O313  1  0.44115172  0.08384577  0.31209391  1
  O  O314  1  0.44394113  0.08303076  0.56224570  1
  O  O315  1  0.44258759  0.08296775  0.81400764  1
  O  O316  1  0.44014490  0.41640404  0.06347148  1
  O  O317  1  0.44041974  0.41652236  0.31157901  1
  O  O318  1  0.44427845  0.41647958  0.56176665  1
  O  O319  1  0.44381120  0.41642212  0.81420720  1
  O  O320  1  0.44023541  0.75057604  0.06337065  1
  O  O321  1  0.44144521  0.74976361  0.31233690  1
  O  O322  1  0.44441003  0.75037155  0.56199821  1
  O  O323  1  0.44294154  0.75081112  0.81376413  1
  O  O324  1  0.94468350  0.08366925  0.06393439  1
  O  O325  1  0.94351859  0.08303348  0.31409821  1
  O  O326  1  0.94150678  0.08311956  0.56171175  1
  O  O327  1  0.94541207  0.08245080  0.81288762  1
  O  O328  1  0.94123698  0.41660318  0.06323351  1
  O  O329  1  0.94120166  0.41654514  0.31226760  1
  O  O330  1  0.94167211  0.41692907  0.56115941  1
  O  O331  1  0.94332263  0.41700940  0.81395803  1
  O  O332  1  0.94376239  0.74990792  0.06447285  1
  O  O333  1  0.94128952  0.75018929  0.31269174  1
  O  O334  1  0.94057318  0.74978220  0.56149134  1
  O  O335  1  0.94486250  0.75060472  0.81305332  1
  O  O336  1  0.19441824  0.08338842  0.06177868  1
  O  O337  1  0.19105911  0.08319085  0.31380867  1
  O  O338  1  0.19026343  0.08374580  0.56244116  1
  O  O339  1  0.19064729  0.08359014  0.81178689  1
  O  O340  1  0.19448429  0.41725113  0.06211910  1
  O  O341  1  0.19134532  0.41751201  0.31348032  1
  O  O342  1  0.19270031  0.41729349  0.56105185  1
  O  O343  1  0.19421555  0.41698275  0.81103423  1
  O  O344  1  0.19418284  0.74945722  0.06190004  1
  O  O345  1  0.19070027  0.74927006  0.31334885  1
  O  O346  1  0.19300643  0.74916835  0.56073255  1
  O  O347  1  0.19163529  0.74944224  0.81249688  1
  O  O348  1  0.69345351  0.08286532  0.06192739  1
  O  O349  1  0.69116576  0.08368927  0.31290471  1
  O  O350  1  0.69110711  0.08375292  0.56207210  1
  O  O351  1  0.69285372  0.08352494  0.81079197  1
  O  O352  1  0.69431958  0.41730986  0.06194238  1
  O  O353  1  0.69423888  0.41681519  0.31207869  1
  O  O354  1  0.69125530  0.41689200  0.56269277  1
  O  O355  1  0.69251829  0.41674382  0.81072395  1
  O  O356  1  0.69045640  0.74976219  0.06338045  1
  O  O357  1  0.69132789  0.74964755  0.31228964  1
  O  O358  1  0.69113219  0.74940501  0.56218136  1
  O  O359  1  0.69259616  0.74975144  0.81101185  1
  O  O360  1  0.30601709  0.24994807  0.18961616  1
  O  O361  1  0.30852561  0.24969190  0.43748465  1
  O  O362  1  0.30940147  0.24991206  0.68626399  1
  O  O363  1  0.30540512  0.24979878  0.93852963  1
  O  O364  1  0.30869594  0.58400872  0.18810276  1
  O  O365  1  0.30863099  0.58364643  0.43734319  1
  O  O366  1  0.31059726  0.58354565  0.68684001  1
  O  O367  1  0.30847852  0.58355616  0.93784851  1
  O  O368  1  0.30821865  0.91614617  0.18783353  1
  O  O369  1  0.30595535  0.91665445  0.43825837  1
  O  O370  1  0.30581002  0.91668088  0.68757579  1
  O  O371  1  0.30481801  0.91632967  0.93896315  1
  O  O372  1  0.80840637  0.24974990  0.18800494  1
  O  O373  1  0.80731012  0.24974959  0.43836888  1
  O  O374  1  0.80941005  0.24939553  0.68681635  1
  O  O375  1  0.80737864  0.24955141  0.93903340  1
  O  O376  1  0.80926769  0.58374925  0.18808536  1
  O  O377  1  0.80922866  0.58354262  0.43701495  1
  O  O378  1  0.80815815  0.58376430  0.68709783  1
  O  O379  1  0.80688925  0.58396087  0.93914948  1
  O  O380  1  0.80729742  0.91646734  0.18926070  1
  O  O381  1  0.80856076  0.91674726  0.43672204  1
  O  O382  1  0.80710260  0.91661228  0.68916421  1
  O  O383  1  0.80973100  0.91671166  0.93747360  1
  O  O384  1  0.23367981  0.24986276  0.04154691  1
  O  O385  1  0.23258211  0.25033108  0.29078388  1
  O  O386  1  0.23265862  0.25014210  0.53693204  1
  O  O387  1  0.23470813  0.24977833  0.78702397  1
  O  O388  1  0.23548092  0.58383473  0.03984572  1
  O  O389  1  0.23401327  0.58305797  0.28846316  1
  O  O390  1  0.23279229  0.58361695  0.53700465  1
  O  O391  1  0.23590314  0.58330441  0.78750820  1
  O  O392  1  0.23225272  0.91645098  0.04122215  1
  O  O393  1  0.23485207  0.91660519  0.28910656  1
  O  O394  1  0.23085954  0.91641487  0.53840114  1
  O  O395  1  0.23147020  0.91663220  0.78863479  1
  O  O396  1  0.73514920  0.24999939  0.04135055  1
  O  O397  1  0.73353019  0.25061345  0.28889521  1
  O  O398  1  0.73467348  0.24994827  0.54012691  1
  O  O399  1  0.73463698  0.25025823  0.78746241  1
  O  O400  1  0.73472188  0.58331907  0.04164285  1
  O  O401  1  0.73580868  0.58324393  0.28941195  1
  O  O402  1  0.73402807  0.58380581  0.53726388  1
  O  O403  1  0.73387911  0.58311985  0.78819502  1
  O  O404  1  0.73469499  0.91636595  0.03836816  1
  O  O405  1  0.73464245  0.91656752  0.29091110  1
  O  O406  1  0.73334270  0.91625194  0.53698468  1
  O  O407  1  0.73429104  0.91661220  0.79088878  1
  O  O408  1  0.26683364  0.08374951  0.21396077  1
  O  O409  1  0.26405802  0.08323266  0.46134638  1
  O  O410  1  0.26400686  0.08314529  0.71019896  1
  O  O411  1  0.26739620  0.08279272  0.95988910  1
  O  O412  1  0.26676058  0.41708192  0.21343331  1
  O  O413  1  0.26512700  0.41697060  0.45929492  1
  O  O414  1  0.26684597  0.41695841  0.70883684  1
  O  O415  1  0.26882536  0.41694560  0.96104917  1
  O  O416  1  0.26683496  0.74935055  0.21368703  1
  O  O417  1  0.26508665  0.74964108  0.45844580  1
  O  O418  1  0.26503521  0.75016707  0.71073888  1
  O  O419  1  0.26775154  0.75014859  0.96055300  1
  O  O420  1  0.76542254  0.08302588  0.21215973  1
  O  O421  1  0.76658001  0.08373148  0.46211309  1
  O  O422  1  0.76609274  0.08229850  0.70923964  1
  O  O423  1  0.76705216  0.08400908  0.96029675  1
  O  O424  1  0.76837152  0.41675537  0.21133267  1
  O  O425  1  0.76733307  0.41685763  0.46304479  1
  O  O426  1  0.76548049  0.41704596  0.70921610  1
  O  O427  1  0.76867087  0.41679637  0.96076691  1
  O  O428  1  0.76688152  0.74972406  0.21261726  1
  O  O429  1  0.76620366  0.74966815  0.46204040  1
  O  O430  1  0.76560556  0.75053919  0.70922069  1
  O  O431  1  0.76545321  0.74940529  0.96275673  1
  O  O432  1  0.01686904  0.08317911  0.16630641  1
  O  O433  1  0.01729795  0.08305631  0.41487571  1
  O  O434  1  0.01716525  0.08370673  0.66172091  1
  O  O435  1  0.01903104  0.08269031  0.91448975  1
  O  O436  1  0.01475224  0.41701760  0.16454928  1
  O  O437  1  0.01637601  0.41707409  0.41204012  1
  O  O438  1  0.01493247  0.41696234  0.66300868  1
  O  O439  1  0.01604067  0.41695814  0.91620884  1
  O  O440  1  0.01585953  0.74999779  0.16672923  1
  O  O441  1  0.01585699  0.74939388  0.41313304  1
  O  O442  1  0.01509319  0.74984072  0.66213727  1
  O  O443  1  0.01852646  0.75034613  0.91475189  1
  O  O444  1  0.51370884  0.08266151  0.16349041  1
  O  O445  1  0.51698108  0.08397109  0.41181462  1
  O  O446  1  0.51805198  0.08357277  0.66343951  1
  O  O447  1  0.51496735  0.08303699  0.91640483  1
  O  O448  1  0.51419067  0.41755352  0.16439078  1
  O  O449  1  0.51486992  0.41631549  0.41224254  1
  O  O450  1  0.51785715  0.41719300  0.66358612  1
  O  O451  1  0.51531390  0.41690234  0.91725317  1
  O  O452  1  0.51508640  0.75007259  0.16406950  1
  O  O453  1  0.51721428  0.74958772  0.41197677  1
  O  O454  1  0.51828970  0.74950232  0.66332781  1
  O  O455  1  0.51463510  0.74977101  0.91640942  1
  O  O456  1  0.48390851  0.24990102  0.08823897  1
  O  O457  1  0.48278712  0.25004523  0.33468205  1
  O  O458  1  0.48233163  0.24983302  0.58407604  1
  O  O459  1  0.48339751  0.25023868  0.83536317  1
  O  O460  1  0.48140206  0.58404591  0.08729273  1
  O  O461  1  0.48336157  0.58355401  0.33773847  1
  O  O462  1  0.48314537  0.58323567  0.58356551  1
  O  O463  1  0.48152683  0.58353320  0.83597464  1
  O  O464  1  0.48110694  0.91570304  0.08658902  1
  O  O465  1  0.48528211  0.91663323  0.33740630  1
  O  O466  1  0.48496595  0.91677302  0.58270741  1
  O  O467  1  0.48252038  0.91645632  0.83452693  1
  O  O468  1  0.98324540  0.25038192  0.08844263  1
  O  O469  1  0.98552266  0.25017278  0.33653972  1
  O  O470  1  0.98282880  0.25030377  0.58403733  1
  O  O471  1  0.98411798  0.24952911  0.83444348  1
  O  O472  1  0.98291548  0.58314195  0.08865566  1
  O  O473  1  0.98360271  0.58356267  0.33737671  1
  O  O474  1  0.98230217  0.58281532  0.58450199  1
  O  O475  1  0.98400910  0.58417747  0.83476625  1
  O  O476  1  0.98488564  0.91641564  0.08490235  1
  O  O477  1  0.98295527  0.91630549  0.33761708  1
  O  O478  1  0.98500936  0.91632139  0.58619253  1
  O  O479  1  0.98511598  0.91656747  0.83619753  1
  O  O480  1  0.08666778  0.31545155  0.07796491  1
  O  O481  1  0.08914655  0.31541005  0.32763143  1
  O  O482  1  0.08699067  0.31485709  0.57603755  1
  O  O483  1  0.08756803  0.31495026  0.82757478  1
  O  O484  1  0.08643728  0.64828851  0.07832252  1
  O  O485  1  0.08750553  0.64840491  0.32725326  1
  O  O486  1  0.08609739  0.64811180  0.57553198  1
  O  O487  1  0.08783090  0.64929040  0.82823319  1
  O  O488  1  0.08893174  0.98130143  0.07744119  1
  O  O489  1  0.08663433  0.98141862  0.32853760  1
  O  O490  1  0.08841517  0.98226866  0.57760711  1
  O  O491  1  0.08902587  0.98120980  0.82784472  1
  O  O492  1  0.58712934  0.31555433  0.07817665  1
  O  O493  1  0.58714783  0.31441507  0.32590715  1
  O  O494  1  0.58596038  0.31541060  0.57669889  1
  O  O495  1  0.58716932  0.31522561  0.82818375  1
  O  O496  1  0.58495135  0.64962966  0.07831306  1
  O  O497  1  0.58702298  0.64879080  0.32756212  1
  O  O498  1  0.58745726  0.64813880  0.57631233  1
  O  O499  1  0.58538811  0.64820350  0.82775275  1
  O  O500  1  0.58499169  0.98033004  0.07741085  1
  O  O501  1  0.58857590  0.98192841  0.32792840  1
  O  O502  1  0.58911157  0.98176086  0.57673084  1
  O  O503  1  0.58632874  0.98157896  0.82786512  1
  O  O504  1  0.41032948  0.01675967  0.17275403  1
  O  O505  1  0.41318445  0.01966892  0.42263628  1
  O  O506  1  0.41418852  0.01869449  0.67187281  1
  O  O507  1  0.41081858  0.01818086  0.92308989  1
  O  O508  1  0.41027633  0.35265525  0.17361709  1
  O  O509  1  0.41137702  0.35116349  0.42121377  1
  O  O510  1  0.41429287  0.35154608  0.67123214  1
  O  O511  1  0.41105468  0.35263727  0.92351703  1
  O  O512  1  0.41120725  0.68520506  0.17327518  1
  O  O513  1  0.41364875  0.68411524  0.42222603  1
  O  O514  1  0.41430632  0.68442448  0.67085876  1
  O  O515  1  0.41088818  0.68431892  0.92231541  1
  O  O516  1  0.91271768  0.01905351  0.17280343  1
  O  O517  1  0.91343653  0.01730952  0.42361205  1
  O  O518  1  0.91371097  0.01911765  0.67217063  1
  O  O519  1  0.91555329  0.01672981  0.92223822  1
  O  O520  1  0.91125250  0.35138738  0.17311013  1
  O  O521  1  0.91238538  0.35256949  0.42263341  1
  O  O522  1  0.91163087  0.35153231  0.67056117  1
  O  O523  1  0.91211351  0.35187714  0.92306726  1
  O  O524  1  0.91210655  0.68425322  0.17347336  1
  O  O525  1  0.91171745  0.68497350  0.42237627  1
  O  O526  1  0.91213906  0.68353567  0.67105311  1
  O  O527  1  0.91414442  0.68656556  0.92258563  1
  O  O528  1  0.16325952  0.01923018  0.20339879  1
  O  O529  1  0.16030670  0.01817022  0.45271724  1
  O  O530  1  0.16036176  0.01736061  0.70273778  1
  O  O531  1  0.16358641  0.01721507  0.95294437  1
  O  O532  1  0.16328555  0.35190868  0.20362857  1
  O  O533  1  0.16104609  0.35211212  0.45206184  1
  O  O534  1  0.16301169  0.35191627  0.70192376  1
  O  O535  1  0.16501918  0.35196944  0.95269848  1
  O  O536  1  0.16373343  0.68343548  0.20315887  1
  O  O537  1  0.16105806  0.68457915  0.45156533  1
  O  O538  1  0.16154471  0.68529248  0.70246055  1
  O  O539  1  0.16367284  0.68560116  0.95196218  1
  O  O540  1  0.66144789  0.01935496  0.20286623  1
  O  O541  1  0.66304407  0.01780331  0.45214121  1
  O  O542  1  0.66172756  0.01827458  0.70169687  1
  O  O543  1  0.66352491  0.01832504  0.95246596  1
  O  O544  1  0.66461876  0.35109184  0.20269103  1
  O  O545  1  0.66348670  0.35251963  0.45245784  1
  O  O546  1  0.66165145  0.35179019  0.70113410  1
  O  O547  1  0.66489571  0.35185197  0.95260057  1
  O  O548  1  0.66297165  0.68474075  0.20219459  1
  O  O549  1  0.66259005  0.68432868  0.45194009  1
  O  O550  1  0.66192410  0.68502583  0.70137776  1
  O  O551  1  0.66195509  0.68444130  0.95351004  1
  O  O552  1  0.33760681  0.31464314  0.04757504  1
  O  O553  1  0.33665614  0.31515186  0.29886279  1
  O  O554  1  0.33671980  0.31471438  0.54753166  1
  O  O555  1  0.33820463  0.31476826  0.79620860  1
  O  O556  1  0.33912481  0.64900271  0.04730623  1
  O  O557  1  0.33767377  0.64859212  0.29843801  1
  O  O558  1  0.33666070  0.64864930  0.54747277  1
  O  O559  1  0.33929070  0.64871274  0.79683758  1
  O  O560  1  0.33637613  0.98137905  0.04807133  1
  O  O561  1  0.33846755  0.98152189  0.29745236  1
  O  O562  1  0.33461509  0.98154164  0.54797985  1
  O  O563  1  0.33498209  0.98183007  0.79712929  1
  O  O564  1  0.83874569  0.31594702  0.04775136  1
  O  O565  1  0.83733632  0.31565812  0.29752829  1
  O  O566  1  0.83875632  0.31488058  0.54738023  1
  O  O567  1  0.83844713  0.31457441  0.79649236  1
  O  O568  1  0.83910765  0.64753014  0.04864451  1
  O  O569  1  0.83941537  0.64862034  0.29788093  1
  O  O570  1  0.83779822  0.64872075  0.54700009  1
  O  O571  1  0.83701518  0.64889700  0.79710950  1
  O  O572  1  0.83805032  0.98184306  0.04742191  1
  O  O573  1  0.83913562  0.98036262  0.29883353  1
  O  O574  1  0.83669354  0.98178552  0.54688365  1
  O  O575  1  0.83857955  0.98140662  0.79838112  1
  O  O576  1  0.40976307  0.14692320  0.17341382  1
  O  O577  1  0.41356619  0.14979466  0.42189100  1
  O  O578  1  0.41411375  0.14887093  0.67134347  1
  O  O579  1  0.41108862  0.14807723  0.92325100  1
  O  O580  1  0.41030740  0.48273349  0.17271329  1
  O  O581  1  0.41143387  0.48157465  0.42145369  1
  O  O582  1  0.41388115  0.48180734  0.67074092  1
  O  O583  1  0.41156815  0.48266273  0.92258201  1
  O  O584  1  0.41126073  0.81526275  0.17346623  1
  O  O585  1  0.41359307  0.81421778  0.42273005  1
  O  O586  1  0.41447452  0.81457557  0.67169798  1
  O  O587  1  0.41044848  0.81426458  0.92332402  1
  O  O588  1  0.91344884  0.14922761  0.17316660  1
  O  O589  1  0.91299822  0.14731131  0.42355492  1
  O  O590  1  0.91393127  0.14942908  0.67142969  1
  O  O591  1  0.91484958  0.14680436  0.92231214  1
  O  O592  1  0.91073001  0.48152958  0.17286187  1
  O  O593  1  0.91259128  0.48252410  0.42211182  1
  O  O594  1  0.91139528  0.48200848  0.67068548  1
  O  O595  1  0.91202249  0.48187639  0.92316987  1
  O  O596  1  0.91156642  0.81422903  0.17364367  1
  O  O597  1  0.91224005  0.81498405  0.42300235  1
  O  O598  1  0.91143792  0.81394076  0.67157874  1
  O  O599  1  0.91512971  0.81655843  0.92231529  1
  O  O600  1  0.08685835  0.18539520  0.07832282  1
  O  O601  1  0.08924813  0.18508650  0.32813659  1
  O  O602  1  0.08687755  0.18500115  0.57653884  1
  O  O603  1  0.08801803  0.18462675  0.82831451  1
  O  O604  1  0.08654744  0.51836277  0.07793675  1
  O  O605  1  0.08731152  0.51831501  0.32691900  1
  O  O606  1  0.08656266  0.51832843  0.57573957  1
  O  O607  1  0.08756082  0.51899872  0.82763100  1
  O  O608  1  0.08883193  0.85143327  0.07740257  1
  O  O609  1  0.08657085  0.85117769  0.32829987  1
  O  O610  1  0.08904613  0.85227533  0.57686561  1
  O  O611  1  0.08858660  0.85098689  0.82763572  1
  O  O612  1  0.58749916  0.18519819  0.07848187  1
  O  O613  1  0.58682850  0.18440687  0.32623916  1
  O  O614  1  0.58652385  0.18527677  0.57698563  1
  O  O615  1  0.58702756  0.18508390  0.82784812  1
  O  O616  1  0.58527391  0.51942629  0.07771742  1
  O  O617  1  0.58685407  0.51864679  0.32707686  1
  O  O618  1  0.58732126  0.51815619  0.57621049  1
  O  O619  1  0.58517710  0.51819480  0.82786514  1
  O  O620  1  0.58491574  0.85021090  0.07820538  1
  O  O621  1  0.58867549  0.85143440  0.32791497  1
  O  O622  1  0.58901097  0.85156866  0.57678242  1
  O  O623  1  0.58640686  0.85152504  0.82800875  1
  O  O624  1  0.33720514  0.18443385  0.04736468  1
  O  O625  1  0.33654492  0.18512871  0.29926214  1
  O  O626  1  0.33631559  0.18477074  0.54777173  1
  O  O627  1  0.33799123  0.18460608  0.79612561  1
  O  O628  1  0.33926069  0.51884207  0.04760789  1
  O  O629  1  0.33807857  0.51860360  0.29791939  1
  O  O630  1  0.33674335  0.51873374  0.54741644  1
  O  O631  1  0.33977796  0.51873739  0.79687666  1
  O  O632  1  0.33625196  0.85132090  0.04824979  1
  O  O633  1  0.33827787  0.85120020  0.29754563  1
  O  O634  1  0.33467643  0.85142294  0.54777547  1
  O  O635  1  0.33524126  0.85180424  0.79714519  1
  O  O636  1  0.83957201  0.18592198  0.04861503  1
  O  O637  1  0.83710025  0.18559926  0.29815467  1
  O  O638  1  0.83862119  0.18470281  0.54749617  1
  O  O639  1  0.83775994  0.18441940  0.79689425  1
  O  O640  1  0.83854092  0.51756540  0.04774585  1
  O  O641  1  0.83978219  0.51848969  0.29760423  1
  O  O642  1  0.83778305  0.51860410  0.54716700  1
  O  O643  1  0.83788505  0.51885956  0.79665007  1
  O  O644  1  0.83836335  0.85168104  0.04730986  1
  O  O645  1  0.83810866  0.85032233  0.29829195  1
  O  O646  1  0.83696733  0.85150683  0.54664341  1
  O  O647  1  0.83827320  0.85158524  0.79852815  1
  O  O648  1  0.16359127  0.14946611  0.20390950  1
  O  O649  1  0.16031625  0.14835063  0.45267281  1
  O  O650  1  0.15996661  0.14741045  0.70167355  1
  O  O651  1  0.16323516  0.14727972  0.95205723  1
  O  O652  1  0.16335433  0.48220894  0.20309443  1
  O  O653  1  0.16129009  0.48224294  0.45166985  1
  O  O654  1  0.16301098  0.48190332  0.70188912  1
  O  O655  1  0.16521860  0.48213145  0.95245593  1
  O  O656  1  0.16312296  0.81369010  0.20324426  1
  O  O657  1  0.16098143  0.81467017  0.45184286  1
  O  O658  1  0.16129024  0.81533724  0.70336839  1
  O  O659  1  0.16380846  0.81558339  0.95290998  1
  O  O660  1  0.66243982  0.14967200  0.20340111  1
  O  O661  1  0.66236169  0.14787123  0.45181203  1
  O  O662  1  0.66254427  0.14819952  0.70101208  1
  O  O663  1  0.66314277  0.14856008  0.95290884  1
  O  O664  1  0.66443761  0.48113717  0.20231857  1
  O  O665  1  0.66402179  0.48266020  0.45248612  1
  O  O666  1  0.66137972  0.48170545  0.70135746  1
  O  O667  1  0.66489327  0.48202886  0.95240326  1
  O  O668  1  0.66304785  0.81470219  0.20206147  1
  O  O669  1  0.66230986  0.81444756  0.45209597  1
  O  O670  1  0.66149421  0.81497779  0.70182480  1
  O  O671  1  0.66198631  0.81462610  0.95333715  1
