# generated using pymatgen
data_Na2MnFe(PO4)2
_symmetry_space_group_name_H-M   'P 1'
_cell_length_a   21.09048496
_cell_length_b   18.94343654
_cell_length_c   20.04888888
_cell_angle_alpha   89.99967568
_cell_angle_beta   90.00009617
_cell_angle_gamma   89.99796131
_symmetry_Int_Tables_number   1
_chemical_formula_structural   Na2MnFe(PO4)2
_chemical_formula_sum   'Na96 Mn48 Fe48 P96 O384'
_cell_volume   8010.05765626
_cell_formula_units_Z   48
loop_
 _symmetry_equiv_pos_site_id
 _symmetry_equiv_pos_as_xyz
  1  'x, y, z'
loop_
 _atom_site_type_symbol
 _atom_site_label
 _atom_site_symmetry_multiplicity
 _atom_site_fract_x
 _atom_site_fract_y
 _atom_site_fract_z
 _atom_site_occupancy
  Na  Na0  1  0.00117028  0.00051631  -0.00038892  1
  Na  Na1  1  -0.00043552  -0.00024183  0.24970939  1
  Na  Na2  1  0.00176866  0.00108557  0.50040095  1
  Na  Na3  1  0.00091663  0.00011249  0.75032908  1
  Na  Na4  1  0.00119097  0.33382962  -0.00111018  1
  Na  Na5  1  -0.00011501  0.33302432  0.25094962  1
  Na  Na6  1  -0.00058832  0.33357287  0.50037239  1
  Na  Na7  1  -0.00092230  0.33291966  0.74988821  1
  Na  Na8  1  -0.00128282  0.66544655  0.00021054  1
  Na  Na9  1  -0.00018571  0.66590440  0.25063577  1
  Na  Na10  1  -0.00082530  0.66545658  0.50037035  1
  Na  Na11  1  -0.00011220  0.66602140  0.74961073  1
  Na  Na12  1  0.49833566  -0.00024345  0.00044371  1
  Na  Na13  1  0.50048250  0.00062560  0.24919528  1
  Na  Na14  1  0.50041156  0.00067005  0.49995345  1
  Na  Na15  1  0.49931250  0.00018239  0.75005207  1
  Na  Na16  1  0.49808908  0.33288210  0.00039993  1
  Na  Na17  1  0.49763457  0.33243408  0.24898805  1
  Na  Na18  1  0.49926194  0.33293945  0.49985154  1
  Na  Na19  1  0.49945438  0.33316202  0.75045081  1
  Na  Na20  1  0.50152002  0.66742242  -0.00016754  1
  Na  Na21  1  0.50307595  0.66720840  0.25062438  1
  Na  Na22  1  0.50273476  0.66710381  0.49991761  1
  Na  Na23  1  0.50104819  0.66732557  0.74912040  1
  Na  Na24  1  0.24762599  0.00031052  0.12474638  1
  Na  Na25  1  0.24675062  -0.00032017  0.37568005  1
  Na  Na26  1  0.24745230  -0.00047276  0.62491613  1
  Na  Na27  1  0.24913614  0.00026947  0.87560541  1
  Na  Na28  1  0.25175622  0.33392810  0.12618660  1
  Na  Na29  1  0.24980468  0.33284854  0.37479540  1
  Na  Na30  1  0.25124601  0.33401350  0.62497473  1
  Na  Na31  1  0.25000259  0.33273799  0.87403421  1
  Na  Na32  1  0.24846850  0.66584792  0.12495976  1
  Na  Na33  1  0.24952053  0.66616986  0.37477322  1
  Na  Na34  1  0.25002706  0.66638484  0.62520611  1
  Na  Na35  1  0.24963910  0.66649518  0.87525471  1
  Na  Na36  1  0.75073961  -0.00012613  0.12431653  1
  Na  Na37  1  0.75201027  0.00112224  0.37495616  1
  Na  Na38  1  0.74971794  -0.00016606  0.62422935  1
  Na  Na39  1  0.75264898  0.00143269  0.87610848  1
  Na  Na40  1  0.75090128  0.33324458  0.12524866  1
  Na  Na41  1  0.75088597  0.33338545  0.37509028  1
  Na  Na42  1  0.75167244  0.33390891  0.62505582  1
  Na  Na43  1  0.74979835  0.33269019  0.87425232  1
  Na  Na44  1  0.74984352  0.66662189  0.12477415  1
  Na  Na45  1  0.74829859  0.66577344  0.37508468  1
  Na  Na46  1  0.74893261  0.66621538  0.62523630  1
  Na  Na47  1  0.74983066  0.66633806  0.87478307  1
  Na  Na48  1  0.00166059  0.16616619  -0.00120516  1
  Na  Na49  1  0.00146186  0.16634312  0.25101901  1
  Na  Na50  1  0.00097844  0.16633232  0.49906549  1
  Na  Na51  1  0.00132690  0.16651798  0.75113670  1
  Na  Na52  1  -0.00050963  0.50028881  -0.00016489  1
  Na  Na53  1  -0.00056939  0.50043589  0.25063990  1
  Na  Na54  1  -0.00023956  0.50041676  0.50095705  1
  Na  Na55  1  -0.00108813  0.50037157  0.74857165  1
  Na  Na56  1  -0.00043779  0.83439531  0.00013901  1
  Na  Na57  1  -0.00078751  0.83402306  0.24968811  1
  Na  Na58  1  -0.00118512  0.83438014  0.50099520  1
  Na  Na59  1  -0.00006394  0.83389544  0.75026733  1
  Na  Na60  1  0.49852535  0.16698488  0.00029765  1
  Na  Na61  1  0.49958340  0.16653156  0.24922609  1
  Na  Na62  1  0.50032738  0.16769371  0.50024882  1
  Na  Na63  1  0.50082628  0.16653561  0.75033788  1
  Na  Na64  1  0.49824666  0.50007790  0.00078572  1
  Na  Na65  1  0.50054230  0.49961531  0.24972886  1
  Na  Na66  1  0.50172217  0.49894522  0.49895031  1
  Na  Na67  1  0.49991653  0.49953836  0.75028189  1
  Na  Na68  1  0.50091519  0.83275368  -0.00031683  1
  Na  Na69  1  0.50187443  0.83248473  0.25000173  1
  Na  Na70  1  0.50017099  0.83273447  0.50054459  1
  Na  Na71  1  0.49969221  0.83266654  0.74908168  1
  Na  Na72  1  0.24887001  0.16653782  0.12601040  1
  Na  Na73  1  0.24929906  0.16681401  0.37490328  1
  Na  Na74  1  0.24876885  0.16712553  0.62502534  1
  Na  Na75  1  0.24896924  0.16678417  0.87431190  1
  Na  Na76  1  0.25106409  0.49860404  0.12548109  1
  Na  Na77  1  0.24775687  0.50047391  0.37534187  1
  Na  Na78  1  0.24873703  0.50018309  0.62497013  1
  Na  Na79  1  0.25027204  0.49925357  0.87501314  1
  Na  Na80  1  0.24758558  0.83478803  0.12442770  1
  Na  Na81  1  0.24999051  0.83292625  0.37498064  1
  Na  Na82  1  0.25171369  0.83260006  0.62512526  1
  Na  Na83  1  0.25020579  0.83361315  0.87550707  1
  Na  Na84  1  0.75043333  0.16646258  0.12456930  1
  Na  Na85  1  0.74949344  0.16707307  0.37512838  1
  Na  Na86  1  0.75029809  0.16672439  0.62460338  1
  Na  Na87  1  0.74936796  0.16725883  0.87505613  1
  Na  Na88  1  0.75036230  0.50076929  0.12465940  1
  Na  Na89  1  0.75049847  0.50048391  0.37529297  1
  Na  Na90  1  0.75118655  0.49979511  0.62484307  1
  Na  Na91  1  0.75226093  0.49949032  0.87455661  1
  Na  Na92  1  0.75048965  0.83346876  0.12516183  1
  Na  Na93  1  0.74993374  0.83347984  0.37477311  1
  Na  Na94  1  0.74896851  0.83347022  0.62484491  1
  Na  Na95  1  0.75051343  0.83339344  0.87565404  1
  Mn  Mn96  1  0.35736408  0.41725017  0.50208088  1
  Mn  Mn97  1  0.64202681  0.25042704  0.99834691  1
  Mn  Mn98  1  0.39165800  0.91649819  0.12743116  1
  Mn  Mn99  1  0.14198453  0.91603911  0.49752565  1
  Mn  Mn100  1  0.89255610  0.25007558  0.37730043  1
  Mn  Mn101  1  0.10773860  0.74991179  0.37293698  1
  Mn  Mn102  1  0.35740409  0.08288289  0.75178072  1
  Mn  Mn103  1  0.39174666  0.24913713  0.87748873  1
  Mn  Mn104  1  0.39222358  0.91744160  0.62728399  1
  Mn  Mn105  1  0.10704590  0.75023511  0.12269586  1
  Mn  Mn106  1  0.64259897  0.58266250  0.99752361  1
  Mn  Mn107  1  0.85856445  0.08387567  0.50258676  1
  Mn  Mn108  1  0.60743743  0.41697480  0.87274431  1
  Mn  Mn109  1  0.39166376  0.58394447  0.87708224  1
  Mn  Mn110  1  0.64300647  0.91725381  0.24754595  1
  Mn  Mn111  1  0.64240765  0.91692752  0.99741431  1
  Mn  Mn112  1  0.85891205  0.08380157  0.00261332  1
  Mn  Mn113  1  0.10783950  0.41592247  0.12275683  1
  Mn  Mn114  1  0.64195696  0.91645333  0.49744321  1
  Mn  Mn115  1  0.89292897  0.25006061  0.87708967  1
  Mn  Mn116  1  0.89231115  0.91733540  0.62803365  1
  Mn  Mn117  1  0.10714144  0.41598926  0.62294855  1
  Mn  Mn118  1  0.60733521  0.08266665  0.87281407  1
  Mn  Mn119  1  0.64222443  0.91775808  0.74859013  1
  Mn  Mn120  1  0.85751595  0.75041565  0.75250326  1
  Mn  Mn121  1  0.64262670  0.58248026  0.74762785  1
  Mn  Mn122  1  0.39223432  0.58374502  0.12765593  1
  Mn  Mn123  1  0.35691081  0.08307909  0.50227092  1
  Mn  Mn124  1  0.14175210  0.58257649  0.99755117  1
  Mn  Mn125  1  0.85902243  0.41635179  0.00207916  1
  Mn  Mn126  1  0.35683419  0.08294159  0.25227352  1
  Mn  Mn127  1  0.85735330  0.74949348  0.50213112  1
  Mn  Mn128  1  0.39176825  0.91686788  0.37668131  1
  Mn  Mn129  1  0.85798537  0.74998282  0.00197608  1
  Mn  Mn130  1  0.14221780  0.25040273  0.24742767  1
  Mn  Mn131  1  0.85759328  0.75035824  0.25256269  1
  Mn  Mn132  1  0.35763148  0.75009763  0.00289298  1
  Mn  Mn133  1  0.14232719  0.25029354  0.74680035  1
  Mn  Mn134  1  0.39254212  0.58242591  0.62658878  1
  Mn  Mn135  1  0.10779831  0.74965686  0.87229631  1
  Mn  Mn136  1  0.60790320  0.08336973  0.37198608  1
  Mn  Mn137  1  0.39269448  0.58329083  0.37714360  1
  Mn  Mn138  1  0.60709599  0.41622266  0.12264366  1
  Mn  Mn139  1  0.10830202  0.75022453  0.62281949  1
  Mn  Mn140  1  0.60814186  0.41620887  0.37224191  1
  Mn  Mn141  1  0.85786935  0.41617282  0.25241178  1
  Mn  Mn142  1  0.35766642  0.74968084  0.25203114  1
  Mn  Mn143  1  0.64240682  0.25075701  0.49792242  1
  Fe  Fe144  1  0.14126171  0.91585736  0.24823101  1
  Fe  Fe145  1  0.35588263  0.08380926  0.00185003  1
  Fe  Fe146  1  0.60688270  0.75045956  0.87306701  1
  Fe  Fe147  1  0.89363915  0.91638825  0.87639060  1
  Fe  Fe148  1  0.64335462  0.58265649  0.24803117  1
  Fe  Fe149  1  0.35760453  0.74960612  0.75149405  1
  Fe  Fe150  1  0.14301118  0.91562946  0.74885158  1
  Fe  Fe151  1  0.89264642  0.58369451  0.37713105  1
  Fe  Fe152  1  0.35679681  0.41715266  0.25226428  1
  Fe  Fe153  1  0.89341934  0.58372610  0.87607735  1
  Fe  Fe154  1  0.14204807  0.58308012  0.49837300  1
  Fe  Fe155  1  0.10677297  0.08346345  0.37300969  1
  Fe  Fe156  1  0.64241805  0.24992571  0.24771069  1
  Fe  Fe157  1  0.35663369  0.41586815  0.00130648  1
  Fe  Fe158  1  0.64344834  0.58271632  0.49842484  1
  Fe  Fe159  1  0.10798330  0.41687641  0.87278335  1
  Fe  Fe160  1  0.85726895  0.41604380  0.75171450  1
  Fe  Fe161  1  0.89343273  0.91738066  0.12689512  1
  Fe  Fe162  1  0.39256855  0.24960484  0.37678765  1
  Fe  Fe163  1  0.10767050  0.08349490  0.87297148  1
  Fe  Fe164  1  0.14284268  0.24996409  0.99914355  1
  Fe  Fe165  1  0.14243243  0.25090607  0.49865955  1
  Fe  Fe166  1  0.14268535  0.58371933  0.74860859  1
  Fe  Fe167  1  0.85782469  0.41694507  0.50174288  1
  Fe  Fe168  1  0.89255861  0.58307325  0.12727191  1
  Fe  Fe169  1  0.14214507  0.91718986  0.99772945  1
  Fe  Fe170  1  0.14209317  0.58340307  0.24865896  1
  Fe  Fe171  1  0.60794590  0.75060175  0.12304088  1
  Fe  Fe172  1  0.39177858  0.91658144  0.87661738  1
  Fe  Fe173  1  0.89322664  0.24973679  0.12662120  1
  Fe  Fe174  1  0.60715148  0.08316776  0.12319846  1
  Fe  Fe175  1  0.85767974  0.08387677  0.75132459  1
  Fe  Fe176  1  0.10678321  0.41668282  0.37401126  1
  Fe  Fe177  1  0.35754337  0.41739845  0.75134891  1
  Fe  Fe178  1  0.60746194  0.75031023  0.37322001  1
  Fe  Fe179  1  0.85769281  0.08385234  0.25089102  1
  Fe  Fe180  1  0.10693369  0.08385534  0.62377416  1
  Fe  Fe181  1  0.60792150  0.41642859  0.62353434  1
  Fe  Fe182  1  0.60798282  0.08369564  0.62386475  1
  Fe  Fe183  1  0.89316792  0.91638523  0.37636891  1
  Fe  Fe184  1  0.89285613  0.24980661  0.62679530  1
  Fe  Fe185  1  0.35794948  0.74931487  0.50097903  1
  Fe  Fe186  1  0.89257635  0.58328937  0.62708591  1
  Fe  Fe187  1  0.10673770  0.08371171  0.12334890  1
  Fe  Fe188  1  0.60712194  0.74976754  0.62306948  1
  Fe  Fe189  1  0.39183329  0.24938342  0.12672279  1
  Fe  Fe190  1  0.39302462  0.25018174  0.62626087  1
  Fe  Fe191  1  0.64311492  0.25002995  0.74791204  1
  P  P192  1  0.05271574  0.24928884  0.10968191  1
  P  P193  1  0.05476243  0.25071425  0.36145415  1
  P  P194  1  0.05254123  0.24943271  0.60977336  1
  P  P195  1  0.05548906  0.25038226  0.86097622  1
  P  P196  1  0.05298164  0.58299105  0.11130828  1
  P  P197  1  0.05379341  0.58235989  0.36120039  1
  P  P198  1  0.05412812  0.58320378  0.61086443  1
  P  P199  1  0.05308673  0.58232782  0.85909445  1
  P  P200  1  0.05389640  0.91774154  0.11053293  1
  P  P201  1  0.05272457  0.91706126  0.35967918  1
  P  P202  1  0.05475752  0.91743839  0.61168239  1
  P  P203  1  0.05451192  0.91738509  0.86065447  1
  P  P204  1  0.55284728  0.24916532  0.11104317  1
  P  P205  1  0.55282293  0.25025650  0.35885379  1
  P  P206  1  0.55408621  0.25059288  0.61148733  1
  P  P207  1  0.55390844  0.24991966  0.85952697  1
  P  P208  1  0.55483245  0.58375584  0.11111658  1
  P  P209  1  0.55583549  0.58361541  0.36062086  1
  P  P210  1  0.55451182  0.58235602  0.60944617  1
  P  P211  1  0.55319120  0.58397627  0.85984809  1
  P  P212  1  0.55368231  0.91698523  0.10995289  1
  P  P213  1  0.55320557  0.91612036  0.35968143  1
  P  P214  1  0.55372475  0.91703846  0.61032529  1
  P  P215  1  0.55152044  0.91613868  0.85998490  1
  P  P216  1  0.44573112  0.08379601  0.13866553  1
  P  P217  1  0.44641092  0.08421531  0.38989730  1
  P  P218  1  0.44792847  0.08461083  0.63968518  1
  P  P219  1  0.44520313  0.08229900  0.89082243  1
  P  P220  1  0.44378483  0.41577431  0.13937490  1
  P  P221  1  0.44551664  0.41587171  0.38863749  1
  P  P222  1  0.44742799  0.41606124  0.64015111  1
  P  P223  1  0.44453471  0.41663883  0.88975380  1
  P  P224  1  0.44826738  0.75010237  0.14029334  1
  P  P225  1  0.44755339  0.74972343  0.39040066  1
  P  P226  1  0.44587361  0.74928258  0.63884064  1
  P  P227  1  0.44595586  0.75078140  0.88874473  1
  P  P228  1  0.94763042  0.08399229  0.14039600  1
  P  P229  1  0.94656406  0.08263916  0.38849752  1
  P  P230  1  0.94755296  0.08463195  0.64081027  1
  P  P231  1  0.94687042  0.08285397  0.88846844  1
  P  P232  1  0.94695478  0.41600848  0.14017259  1
  P  P233  1  0.94682957  0.41758958  0.39081372  1
  P  P234  1  0.94444416  0.41642705  0.63917521  1
  P  P235  1  0.94709453  0.41734973  0.88812480  1
  P  P236  1  0.94627401  0.75008100  0.14003384  1
  P  P237  1  0.94664211  0.75009722  0.39017092  1
  P  P238  1  0.94662118  0.74926879  0.64013133  1
  P  P239  1  0.94689246  0.74990183  0.88973800  1
  P  P240  1  0.19378464  0.08260580  0.23567167  1
  P  P241  1  0.19394662  0.08480113  0.48584575  1
  P  P242  1  0.19463741  0.08229875  0.73551602  1
  P  P243  1  0.19502012  0.08404646  0.98600793  1
  P  P244  1  0.19603196  0.41739908  0.23660884  1
  P  P245  1  0.19541906  0.41633489  0.48485662  1
  P  P246  1  0.19659857  0.41745860  0.73579492  1
  P  P247  1  0.19705723  0.41513477  0.98472351  1
  P  P248  1  0.19601016  0.74966211  0.23495000  1
  P  P249  1  0.19795970  0.74900201  0.48507640  1
  P  P250  1  0.19794668  0.75006820  0.73540581  1
  P  P251  1  0.19616165  0.75060619  0.98503040  1
  P  P252  1  0.69744171  0.08411833  0.23407387  1
  P  P253  1  0.69573644  0.08368810  0.48577539  1
  P  P254  1  0.69766515  0.08404164  0.73471758  1
  P  P255  1  0.69590024  0.08366224  0.98595486  1
  P  P256  1  0.69666882  0.41647210  0.23501703  1
  P  P257  1  0.69711861  0.41728189  0.48614396  1
  P  P258  1  0.69744696  0.41588738  0.73452232  1
  P  P259  1  0.69735620  0.41649158  0.98455203  1
  P  P260  1  0.69513526  0.74937496  0.23560452  1
  P  P261  1  0.69462577  0.74897499  0.48557131  1
  P  P262  1  0.69475812  0.75037886  0.73564039  1
  P  P263  1  0.69500824  0.75002466  0.98510360  1
  P  P264  1  0.30230779  0.24942601  0.01539661  1
  P  P265  1  0.30491086  0.25038482  0.26462012  1
  P  P266  1  0.30356200  0.25002366  0.51445304  1
  P  P267  1  0.30476455  0.25051799  0.76332988  1
  P  P268  1  0.30291747  0.58237079  0.01521066  1
  P  P269  1  0.30205325  0.58270466  0.26514501  1
  P  P270  1  0.30194574  0.58359953  0.51475918  1
  P  P271  1  0.30236912  0.58329861  0.76454866  1
  P  P272  1  0.30271291  0.91793625  0.01391922  1
  P  P273  1  0.30086978  0.91677917  0.26491302  1
  P  P274  1  0.30321535  0.91605333  0.51490983  1
  P  P275  1  0.30273992  0.91620271  0.76547102  1
  P  P276  1  0.80448499  0.25009488  0.01555286  1
  P  P277  1  0.80345957  0.24883889  0.26373901  1
  P  P278  1  0.80448767  0.25091731  0.51553228  1
  P  P279  1  0.80395812  0.24963780  0.76356311  1
  P  P280  1  0.80570537  0.58342184  0.01443479  1
  P  P281  1  0.80417198  0.58334984  0.26470189  1
  P  P282  1  0.80441238  0.58283530  0.51451033  1
  P  P283  1  0.80534708  0.58256734  0.76432200  1
  P  P284  1  0.80582242  0.91664230  0.01463037  1
  P  P285  1  0.80569893  0.91805913  0.26427844  1
  P  P286  1  0.80473404  0.91645480  0.51395503  1
  P  P287  1  0.80398436  0.91797692  0.76592439  1
  O  O288  1  0.05619860  0.25030472  0.18612733  1
  O  O289  1  0.05826307  0.25083695  0.43843687  1
  O  O290  1  0.05624856  0.25040397  0.68624698  1
  O  O291  1  0.05941191  0.25057052  0.93806820  1
  O  O292  1  0.05815027  0.58296457  0.18795332  1
  O  O293  1  0.05858613  0.58325409  0.43791182  1
  O  O294  1  0.05954977  0.58347208  0.68749393  1
  O  O295  1  0.05644230  0.58271619  0.93587228  1
  O  O296  1  0.05817634  0.91655886  0.18721488  1
  O  O297  1  0.05627573  0.91638354  0.43644937  1
  O  O298  1  0.05906535  0.91596803  0.68837262  1
  O  O299  1  0.05892554  0.91679309  0.93743346  1
  O  O300  1  0.55805541  0.24979419  0.18765604  1
  O  O301  1  0.55709181  0.25070400  0.43559037  1
  O  O302  1  0.55887776  0.25048501  0.68814120  1
  O  O303  1  0.55680066  0.25023988  0.93631546  1
  O  O304  1  0.55909874  0.58270745  0.18785456  1
  O  O305  1  0.55979275  0.58231580  0.43737365  1
  O  O306  1  0.55697879  0.58237711  0.68621046  1
  O  O307  1  0.55624452  0.58294866  0.93662451  1
  O  O308  1  0.55700638  0.91730078  0.18668698  1
  O  O309  1  0.55605715  0.91680764  0.43642005  1
  O  O310  1  0.55639914  0.91711883  0.68706468  1
  O  O311  1  0.55555236  0.91680499  0.93661193  1
  O  O312  1  0.44036466  0.08346173  0.06210713  1
  O  O313  1  0.44302421  0.08324773  0.31313153  1
  O  O314  1  0.44378632  0.08422053  0.56308349  1
  O  O315  1  0.44241217  0.08315242  0.81397014  1
  O  O316  1  0.43952052  0.41634214  0.06257614  1
  O  O317  1  0.44105989  0.41712179  0.31188263  1
  O  O318  1  0.44350378  0.41676401  0.56342981  1
  O  O319  1  0.44033735  0.41689114  0.81295539  1
  O  O320  1  0.44382456  0.74995331  0.06358859  1
  O  O321  1  0.44352498  0.74944615  0.31369339  1
  O  O322  1  0.44079631  0.74903394  0.56218448  1
  O  O323  1  0.44096981  0.74988798  0.81202773  1
  O  O324  1  0.94477924  0.08398443  0.06338923  1
  O  O325  1  0.94188677  0.08365572  0.31194543  1
  O  O326  1  0.94422551  0.08392547  0.56400085  1
  O  O327  1  0.94194604  0.08354074  0.81194010  1
  O  O328  1  0.94466539  0.41622790  0.06336280  1
  O  O329  1  0.94324971  0.41692601  0.31409512  1
  O  O330  1  0.94105178  0.41674394  0.56235989  1
  O  O331  1  0.94203901  0.41631823  0.81147600  1
  O  O332  1  0.94385473  0.74993795  0.06331737  1
  O  O333  1  0.94377655  0.74981734  0.31337930  1
  O  O334  1  0.94336099  0.74959987  0.56341718  1
  O  O335  1  0.94407937  0.75014721  0.81298166  1
  O  O336  1  0.19056367  0.08395334  0.06270920  1
  O  O337  1  0.18976538  0.08333018  0.31250242  1
  O  O338  1  0.19019720  0.08423471  0.56264081  1
  O  O339  1  0.19108340  0.08331326  0.81236069  1
  O  O340  1  0.19352675  0.41581058  0.06144916  1
  O  O341  1  0.19100287  0.41672817  0.31320690  1
  O  O342  1  0.19264805  0.41611905  0.56160698  1
  O  O343  1  0.19189597  0.41666543  0.81252095  1
  O  O344  1  0.19268019  0.75022591  0.06176614  1
  O  O345  1  0.19334095  0.74973715  0.31171857  1
  O  O346  1  0.19435676  0.74969137  0.56175671  1
  O  O347  1  0.19415561  0.75015450  0.81205735  1
  O  O348  1  0.69093777  0.08323758  0.06259198  1
  O  O349  1  0.69394079  0.08355775  0.31085821  1
  O  O350  1  0.69096566  0.08352877  0.56249610  1
  O  O351  1  0.69389530  0.08341863  0.81140921  1
  O  O352  1  0.69345084  0.41674850  0.06131599  1
  O  O353  1  0.69422596  0.41630200  0.31168628  1
  O  O354  1  0.69236211  0.41649442  0.56279823  1
  O  O355  1  0.69345085  0.41654190  0.81113270  1
  O  O356  1  0.69100440  0.75040100  0.06192695  1
  O  O357  1  0.69132787  0.75038219  0.31236817  1
  O  O358  1  0.69057990  0.74997965  0.56238443  1
  O  O359  1  0.69050231  0.75042365  0.81241346  1
  O  O360  1  0.30884135  0.24927101  0.18775960  1
  O  O361  1  0.30824611  0.24969973  0.43778764  1
  O  O362  1  0.30927498  0.24993950  0.68649289  1
  O  O363  1  0.30547301  0.24914302  0.93867345  1
  O  O364  1  0.30600439  0.58322742  0.18849143  1
  O  O365  1  0.30611502  0.58298048  0.43814969  1
  O  O366  1  0.30601629  0.58310813  0.68790997  1
  O  O367  1  0.30597039  0.58334868  0.93845672  1
  O  O368  1  0.30499958  0.91721242  0.18819890  1
  O  O369  1  0.30611339  0.91709840  0.43814523  1
  O  O370  1  0.30647152  0.91716539  0.68873644  1
  O  O371  1  0.30775388  0.91706556  0.93732308  1
  O  O372  1  0.80865963  0.24940257  0.18711650  1
  O  O373  1  0.80745578  0.24997346  0.43874604  1
  O  O374  1  0.80856437  0.24943834  0.68681760  1
  O  O375  1  0.80788729  0.24986233  0.93911967  1
  O  O376  1  0.80922040  0.58347922  0.18798387  1
  O  O377  1  0.80904320  0.58362137  0.43777584  1
  O  O378  1  0.80905353  0.58370910  0.68751846  1
  O  O379  1  0.81021415  0.58344466  0.93768484  1
  O  O380  1  0.80988766  0.91714252  0.18750015  1
  O  O381  1  0.80939209  0.91660113  0.43722016  1
  O  O382  1  0.80651133  0.91687531  0.68907581  1
  O  O383  1  0.81058971  0.91682772  0.93791452  1
  O  O384  1  0.23232869  0.24980892  0.04052594  1
  O  O385  1  0.23486458  0.24985597  0.28835093  1
  O  O386  1  0.23316543  0.25084175  0.53813845  1
  O  O387  1  0.23479109  0.24987793  0.78713585  1
  O  O388  1  0.23320134  0.58216414  0.04031650  1
  O  O389  1  0.23199106  0.58311914  0.28959873  1
  O  O390  1  0.23182990  0.58297768  0.53914328  1
  O  O391  1  0.23239396  0.58323520  0.78956410  1
  O  O392  1  0.23221770  0.91790190  0.03728257  1
  O  O393  1  0.23082215  0.91633026  0.28932289  1
  O  O394  1  0.23354055  0.91610474  0.54008026  1
  O  O395  1  0.23266009  0.91655816  0.78994666  1
  O  O396  1  0.73466751  0.25002141  0.04036704  1
  O  O397  1  0.73316869  0.24964737  0.28759298  1
  O  O398  1  0.73473851  0.25034813  0.54034023  1
  O  O399  1  0.73364325  0.24994615  0.78752242  1
  O  O400  1  0.73557202  0.58356811  0.03813797  1
  O  O401  1  0.73372732  0.58300525  0.28785281  1
  O  O402  1  0.73405866  0.58318849  0.53817609  1
  O  O403  1  0.73533210  0.58277524  0.78855859  1
  O  O404  1  0.73564001  0.91659771  0.03812001  1
  O  O405  1  0.73562837  0.91749364  0.28834991  1
  O  O406  1  0.73468240  0.91630791  0.53779403  1
  O  O407  1  0.73443842  0.91764427  0.79149094  1
  O  O408  1  0.26388076  0.08351604  0.21164247  1
  O  O409  1  0.26389109  0.08332802  0.46138610  1
  O  O410  1  0.26462620  0.08318871  0.71097906  1
  O  O411  1  0.26530427  0.08378957  0.96198470  1
  O  O412  1  0.26639081  0.41679302  0.21298391  1
  O  O413  1  0.26509219  0.41650339  0.45968032  1
  O  O414  1  0.26687897  0.41724507  0.71182809  1
  O  O415  1  0.26713979  0.41567330  0.96026551  1
  O  O416  1  0.26545766  0.75001050  0.20901105  1
  O  O417  1  0.26788397  0.74933825  0.46013534  1
  O  O418  1  0.26797689  0.74984306  0.71070686  1
  O  O419  1  0.26591147  0.75016513  0.96020625  1
  O  O420  1  0.76750429  0.08334449  0.20953182  1
  O  O421  1  0.76588148  0.08422978  0.46212274  1
  O  O422  1  0.76772562  0.08350333  0.71009662  1
  O  O423  1  0.76616544  0.08418242  0.96248497  1
  O  O424  1  0.76626283  0.41680600  0.20942744  1
  O  O425  1  0.76738016  0.41701966  0.46211484  1
  O  O426  1  0.76768794  0.41650038  0.71053857  1
  O  O427  1  0.76708579  0.41603694  0.95986612  1
  O  O428  1  0.76521478  0.74998438  0.21134675  1
  O  O429  1  0.76463911  0.74945673  0.46134892  1
  O  O430  1  0.76490164  0.75008983  0.71171491  1
  O  O431  1  0.76510214  0.74987535  0.96124354  1
  O  O432  1  0.01754884  0.08347014  0.16515785  1
  O  O433  1  0.01691749  0.08330201  0.41233768  1
  O  O434  1  0.01756284  0.08379595  0.66537890  1
  O  O435  1  0.01728686  0.08322539  0.91213594  1
  O  O436  1  0.01637801  0.41626802  0.16608627  1
  O  O437  1  0.01683686  0.41713978  0.41539435  1
  O  O438  1  0.01443584  0.41639323  0.66360786  1
  O  O439  1  0.01743977  0.41723005  0.91196797  1
  O  O440  1  0.01576029  0.75003361  0.16585150  1
  O  O441  1  0.01615959  0.74988561  0.41581025  1
  O  O442  1  0.01631284  0.74969744  0.66522054  1
  O  O443  1  0.01637638  0.74981092  0.91545619  1
  O  O444  1  0.51612788  0.08348186  0.16222315  1
  O  O445  1  0.51613438  0.08424857  0.41482748  1
  O  O446  1  0.51796107  0.08391154  0.66433012  1
  O  O447  1  0.51490126  0.08341440  0.91583413  1
  O  O448  1  0.51396506  0.41610166  0.16314156  1
  O  O449  1  0.51548830  0.41588598  0.41269890  1
  O  O450  1  0.51752812  0.41646444  0.66453554  1
  O  O451  1  0.51455992  0.41640665  0.91387150  1
  O  O452  1  0.51840647  0.75024197  0.16422972  1
  O  O453  1  0.51772795  0.74986204  0.41440706  1
  O  O454  1  0.51650832  0.74952131  0.66171462  1
  O  O455  1  0.51628750  0.75041117  0.91239711  1
  O  O456  1  0.48245601  0.24975441  0.08745570  1
  O  O457  1  0.48260663  0.24980190  0.33500962  1
  O  O458  1  0.48380805  0.25071283  0.58737221  1
  O  O459  1  0.48402409  0.24958727  0.83495523  1
  O  O460  1  0.48484250  0.58363075  0.08681327  1
  O  O461  1  0.48576510  0.58328307  0.33634328  1
  O  O462  1  0.48489636  0.58260741  0.58384953  1
  O  O463  1  0.48359852  0.58382855  0.83450183  1
  O  O464  1  0.48393495  0.91646528  0.08495412  1
  O  O465  1  0.48368063  0.91632693  0.33404187  1
  O  O466  1  0.48409544  0.91683473  0.58484390  1
  O  O467  1  0.48160035  0.91650314  0.83514700  1
  O  O468  1  0.98282413  0.24970746  0.08450454  1
  O  O469  1  0.98489890  0.25019192  0.33685227  1
  O  O470  1  0.98249853  0.24999002  0.58512295  1
  O  O471  1  0.98572603  0.25002104  0.83672391  1
  O  O472  1  0.98261216  0.58285637  0.08784052  1
  O  O473  1  0.98328746  0.58302889  0.33783453  1
  O  O474  1  0.98350543  0.58275698  0.58810430  1
  O  O475  1  0.98308028  0.58300789  0.83451573  1
  O  O476  1  0.98349149  0.91769204  0.08686363  1
  O  O477  1  0.98271242  0.91672260  0.33513480  1
  O  O478  1  0.98477308  0.91776225  0.58744081  1
  O  O479  1  0.98413032  0.91690404  0.83701668  1
  O  O480  1  0.08723071  0.31396002  0.07656428  1
  O  O481  1  0.08790651  0.31600500  0.32858474  1
  O  O482  1  0.08680648  0.31424928  0.57672205  1
  O  O483  1  0.08883722  0.31547577  0.82790225  1
  O  O484  1  0.08601604  0.64799591  0.07776086  1
  O  O485  1  0.08740588  0.64707366  0.32748411  1
  O  O486  1  0.08709693  0.64813567  0.57703209  1
  O  O487  1  0.08728980  0.64729589  0.82643704  1
  O  O488  1  0.08721561  0.98298969  0.07769283  1
  O  O489  1  0.08657445  0.98204913  0.32713242  1
  O  O490  1  0.08833529  0.98272507  0.57931394  1
  O  O491  1  0.08786827  0.98244471  0.82775211  1
  O  O492  1  0.58613395  0.31415710  0.07744031  1
  O  O493  1  0.58644263  0.31514870  0.32566775  1
  O  O494  1  0.58728102  0.31581752  0.57811738  1
  O  O495  1  0.58792200  0.31486045  0.82678344  1
  O  O496  1  0.58843550  0.64901058  0.07865647  1
  O  O497  1  0.58938492  0.64902367  0.32832577  1
  O  O498  1  0.58911080  0.64733375  0.57740276  1
  O  O499  1  0.58738500  0.64906465  0.82786669  1
  O  O500  1  0.58736101  0.98225404  0.07733632  1
  O  O501  1  0.58749881  0.98108711  0.32716671  1
  O  O502  1  0.58777870  0.98221993  0.57808140  1
  O  O503  1  0.58548410  0.98127568  0.82729415  1
  O  O504  1  0.41250403  0.01879508  0.17236102  1
  O  O505  1  0.41240111  0.01917582  0.42255110  1
  O  O506  1  0.41378845  0.01964718  0.67245564  1
  O  O507  1  0.41140420  0.01692845  0.92279059  1
  O  O508  1  0.41024092  0.35061622  0.17209130  1
  O  O509  1  0.41199447  0.35057683  0.42118816  1
  O  O510  1  0.41336708  0.35113125  0.67271490  1
  O  O511  1  0.41074941  0.35156874  0.92266588  1
  O  O512  1  0.41475275  0.68508789  0.17337159  1
  O  O513  1  0.41396417  0.68465777  0.42353466  1
  O  O514  1  0.41299963  0.68421152  0.67254903  1
  O  O515  1  0.41269911  0.68589266  0.92248958  1
  O  O516  1  0.91315543  0.01920940  0.17265001  1
  O  O517  1  0.91373247  0.01738502  0.42178887  1
  O  O518  1  0.91304598  0.02004930  0.67368924  1
  O  O519  1  0.91388478  0.01768166  0.92185594  1
  O  O520  1  0.91297467  0.35055073  0.17211482  1
  O  O521  1  0.91255093  0.35270365  0.42343821  1
  O  O522  1  0.91088381  0.35121631  0.67199799  1
  O  O523  1  0.91389695  0.35250028  0.92180517  1
  O  O524  1  0.91201281  0.68511429  0.17247037  1
  O  O525  1  0.91231073  0.68501146  0.42234937  1
  O  O526  1  0.91269425  0.68408337  0.67237262  1
  O  O527  1  0.91273824  0.68461714  0.92164293  1
  O  O528  1  0.16063364  0.01730982  0.20283920  1
  O  O529  1  0.15932138  0.02025343  0.45278695  1
  O  O530  1  0.16139859  0.01679032  0.70329977  1
  O  O531  1  0.16128140  0.01920107  0.95262727  1
  O  O532  1  0.16285356  0.35250302  0.20286823  1
  O  O533  1  0.16125679  0.35129689  0.45233337  1
  O  O534  1  0.16324600  0.35260356  0.70219823  1
  O  O535  1  0.16345263  0.34991697  0.95221281  1
  O  O536  1  0.16190259  0.68428549  0.20305518  1
  O  O537  1  0.16396743  0.68393113  0.45279249  1
  O  O538  1  0.16393504  0.68505660  0.70285537  1
  O  O539  1  0.16209710  0.68547897  0.95263358  1
  O  O540  1  0.66310992  0.01929077  0.20130418  1
  O  O541  1  0.66274353  0.01857306  0.45231469  1
  O  O542  1  0.66344751  0.01919627  0.70183435  1
  O  O543  1  0.66308943  0.01850963  0.95225478  1
  O  O544  1  0.66262550  0.35128403  0.20263238  1
  O  O545  1  0.66368836  0.35240409  0.45253964  1
  O  O546  1  0.66395686  0.35075941  0.70157053  1
  O  O547  1  0.66311735  0.35154768  0.95223973  1
  O  O548  1  0.66187573  0.68398631  0.20300949  1
  O  O549  1  0.66133417  0.68356225  0.45311203  1
  O  O550  1  0.66106441  0.68543114  0.70249161  1
  O  O551  1  0.66127754  0.68509955  0.95211968  1
  O  O552  1  0.33664652  0.31434704  0.04771701  1
  O  O553  1  0.33829053  0.31569962  0.29723679  1
  O  O554  1  0.33758680  0.31482564  0.54751568  1
  O  O555  1  0.33787554  0.31578231  0.79621291  1
  O  O556  1  0.33681735  0.64748193  0.04794750  1
  O  O557  1  0.33600811  0.64772754  0.29786053  1
  O  O558  1  0.33565550  0.64861386  0.54737251  1
  O  O559  1  0.33611987  0.64847580  0.79718833  1
  O  O560  1  0.33569273  0.98312493  0.04718869  1
  O  O561  1  0.33431749  0.98186166  0.29795668  1
  O  O562  1  0.33702609  0.98112633  0.54780815  1
  O  O563  1  0.33669859  0.98109459  0.79850582  1
  O  O564  1  0.83869172  0.31499582  0.04830106  1
  O  O565  1  0.83716206  0.31366219  0.29725012  1
  O  O566  1  0.83838086  0.31618885  0.54753558  1
  O  O567  1  0.83743605  0.31474678  0.79660421  1
  O  O568  1  0.83918153  0.64831295  0.04787813  1
  O  O569  1  0.83721696  0.64837823  0.29838315  1
  O  O570  1  0.83791227  0.64758456  0.54827548  1
  O  O571  1  0.83910388  0.64733601  0.79785106  1
  O  O572  1  0.83936133  0.98168061  0.04798326  1
  O  O573  1  0.83902746  0.98340592  0.29687702  1
  O  O574  1  0.83808782  0.98157637  0.54718280  1
  O  O575  1  0.83833551  0.98324445  0.79753803  1
  O  O576  1  0.41252535  0.14885877  0.17199166  1
  O  O577  1  0.41242387  0.14946516  0.42206216  1
  O  O578  1  0.41435263  0.14966037  0.67251224  1
  O  O579  1  0.41031554  0.14691454  0.92343225  1
  O  O580  1  0.41024766  0.48069533  0.17295954  1
  O  O581  1  0.41216330  0.48082111  0.42226899  1
  O  O582  1  0.41335052  0.48102158  0.67310352  1
  O  O583  1  0.41084799  0.48153460  0.92285613  1
  O  O584  1  0.41446123  0.81514195  0.17299005  1
  O  O585  1  0.41348078  0.81464996  0.42300869  1
  O  O586  1  0.41253839  0.81420737  0.67234572  1
  O  O587  1  0.41280833  0.81601898  0.92184302  1
  O  O588  1  0.91389553  0.14917991  0.17291709  1
  O  O589  1  0.91314341  0.14749001  0.42218477  1
  O  O590  1  0.91403400  0.14997483  0.67323050  1
  O  O591  1  0.91367104  0.14773298  0.92214469  1
  O  O592  1  0.91235652  0.48086194  0.17239643  1
  O  O593  1  0.91289267  0.48262761  0.42335433  1
  O  O594  1  0.91064942  0.48140450  0.67204004  1
  O  O595  1  0.91383768  0.48258938  0.92105066  1
  O  O596  1  0.91223117  0.81543904  0.17197697  1
  O  O597  1  0.91259530  0.81535768  0.42214954  1
  O  O598  1  0.91241020  0.81426066  0.67262272  1
  O  O599  1  0.91276483  0.81500532  0.92199741  1
  O  O600  1  0.08669353  0.18403856  0.07733117  1
  O  O601  1  0.08866922  0.18582812  0.32881022  1
  O  O602  1  0.08642821  0.18429393  0.57736100  1
  O  O603  1  0.08925729  0.18521778  0.82855270  1
  O  O604  1  0.08620282  0.51799547  0.07779857  1
  O  O605  1  0.08673272  0.51704750  0.32805119  1
  O  O606  1  0.08735080  0.51821577  0.57742590  1
  O  O607  1  0.08699346  0.51738871  0.82640650  1
  O  O608  1  0.08735286  0.85299770  0.07675378  1
  O  O609  1  0.08666130  0.85205748  0.32683510  1
  O  O610  1  0.08799088  0.85249297  0.57791012  1
  O  O611  1  0.08802317  0.85249538  0.82711635  1
  O  O612  1  0.58589213  0.18400562  0.07783906  1
  O  O613  1  0.58691235  0.18532896  0.32609961  1
  O  O614  1  0.58738622  0.18554663  0.57820107  1
  O  O615  1  0.58820597  0.18492324  0.82719661  1
  O  O616  1  0.58818641  0.51868468  0.07764801  1
  O  O617  1  0.58970935  0.51896882  0.32702375  1
  O  O618  1  0.58872091  0.51712690  0.57725269  1
  O  O619  1  0.58734909  0.51897400  0.82720893  1
  O  O620  1  0.58798467  0.85190670  0.07776581  1
  O  O621  1  0.58760764  0.85099499  0.32788625  1
  O  O622  1  0.58787056  0.85183127  0.57817263  1
  O  O623  1  0.58551131  0.85124953  0.82738758  1
  O  O624  1  0.33610864  0.18431938  0.04824823  1
  O  O625  1  0.33866618  0.18561341  0.29808700  1
  O  O626  1  0.33656071  0.18491883  0.54805095  1
  O  O627  1  0.33819760  0.18552095  0.79667421  1
  O  O628  1  0.33702186  0.51718415  0.04702800  1
  O  O629  1  0.33573884  0.51765886  0.29793663  1
  O  O630  1  0.33573815  0.51859210  0.54781076  1
  O  O631  1  0.33635255  0.51832055  0.79716012  1
  O  O632  1  0.33584384  0.85293940  0.04768733  1
  O  O633  1  0.33508438  0.85178793  0.29719718  1
  O  O634  1  0.33741342  0.85084632  0.54662104  1
  O  O635  1  0.33658702  0.85101831  0.79779219  1
  O  O636  1  0.83878668  0.18520272  0.04852292  1
  O  O637  1  0.83650587  0.18358955  0.29694652  1
  O  O638  1  0.83904573  0.18623613  0.54838942  1
  O  O639  1  0.83713076  0.18456526  0.79692004  1
  O  O640  1  0.83921150  0.51840618  0.04771886  1
  O  O641  1  0.83767443  0.51847387  0.29810943  1
  O  O642  1  0.83777799  0.51770045  0.54746590  1
  O  O643  1  0.83896830  0.51724315  0.79669805  1
  O  O644  1  0.83928711  0.85175136  0.04794265  1
  O  O645  1  0.83948351  0.85324578  0.29781003  1
  O  O646  1  0.83816333  0.85152203  0.54723573  1
  O  O647  1  0.83859869  0.85313793  0.79847164  1
  O  O648  1  0.15980717  0.14732232  0.20240435  1
  O  O649  1  0.16106164  0.15039322  0.45311306  1
  O  O650  1  0.16035105  0.14682409  0.70220896  1
  O  O651  1  0.16185409  0.14929088  0.95278040  1
  O  O652  1  0.16306690  0.48260652  0.20331035  1
  O  O653  1  0.16098474  0.48137160  0.45270998  1
  O  O654  1  0.16312312  0.48253143  0.70299950  1
  O  O655  1  0.16279070  0.47991244  0.95173136  1
  O  O656  1  0.16143973  0.81470725  0.20294916  1
  O  O657  1  0.16386209  0.81393555  0.45231470  1
  O  O658  1  0.16434727  0.81525459  0.70265585  1
  O  O659  1  0.16239552  0.81580477  0.95268562  1
  O  O660  1  0.66353359  0.14925174  0.20161746  1
  O  O661  1  0.66218044  0.14873947  0.45277145  1
  O  O662  1  0.66379706  0.14911774  0.70198789  1
  O  O663  1  0.66234575  0.14855839  0.95287302  1
  O  O664  1  0.66234941  0.48157208  0.20287794  1
  O  O665  1  0.66383399  0.48241070  0.45315489  1
  O  O666  1  0.66345403  0.48064928  0.70127926  1
  O  O667  1  0.66377226  0.48163018  0.95168911  1
  O  O668  1  0.66134000  0.81419050  0.20214736  1
  O  O669  1  0.66072803  0.81364250  0.45198753  1
  O  O670  1  0.66137002  0.81547042  0.70254695  1
  O  O671  1  0.66141132  0.81497850  0.95181818  1
