# generated using pymatgen
data_Na2MnFe(PO4)2
_symmetry_space_group_name_H-M   'P 1'
_cell_length_a   21.08019606
_cell_length_b   18.93214398
_cell_length_c   20.03961083
_cell_angle_alpha   89.99990809
_cell_angle_beta   90.00094047
_cell_angle_gamma   89.99839027
_symmetry_Int_Tables_number   1
_chemical_formula_structural   Na2MnFe(PO4)2
_chemical_formula_sum   'Na96 Mn48 Fe48 P96 O384'
_cell_volume   7997.67455211
_cell_formula_units_Z   48
loop_
 _symmetry_equiv_pos_site_id
 _symmetry_equiv_pos_as_xyz
  1  'x, y, z'
loop_
 _atom_site_type_symbol
 _atom_site_label
 _atom_site_symmetry_multiplicity
 _atom_site_fract_x
 _atom_site_fract_y
 _atom_site_fract_z
 _atom_site_occupancy
  Na  Na0  1  0.00054717  0.00054343  -0.00054670  1
  Na  Na1  1  -0.00216501  -0.00035091  0.24943547  1
  Na  Na2  1  -0.00315478  -0.00074396  0.50053207  1
  Na  Na3  1  -0.00064094  0.00017061  0.74984026  1
  Na  Na4  1  0.00003392  0.33230314  0.00037654  1
  Na  Na5  1  0.00003886  0.33296414  0.25091564  1
  Na  Na6  1  0.00205563  0.33326465  0.49945401  1
  Na  Na7  1  0.00230154  0.33343908  0.74981467  1
  Na  Na8  1  -0.00055368  0.66654042  -0.00048330  1
  Na  Na9  1  -0.00011071  0.66658996  0.25050974  1
  Na  Na10  1  0.00001515  0.66700243  0.50008788  1
  Na  Na11  1  -0.00203853  0.66590028  0.74999532  1
  Na  Na12  1  0.49866238  -0.00023623  -0.00066840  1
  Na  Na13  1  0.49908205  -0.00037521  0.25069157  1
  Na  Na14  1  0.50132719  0.00083168  0.50084034  1
  Na  Na15  1  0.49898006  0.00008764  0.74956036  1
  Na  Na16  1  0.50166980  0.33345945  -0.00081782  1
  Na  Na17  1  0.50066056  0.33277084  0.25081516  1
  Na  Na18  1  0.49916241  0.33241214  0.50002290  1
  Na  Na19  1  0.50025404  0.33344834  0.74991243  1
  Na  Na20  1  0.49732575  0.66623310  0.00056320  1
  Na  Na21  1  0.49854541  0.66652453  0.25064535  1
  Na  Na22  1  0.49901545  0.66646769  0.49938488  1
  Na  Na23  1  0.49761346  0.66623724  0.74938933  1
  Na  Na24  1  0.24904978  -0.00016883  0.12512917  1
  Na  Na25  1  0.25095710  0.00031144  0.37415416  1
  Na  Na26  1  0.25149585  0.00149559  0.62526315  1
  Na  Na27  1  0.24674885  -0.00093863  0.87542708  1
  Na  Na28  1  0.24748599  0.33213856  0.12498806  1
  Na  Na29  1  0.24970535  0.33326171  0.37520298  1
  Na  Na30  1  0.24894845  0.33295924  0.62510858  1
  Na  Na31  1  0.24755124  0.33250810  0.87538468  1
  Na  Na32  1  0.25117859  0.66691812  0.12463929  1
  Na  Na33  1  0.25058985  0.66689041  0.37488383  1
  Na  Na34  1  0.25004025  0.66687671  0.62542072  1
  Na  Na35  1  0.25098128  0.66715356  0.87515019  1
  Na  Na36  1  0.75404489  0.00181226  0.12574875  1
  Na  Na37  1  0.74930081  -0.00062268  0.37418802  1
  Na  Na38  1  0.75178745  0.00071976  0.62496636  1
  Na  Na39  1  0.75193058  0.00012873  0.87497875  1
  Na  Na40  1  0.75051928  0.33295567  0.12413005  1
  Na  Na41  1  0.75078742  0.33363036  0.37427093  1
  Na  Na42  1  0.74909833  0.33231669  0.62461798  1
  Na  Na43  1  0.75100308  0.33313148  0.87626922  1
  Na  Na44  1  0.75023602  0.66627681  0.12428294  1
  Na  Na45  1  0.75050827  0.66646735  0.37363293  1
  Na  Na46  1  0.75273199  0.66703780  0.62612947  1
  Na  Na47  1  0.75340404  0.66751490  0.87594290  1
  Na  Na48  1  -0.00030642  0.16696961  0.00046881  1
  Na  Na49  1  -0.00218444  0.16757615  0.25005859  1
  Na  Na50  1  -0.00047152  0.16695699  0.50032332  1
  Na  Na51  1  -0.00082192  0.16707806  0.74895176  1
  Na  Na52  1  0.00087253  0.49985172  0.00002897  1
  Na  Na53  1  -0.00018954  0.50063623  0.25104268  1
  Na  Na54  1  0.00088874  0.49995401  0.49880372  1
  Na  Na55  1  -0.00023353  0.50082235  0.75039712  1
  Na  Na56  1  -0.00015013  0.83352210  -0.00121933  1
  Na  Na57  1  0.00024937  0.83259396  0.24979899  1
  Na  Na58  1  -0.00134940  0.83355374  0.50088163  1
  Na  Na59  1  0.00036357  0.83295237  0.75023632  1
  Na  Na60  1  0.50006965  0.16664150  -0.00102596  1
  Na  Na61  1  0.50050148  0.16677483  0.25028660  1
  Na  Na62  1  0.50006834  0.16651352  0.50076838  1
  Na  Na63  1  0.49812535  0.16732682  0.75046246  1
  Na  Na64  1  0.49924335  0.50047740  -0.00001936  1
  Na  Na65  1  0.49946168  0.50007946  0.25115629  1
  Na  Na66  1  0.49972654  0.49983918  0.49990214  1
  Na  Na67  1  0.49782330  0.50086161  0.74887794  1
  Na  Na68  1  0.49803307  0.83338483  -0.00000608  1
  Na  Na69  1  0.49924308  0.83316771  0.25095191  1
  Na  Na70  1  0.50004321  0.83346928  0.49952316  1
  Na  Na71  1  0.50039248  0.83236896  0.74935157  1
  Na  Na72  1  0.24907175  0.16692521  0.12512605  1
  Na  Na73  1  0.24924726  0.16769111  0.37430535  1
  Na  Na74  1  0.25029394  0.16661198  0.62583739  1
  Na  Na75  1  0.24820151  0.16693383  0.87480192  1
  Na  Na76  1  0.24884223  0.50064625  0.12440981  1
  Na  Na77  1  0.25033056  0.49986196  0.37468126  1
  Na  Na78  1  0.25050067  0.50000838  0.62585352  1
  Na  Na79  1  0.24991775  0.49997060  0.87548495  1
  Na  Na80  1  0.25014939  0.83297156  0.12496410  1
  Na  Na81  1  0.25153280  0.83215250  0.37513144  1
  Na  Na82  1  0.24799897  0.83405889  0.62467087  1
  Na  Na83  1  0.24831095  0.83318416  0.87537369  1
  Na  Na84  1  0.75255746  0.16678407  0.12563452  1
  Na  Na85  1  0.75144238  0.16656967  0.37408106  1
  Na  Na86  1  0.75179197  0.16640619  0.62469711  1
  Na  Na87  1  0.75305354  0.16613556  0.87572851  1
  Na  Na88  1  0.75172322  0.49967034  0.12406007  1
  Na  Na89  1  0.74944763  0.50063580  0.37426405  1
  Na  Na90  1  0.75041258  0.50052892  0.62573696  1
  Na  Na91  1  0.75180402  0.49973938  0.87587150  1
  Na  Na92  1  0.74989762  0.83316828  0.12453627  1
  Na  Na93  1  0.74993477  0.83330648  0.37370492  1
  Na  Na94  1  0.75123709  0.83298548  0.62537566  1
  Na  Na95  1  0.75226086  0.83248279  0.87557432  1
  Mn  Mn96  1  0.60835963  0.08298630  0.87290465  1
  Mn  Mn97  1  0.60809168  0.41615028  0.37309663  1
  Mn  Mn98  1  0.64225543  0.58338311  0.99783942  1
  Mn  Mn99  1  0.64225449  0.91681177  0.24660417  1
  Mn  Mn100  1  0.64230053  0.58291966  0.24697168  1
  Mn  Mn101  1  0.10731708  0.08297564  0.37343554  1
  Mn  Mn102  1  0.35795034  0.08349010  0.25196767  1
  Mn  Mn103  1  0.60795108  0.08358755  0.62334466  1
  Mn  Mn104  1  0.85899645  0.41629138  0.75198108  1
  Mn  Mn105  1  0.35655028  0.08310850  0.00220167  1
  Mn  Mn106  1  0.60750626  0.74962518  0.87347193  1
  Mn  Mn107  1  0.85807296  0.74978371  0.25120343  1
  Mn  Mn108  1  0.64314093  0.91670487  0.74816781  1
  Mn  Mn109  1  0.35691507  0.75116604  0.75180652  1
  Mn  Mn110  1  0.10729353  0.75024259  0.87285552  1
  Mn  Mn111  1  0.64325842  0.25042701  0.24735728  1
  Mn  Mn112  1  0.85782818  0.41700820  0.50298581  1
  Mn  Mn113  1  0.14205348  0.91676766  0.24757580  1
  Mn  Mn114  1  0.89286242  0.91704841  0.87781669  1
  Mn  Mn115  1  0.14238508  0.58340517  0.24721992  1
  Mn  Mn116  1  0.89128707  0.91686194  0.37762389  1
  Mn  Mn117  1  0.10749804  0.41632440  0.87295928  1
  Mn  Mn118  1  0.85855398  0.41646979  0.00317740  1
  Mn  Mn119  1  0.89269830  0.25078585  0.62688964  1
  Mn  Mn120  1  0.64267680  0.58350037  0.74830074  1
  Mn  Mn121  1  0.14198701  0.91727898  0.49764286  1
  Mn  Mn122  1  0.14178934  0.58363560  0.74738898  1
  Mn  Mn123  1  0.60746038  0.41674726  0.62284942  1
  Mn  Mn124  1  0.39082702  0.91608631  0.87699416  1
  Mn  Mn125  1  0.89209672  0.58304945  0.37789684  1
  Mn  Mn126  1  0.64248814  0.91723071  0.99835614  1
  Mn  Mn127  1  0.60785042  0.41752431  0.87255468  1
  Mn  Mn128  1  0.39253144  0.91735477  0.37779489  1
  Mn  Mn129  1  0.60801185  0.75031990  0.37339783  1
  Mn  Mn130  1  0.39196412  0.24945058  0.37734544  1
  Mn  Mn131  1  0.39201184  0.91677862  0.62722977  1
  Mn  Mn132  1  0.10743875  0.08308551  0.62197010  1
  Mn  Mn133  1  0.64303150  0.24956520  0.74819397  1
  Mn  Mn134  1  0.39140874  0.25060298  0.87759334  1
  Mn  Mn135  1  0.10832033  0.41638194  0.37283676  1
  Mn  Mn136  1  0.39182947  0.58294713  0.37793856  1
  Mn  Mn137  1  0.60858696  0.74945790  0.62268548  1
  Mn  Mn138  1  0.35725856  0.41621326  0.00315533  1
  Mn  Mn139  1  0.10806815  0.75065930  0.37337269  1
  Mn  Mn140  1  0.35694911  0.41609359  0.75236237  1
  Mn  Mn141  1  0.35762499  0.41654782  0.25112624  1
  Mn  Mn142  1  0.10657630  0.08311775  0.12288423  1
  Mn  Mn143  1  0.60805494  0.08315213  0.12234285  1
  Fe  Fe144  1  0.14152721  0.24970600  0.99850191  1
  Fe  Fe145  1  0.89322491  0.25082364  0.12709937  1
  Fe  Fe146  1  0.35598019  0.08317505  0.75198652  1
  Fe  Fe147  1  0.60816341  0.08345969  0.37395360  1
  Fe  Fe148  1  0.60588022  0.74971947  0.12313399  1
  Fe  Fe149  1  0.39209057  0.58297446  0.62601339  1
  Fe  Fe150  1  0.89382558  0.58327507  0.12626210  1
  Fe  Fe151  1  0.35697704  0.74986172  0.50242733  1
  Fe  Fe152  1  0.14180339  0.91714564  0.74750649  1
  Fe  Fe153  1  0.89307625  0.25032405  0.37740365  1
  Fe  Fe154  1  0.89294724  0.58323868  0.62603171  1
  Fe  Fe155  1  0.10770374  0.74948054  0.12301511  1
  Fe  Fe156  1  0.39262440  0.25020862  0.12609017  1
  Fe  Fe157  1  0.39161527  0.58325827  0.87680356  1
  Fe  Fe158  1  0.89205630  0.91590114  0.62693411  1
  Fe  Fe159  1  0.35657277  0.75028899  0.00226175  1
  Fe  Fe160  1  0.14307747  0.58322037  0.49940836  1
  Fe  Fe161  1  0.85638415  0.08304368  0.50136008  1
  Fe  Fe162  1  0.39243516  0.58276750  0.12645578  1
  Fe  Fe163  1  0.85826715  0.75022653  0.75185162  1
  Fe  Fe164  1  0.85809003  0.41647039  0.25115752  1
  Fe  Fe165  1  0.85836946  0.08335214  0.75206319  1
  Fe  Fe166  1  0.64350371  0.91657359  0.49911250  1
  Fe  Fe167  1  0.10619542  0.74942698  0.62314255  1
  Fe  Fe168  1  0.39201290  0.25027898  0.62663234  1
  Fe  Fe169  1  0.14357810  0.24991688  0.49846956  1
  Fe  Fe170  1  0.85802915  0.75054252  0.00299131  1
  Fe  Fe171  1  0.10672254  0.08364934  0.87313345  1
  Fe  Fe172  1  0.64275008  0.58371336  0.49925602  1
  Fe  Fe173  1  0.14196833  0.24981985  0.24804837  1
  Fe  Fe174  1  0.85736896  0.75013175  0.50177768  1
  Fe  Fe175  1  0.89355800  0.25040849  0.87666214  1
  Fe  Fe176  1  0.64249445  0.24967035  0.49836829  1
  Fe  Fe177  1  0.14278973  0.58372672  0.99859653  1
  Fe  Fe178  1  0.10682368  0.41719690  0.12388261  1
  Fe  Fe179  1  0.35803475  0.08370226  0.50173409  1
  Fe  Fe180  1  0.14221937  0.24936999  0.74782663  1
  Fe  Fe181  1  0.39163628  0.91680787  0.12646509  1
  Fe  Fe182  1  0.85767889  0.08383847  0.25257963  1
  Fe  Fe183  1  0.85853504  0.08298140  0.00189792  1
  Fe  Fe184  1  0.10798123  0.41779422  0.62276140  1
  Fe  Fe185  1  0.60767921  0.41686182  0.12365159  1
  Fe  Fe186  1  0.35694018  0.41650183  0.50210682  1
  Fe  Fe187  1  0.14201891  0.91655155  0.99883243  1
  Fe  Fe188  1  0.35732101  0.75012893  0.25109913  1
  Fe  Fe189  1  0.89299409  0.58257425  0.87726227  1
  Fe  Fe190  1  0.89333543  0.91600802  0.12615972  1
  Fe  Fe191  1  0.64363219  0.24934434  0.99881756  1
  P  P192  1  0.05348822  0.25070421  0.11115217  1
  P  P193  1  0.05444055  0.24942025  0.36072746  1
  P  P194  1  0.05548002  0.25072251  0.61008960  1
  P  P195  1  0.05403967  0.24883823  0.86050890  1
  P  P196  1  0.05314511  0.58339222  0.10972539  1
  P  P197  1  0.05502427  0.58366799  0.36133800  1
  P  P198  1  0.05269215  0.58361124  0.60947230  1
  P  P199  1  0.05331149  0.58360828  0.86122889  1
  P  P200  1  0.05259924  0.91575820  0.10936930  1
  P  P201  1  0.05259725  0.91693669  0.35986413  1
  P  P202  1  0.05260023  0.91595965  0.61104145  1
  P  P203  1  0.05526808  0.91763952  0.86045376  1
  P  P204  1  0.55311759  0.25051482  0.10943316  1
  P  P205  1  0.55510123  0.24882819  0.36120975  1
  P  P206  1  0.55262401  0.24985389  0.60982741  1
  P  P207  1  0.55453486  0.24978516  0.86089187  1
  P  P208  1  0.55192666  0.58344934  0.11034308  1
  P  P209  1  0.55478581  0.58343689  0.36120257  1
  P  P210  1  0.55244970  0.58340700  0.60936127  1
  P  P211  1  0.55148305  0.58383160  0.85973456  1
  P  P212  1  0.55138167  0.91589762  0.10995834  1
  P  P213  1  0.55552723  0.91768350  0.36147421  1
  P  P214  1  0.55426255  0.91656818  0.60948295  1
  P  P215  1  0.55285735  0.91633653  0.85970894  1
  P  P216  1  0.44653898  0.08375859  0.13962415  1
  P  P217  1  0.44772730  0.08352387  0.39104544  1
  P  P218  1  0.44437180  0.08445507  0.63991502  1
  P  P219  1  0.44482710  0.08315322  0.88896447  1
  P  P220  1  0.44814508  0.41608757  0.13986547  1
  P  P221  1  0.44568054  0.41610173  0.39092580  1
  P  P222  1  0.44466854  0.41632425  0.63858572  1
  P  P223  1  0.44595214  0.41744264  0.89013183  1
  P  P224  1  0.44511596  0.75003183  0.13942608  1
  P  P225  1  0.44466222  0.75013296  0.38983975  1
  P  P226  1  0.44537206  0.74926280  0.63861173  1
  P  P227  1  0.44499609  0.74927019  0.89068298  1
  P  P228  1  0.94448619  0.08322240  0.13921453  1
  P  P229  1  0.94462384  0.08437809  0.38993291  1
  P  P230  1  0.94436892  0.08275134  0.63897731  1
  P  P231  1  0.94645484  0.08442205  0.88937982  1
  P  P232  1  0.94782968  0.41703007  0.14066650  1
  P  P233  1  0.94578313  0.41566313  0.38913270  1
  P  P234  1  0.94888627  0.41742109  0.63955109  1
  P  P235  1  0.94683784  0.41612733  0.89016979  1
  P  P236  1  0.94746039  0.74985711  0.13845812  1
  P  P237  1  0.94595454  0.75007494  0.39099428  1
  P  P238  1  0.94551551  0.74969053  0.63915964  1
  P  P239  1  0.94477735  0.74938223  0.88957135  1
  P  P240  1  0.19614494  0.08404429  0.23497955  1
  P  P241  1  0.19829858  0.08419487  0.48495801  1
  P  P242  1  0.19534721  0.08323274  0.73612138  1
  P  P243  1  0.19469529  0.08340858  0.98475911  1
  P  P244  1  0.19573752  0.41594371  0.23413724  1
  P  P245  1  0.19665682  0.41701150  0.48656096  1
  P  P246  1  0.19527062  0.41605616  0.73460195  1
  P  P247  1  0.19452881  0.41687213  0.98676718  1
  P  P248  1  0.19717736  0.75001121  0.23419277  1
  P  P249  1  0.19642894  0.74914249  0.48654831  1
  P  P250  1  0.19498247  0.75077935  0.73427647  1
  P  P251  1  0.19586454  0.74959768  0.98644942  1
  P  P252  1  0.69733976  0.08387330  0.23585359  1
  P  P253  1  0.69728349  0.08326971  0.48475705  1
  P  P254  1  0.69895524  0.08339646  0.73518003  1
  P  P255  1  0.69869998  0.08394581  0.98549490  1
  P  P256  1  0.69793491  0.41660899  0.23379062  1
  P  P257  1  0.69673934  0.41697374  0.48519782  1
  P  P258  1  0.69746295  0.41664486  0.73510722  1
  P  P259  1  0.69556801  0.41590512  0.98646025  1
  P  P260  1  0.69575606  0.74971046  0.23346134  1
  P  P261  1  0.69844818  0.74975478  0.48525644  1
  P  P262  1  0.69857428  0.74980327  0.73562343  1
  P  P263  1  0.69683733  0.75012381  0.98641447  1
  P  P264  1  0.30155072  0.24984112  0.01560662  1
  P  P265  1  0.30319467  0.25039113  0.26361669  1
  P  P266  1  0.30287629  0.25001872  0.51546201  1
  P  P267  1  0.30253319  0.24934214  0.76404977  1
  P  P268  1  0.30370480  0.58392152  0.01441066  1
  P  P269  1  0.30481691  0.58383029  0.26355906  1
  P  P270  1  0.30263162  0.58311059  0.51558345  1
  P  P271  1  0.30441079  0.58350001  0.76462925  1
  P  P272  1  0.30179818  0.91602824  0.01535125  1
  P  P273  1  0.30466182  0.91589703  0.26383397  1
  P  P274  1  0.30321869  0.91697517  0.51500019  1
  P  P275  1  0.30106562  0.91746844  0.76492891  1
  P  P276  1  0.80520526  0.24917186  0.01464493  1
  P  P277  1  0.80640141  0.25087224  0.26411250  1
  P  P278  1  0.80322341  0.24947228  0.51354385  1
  P  P279  1  0.80488613  0.24952387  0.76581402  1
  P  P280  1  0.80580458  0.58395799  0.01472107  1
  P  P281  1  0.80534309  0.58237964  0.26314621  1
  P  P282  1  0.80270837  0.58408867  0.51560127  1
  P  P283  1  0.80602635  0.58378708  0.76487262  1
  P  P284  1  0.80462602  0.91687410  0.01579562  1
  P  P285  1  0.80497904  0.91689817  0.26331456  1
  P  P286  1  0.80286592  0.91658066  0.51520270  1
  P  P287  1  0.80559269  0.91655244  0.76409021  1
  O  O288  1  0.05789090  0.24980113  0.18785540  1
  O  O289  1  0.05986839  0.24937406  0.43742534  1
  O  O290  1  0.05919607  0.24951786  0.68693646  1
  O  O291  1  0.05819413  0.24935829  0.93730508  1
  O  O292  1  0.05630273  0.58388992  0.18650254  1
  O  O293  1  0.05981323  0.58357975  0.43803961  1
  O  O294  1  0.05579448  0.58362528  0.68624097  1
  O  O295  1  0.05848787  0.58386692  0.93784531  1
  O  O296  1  0.05595497  0.91627098  0.18612763  1
  O  O297  1  0.05602152  0.91716523  0.43669642  1
  O  O298  1  0.05743663  0.91699124  0.68772936  1
  O  O299  1  0.05930413  0.91672251  0.93723579  1
  O  O300  1  0.55694161  0.24975785  0.18622478  1
  O  O301  1  0.55939824  0.24941786  0.43796655  1
  O  O302  1  0.55672097  0.24977284  0.68655731  1
  O  O303  1  0.55964907  0.24917280  0.93757710  1
  O  O304  1  0.55547122  0.58345197  0.18707441  1
  O  O305  1  0.55958048  0.58365463  0.43792705  1
  O  O306  1  0.55655026  0.58372082  0.68607197  1
  O  O307  1  0.55594202  0.58390609  0.93643009  1
  O  O308  1  0.55540478  0.91656052  0.18670627  1
  O  O309  1  0.56022475  0.91688292  0.43821052  1
  O  O310  1  0.55747567  0.91640907  0.68629883  1
  O  O311  1  0.55635597  0.91670505  0.93650796  1
  O  O312  1  0.44333451  0.08368317  0.06284386  1
  O  O313  1  0.44344417  0.08359010  0.31432849  1
  O  O314  1  0.44051414  0.08367895  0.56308745  1
  O  O315  1  0.43991277  0.08313283  0.81220251  1
  O  O316  1  0.44442140  0.41605322  0.06316212  1
  O  O317  1  0.44244324  0.41610514  0.31413923  1
  O  O318  1  0.44072457  0.41612318  0.56181496  1
  O  O319  1  0.44267990  0.41636057  0.81332903  1
  O  O320  1  0.44043898  0.75027328  0.06267996  1
  O  O321  1  0.44060060  0.75002617  0.31305735  1
  O  O322  1  0.44099644  0.75018998  0.56184153  1
  O  O323  1  0.44220310  0.75046825  0.81385300  1
  O  O324  1  0.94173600  0.08341183  0.06229352  1
  O  O325  1  0.94114984  0.08346597  0.31308143  1
  O  O326  1  0.93981413  0.08334656  0.56220649  1
  O  O327  1  0.94232021  0.08361168  0.81262917  1
  O  O328  1  0.94466484  0.41651891  0.06385994  1
  O  O329  1  0.94182628  0.41650627  0.31244821  1
  O  O330  1  0.94494085  0.41652603  0.56283038  1
  O  O331  1  0.94455497  0.41619561  0.81341266  1
  O  O332  1  0.94306180  0.75016725  0.06174459  1
  O  O333  1  0.94290238  0.74988685  0.31418738  1
  O  O334  1  0.94095213  0.75011417  0.56244319  1
  O  O335  1  0.94140570  0.75016400  0.81273279  1
  O  O336  1  0.19202532  0.08346733  0.06158210  1
  O  O337  1  0.19321278  0.08349393  0.31172410  1
  O  O338  1  0.19418350  0.08341806  0.56166779  1
  O  O339  1  0.19088436  0.08340172  0.81277350  1
  O  O340  1  0.19042680  0.41692484  0.06349604  1
  O  O341  1  0.19341335  0.41662302  0.31103481  1
  O  O342  1  0.19217093  0.41742851  0.56324909  1
  O  O343  1  0.19236930  0.41692045  0.81146230  1
  O  O344  1  0.19134685  0.74939506  0.06316374  1
  O  O345  1  0.19351661  0.74997898  0.31095307  1
  O  O346  1  0.19088836  0.74975714  0.56315899  1
  O  O347  1  0.19233419  0.74955205  0.81111415  1
  O  O348  1  0.69470859  0.08353288  0.06222140  1
  O  O349  1  0.69222132  0.08354778  0.31244757  1
  O  O350  1  0.69407544  0.08367499  0.56149883  1
  O  O351  1  0.69497471  0.08340808  0.81188443  1
  O  O352  1  0.69096630  0.41697826  0.06319217  1
  O  O353  1  0.69362802  0.41674049  0.31049591  1
  O  O354  1  0.69376389  0.41674673  0.56200376  1
  O  O355  1  0.69431870  0.41694992  0.81194319  1
  O  O356  1  0.69053980  0.74973196  0.06296905  1
  O  O357  1  0.69264942  0.74973794  0.31028074  1
  O  O358  1  0.69524703  0.74952038  0.56200084  1
  O  O359  1  0.69451658  0.74952758  0.81232196  1
  O  O360  1  0.30849343  0.25033437  0.18699705  1
  O  O361  1  0.30599376  0.25005198  0.43866475  1
  O  O362  1  0.30746895  0.25019185  0.68744925  1
  O  O363  1  0.30549552  0.25030464  0.93887650  1
  O  O364  1  0.30902585  0.58282108  0.18676971  1
  O  O365  1  0.30570906  0.58308478  0.43877339  1
  O  O366  1  0.30870393  0.58335147  0.68789030  1
  O  O367  1  0.30783837  0.58305316  0.93768160  1
  O  O368  1  0.30851912  0.91674577  0.18703425  1
  O  O369  1  0.30612763  0.91678477  0.43818737  1
  O  O370  1  0.30544118  0.91690882  0.68829260  1
  O  O371  1  0.30505349  0.91644902  0.93864071  1
  O  O372  1  0.81026228  0.25110560  0.18724240  1
  O  O373  1  0.80787431  0.25044578  0.43690917  1
  O  O374  1  0.80744225  0.25066573  0.68896099  1
  O  O375  1  0.80981082  0.25022486  0.93797336  1
  O  O376  1  0.81003284  0.58305086  0.18641641  1
  O  O377  1  0.80605369  0.58325504  0.43882395  1
  O  O378  1  0.81011747  0.58274336  0.68805706  1
  O  O379  1  0.80987701  0.58295375  0.93792228  1
  O  O380  1  0.80952694  0.91600465  0.18663699  1
  O  O381  1  0.80560007  0.91635040  0.43841015  1
  O  O382  1  0.80892790  0.91635244  0.68729157  1
  O  O383  1  0.80728836  0.91669937  0.93890464  1
  O  O384  1  0.23121048  0.24957297  0.03937436  1
  O  O385  1  0.23282870  0.25045122  0.28722947  1
  O  O386  1  0.23278597  0.24999414  0.54023081  1
  O  O387  1  0.23210601  0.24963333  0.78769947  1
  O  O388  1  0.23336880  0.58370936  0.03839055  1
  O  O389  1  0.23485757  0.58343035  0.28791198  1
  O  O390  1  0.23261259  0.58326551  0.54058969  1
  O  O391  1  0.23425472  0.58350340  0.78852270  1
  O  O392  1  0.23163483  0.91641349  0.03991254  1
  O  O393  1  0.23476918  0.91626783  0.28847394  1
  O  O394  1  0.23355976  0.91745678  0.54042192  1
  O  O395  1  0.23095985  0.91651343  0.78919225  1
  O  O396  1  0.73488875  0.24966733  0.03859210  1
  O  O397  1  0.73628505  0.25030761  0.28812032  1
  O  O398  1  0.73296169  0.24933836  0.53767420  1
  O  O399  1  0.73534249  0.24976639  0.79137069  1
  O  O400  1  0.73563154  0.58327419  0.03851411  1
  O  O401  1  0.73524349  0.58319138  0.28705998  1
  O  O402  1  0.73273903  0.58367961  0.54052622  1
  O  O403  1  0.73603694  0.58339563  0.78941744  1
  O  O404  1  0.73501155  0.91748668  0.04124508  1
  O  O405  1  0.73493328  0.91645835  0.28736657  1
  O  O406  1  0.73292508  0.91689725  0.54040234  1
  O  O407  1  0.73592271  0.91643983  0.78942803  1
  O  O408  1  0.26576194  0.08360155  0.20963838  1
  O  O409  1  0.26834259  0.08405158  0.46034448  1
  O  O410  1  0.26559024  0.08357156  0.71202868  1
  O  O411  1  0.26435975  0.08328743  0.95941279  1
  O  O412  1  0.26527676  0.41638007  0.20857092  1
  O  O413  1  0.26687897  0.41661066  0.46224331  1
  O  O414  1  0.26504767  0.41636410  0.70986164  1
  O  O415  1  0.26444052  0.41647032  0.96211721  1
  O  O416  1  0.26727730  0.75003668  0.20988716  1
  O  O417  1  0.26687600  0.74936225  0.46307139  1
  O  O418  1  0.26472226  0.75068043  0.70929907  1
  O  O419  1  0.26612751  0.74998613  0.96238323  1
  O  O420  1  0.76786913  0.08448920  0.21275068  1
  O  O421  1  0.76738614  0.08297595  0.45988525  1
  O  O422  1  0.76901039  0.08352964  0.71080297  1
  O  O423  1  0.76886423  0.08312259  0.96123233  1
  O  O424  1  0.76811999  0.41624038  0.20974538  1
  O  O425  1  0.76636363  0.41711373  0.45968727  1
  O  O426  1  0.76714237  0.41627683  0.70994818  1
  O  O427  1  0.76584407  0.41639571  0.96286598  1
  O  O428  1  0.76568069  0.74968042  0.20900202  1
  O  O429  1  0.76832575  0.74998584  0.45985330  1
  O  O430  1  0.76872436  0.75008125  0.71139169  1
  O  O431  1  0.76753582  0.75017614  0.96395093  1
  O  O432  1  0.01436588  0.08350846  0.16424004  1
  O  O433  1  0.01445128  0.08338136  0.41481785  1
  O  O434  1  0.01460197  0.08353624  0.66261082  1
  O  O435  1  0.01664151  0.08363269  0.91355496  1
  O  O436  1  0.01780203  0.41709969  0.16564524  1
  O  O437  1  0.01584646  0.41599690  0.41332290  1
  O  O438  1  0.01882574  0.41746160  0.66437266  1
  O  O439  1  0.01631023  0.41605763  0.91592237  1
  O  O440  1  0.01766842  0.74946627  0.16286680  1
  O  O441  1  0.01570522  0.75035684  0.41590354  1
  O  O442  1  0.01587696  0.74942692  0.66313690  1
  O  O443  1  0.01483140  0.75023813  0.91374218  1
  O  O444  1  0.51619413  0.08347198  0.16511052  1
  O  O445  1  0.51782648  0.08357745  0.41523374  1
  O  O446  1  0.51449056  0.08365851  0.66408036  1
  O  O447  1  0.51495127  0.08310962  0.91277121  1
  O  O448  1  0.51806507  0.41646922  0.16509958  1
  O  O449  1  0.51553084  0.41607485  0.41553302  1
  O  O450  1  0.51456090  0.41676086  0.66334546  1
  O  O451  1  0.51567271  0.41729931  0.91506641  1
  O  O452  1  0.51549374  0.74976426  0.16343045  1
  O  O453  1  0.51482286  0.75016742  0.41370792  1
  O  O454  1  0.51536969  0.74933203  0.66291786  1
  O  O455  1  0.51466423  0.74979333  0.91600898  1
  O  O456  1  0.48296295  0.25003892  0.08487323  1
  O  O457  1  0.48504120  0.24960683  0.33710197  1
  O  O458  1  0.48239074  0.24968839  0.58577887  1
  O  O459  1  0.48430307  0.25026390  0.83732104  1
  O  O460  1  0.48176760  0.58337932  0.08576771  1
  O  O461  1  0.48456998  0.58316501  0.33767101  1
  O  O462  1  0.48224563  0.58309868  0.58520340  1
  O  O463  1  0.48137378  0.58363966  0.83555229  1
  O  O464  1  0.48123205  0.91638761  0.08555081  1
  O  O465  1  0.48537011  0.91700276  0.33766979  1
  O  O466  1  0.48442750  0.91693936  0.58476877  1
  O  O467  1  0.48312692  0.91612844  0.83467878  1
  O  O468  1  0.98298333  0.25000261  0.08758296  1
  O  O469  1  0.98397793  0.24996089  0.33765172  1
  O  O470  1  0.98539230  0.25011698  0.58591783  1
  O  O471  1  0.98382498  0.25009480  0.83639756  1
  O  O472  1  0.98307713  0.58323037  0.08495827  1
  O  O473  1  0.98488716  0.58362400  0.33767036  1
  O  O474  1  0.98265737  0.58358495  0.58453809  1
  O  O475  1  0.98295228  0.58328768  0.83772691  1
  O  O476  1  0.98262023  0.91659081  0.08450479  1
  O  O477  1  0.98293309  0.91650423  0.33499424  1
  O  O478  1  0.98216650  0.91603157  0.58748443  1
  O  O479  1  0.98510480  0.91674374  0.83657466  1
  O  O480  1  0.08645061  0.31596333  0.07801684  1
  O  O481  1  0.08809940  0.31427139  0.32723574  1
  O  O482  1  0.08885939  0.31611638  0.57762493  1
  O  O483  1  0.08840093  0.31344540  0.82739733  1
  O  O484  1  0.08717396  0.64821511  0.07662396  1
  O  O485  1  0.08827310  0.64871538  0.32796824  1
  O  O486  1  0.08673714  0.64870998  0.57691104  1
  O  O487  1  0.08620538  0.64864918  0.82750210  1
  O  O488  1  0.08687592  0.98072158  0.07675742  1
  O  O489  1  0.08637275  0.98205749  0.32724273  1
  O  O490  1  0.08567725  0.98098172  0.57718491  1
  O  O491  1  0.08812765  0.98310786  0.82746789  1
  O  O492  1  0.58706941  0.31571897  0.07718662  1
  O  O493  1  0.58891212  0.31376099  0.32795720  1
  O  O494  1  0.58647540  0.31479366  0.57684121  1
  O  O495  1  0.58794863  0.31496463  0.82786741  1
  O  O496  1  0.58548028  0.64860427  0.07737505  1
  O  O497  1  0.58790419  0.64851046  0.32777851  1
  O  O498  1  0.58630123  0.64834925  0.57622436  1
  O  O499  1  0.58510167  0.64896223  0.82681620  1
  O  O500  1  0.58542444  0.98091164  0.07713687  1
  O  O501  1  0.58846524  0.98317332  0.32841703  1
  O  O502  1  0.58864360  0.98162320  0.57728117  1
  O  O503  1  0.58694720  0.98142813  0.82715997  1
  O  O504  1  0.41224710  0.01864799  0.17190050  1
  O  O505  1  0.41380365  0.01862646  0.42402287  1
  O  O506  1  0.41014286  0.01966902  0.67310531  1
  O  O507  1  0.41130093  0.01807389  0.92208878  1
  O  O508  1  0.41439386  0.35079599  0.17241762  1
  O  O509  1  0.41139646  0.35118901  0.42343535  1
  O  O510  1  0.41137191  0.35097248  0.67169162  1
  O  O511  1  0.41184664  0.35252926  0.92308883  1
  O  O512  1  0.41162419  0.68484653  0.17247837  1
  O  O513  1  0.41094168  0.68517344  0.42301209  1
  O  O514  1  0.41159106  0.68407464  0.67103972  1
  O  O515  1  0.41088872  0.68393123  0.92261246  1
  O  O516  1  0.91083881  0.01791674  0.17167143  1
  O  O517  1  0.91002784  0.01978122  0.42293327  1
  O  O518  1  0.91133999  0.01748529  0.67216743  1
  O  O519  1  0.91254805  0.01961739  0.92284461  1
  O  O520  1  0.91373610  0.35206479  0.17331153  1
  O  O521  1  0.91252041  0.35040101  0.42214849  1
  O  O522  1  0.91519694  0.35230555  0.67249080  1
  O  O523  1  0.91268319  0.35097266  0.92244098  1
  O  O524  1  0.91388043  0.68480776  0.17151080  1
  O  O525  1  0.91181768  0.68512031  0.42366942  1
  O  O526  1  0.91211865  0.68446001  0.67206558  1
  O  O527  1  0.91144670  0.68420473  0.92236510  1
  O  O528  1  0.16179216  0.01907889  0.20249856  1
  O  O529  1  0.16431260  0.01921081  0.45207413  1
  O  O530  1  0.16221073  0.01803305  0.70264024  1
  O  O531  1  0.16031933  0.01832180  0.95264494  1
  O  O532  1  0.16120056  0.35086597  0.20234318  1
  O  O533  1  0.16315081  0.35175933  0.45361919  1
  O  O534  1  0.16119105  0.35096121  0.70249276  1
  O  O535  1  0.16070115  0.35167265  0.95404977  1
  O  O536  1  0.16330096  0.68503985  0.20120986  1
  O  O537  1  0.16350701  0.68392452  0.45323959  1
  O  O538  1  0.16074843  0.68585280  0.70147685  1
  O  O539  1  0.16275233  0.68444452  0.95296086  1
  O  O540  1  0.66453422  0.01881108  0.20193551  1
  O  O541  1  0.66338025  0.01807251  0.45232854  1
  O  O542  1  0.66518119  0.01836032  0.70241323  1
  O  O543  1  0.66459631  0.01905170  0.95260593  1
  O  O544  1  0.66386661  0.35167697  0.20102143  1
  O  O545  1  0.66278520  0.35168851  0.45280931  1
  O  O546  1  0.66310839  0.35163885  0.70288817  1
  O  O547  1  0.66264386  0.35034171  0.95385647  1
  O  O548  1  0.66161129  0.68474489  0.20084269  1
  O  O549  1  0.66448357  0.68466711  0.45265031  1
  O  O550  1  0.66505597  0.68474973  0.70250041  1
  O  O551  1  0.66410485  0.68502875  0.95239261  1
  O  O552  1  0.33525706  0.31472905  0.04889353  1
  O  O553  1  0.33645776  0.31537069  0.29710473  1
  O  O554  1  0.33668883  0.31509535  0.54826443  1
  O  O555  1  0.33565590  0.31434927  0.79785566  1
  O  O556  1  0.33726067  0.64908046  0.04721411  1
  O  O557  1  0.33810697  0.64923607  0.29615893  1
  O  O558  1  0.33688656  0.64800643  0.54817046  1
  O  O559  1  0.33796799  0.64857806  0.79764067  1
  O  O560  1  0.33585621  0.98097800  0.04819830  1
  O  O561  1  0.33859947  0.98084356  0.29692907  1
  O  O562  1  0.33757379  0.98210110  0.54700531  1
  O  O563  1  0.33431363  0.98268549  0.79784818  1
  O  O564  1  0.83893629  0.31401234  0.04842922  1
  O  O565  1  0.83963572  0.31612441  0.29722132  1
  O  O566  1  0.83654218  0.31439033  0.54742672  1
  O  O567  1  0.83951087  0.31429650  0.79850026  1
  O  O568  1  0.83925707  0.64916484  0.04756687  1
  O  O569  1  0.83905901  0.64727304  0.29647615  1
  O  O570  1  0.83681224  0.64918707  0.54787193  1
  O  O571  1  0.83962282  0.64913478  0.79733268  1
  O  O572  1  0.83950372  0.98176074  0.04760118  1
  O  O573  1  0.83815615  0.98230131  0.29623634  1
  O  O574  1  0.83724148  0.98159476  0.54742047  1
  O  O575  1  0.83945021  0.98185478  0.79661642  1
  O  O576  1  0.41272460  0.14919936  0.17194601  1
  O  O577  1  0.41366082  0.14846552  0.42387007  1
  O  O578  1  0.41094339  0.14984399  0.67254222  1
  O  O579  1  0.41134809  0.14818783  0.92222396  1
  O  O580  1  0.41389078  0.48115356  0.17226300  1
  O  O581  1  0.41147641  0.48107003  0.42355837  1
  O  O582  1  0.41076503  0.48151105  0.67109112  1
  O  O583  1  0.41185636  0.48267102  0.92218036  1
  O  O584  1  0.41182092  0.81516856  0.17277277  1
  O  O585  1  0.41098446  0.81505956  0.42300760  1
  O  O586  1  0.41194082  0.81433210  0.67213566  1
  O  O587  1  0.41020448  0.81394096  0.92346170  1
  O  O588  1  0.91048783  0.14821178  0.17195992  1
  O  O589  1  0.91126809  0.14986360  0.42239552  1
  O  O590  1  0.91069926  0.14768666  0.67234250  1
  O  O591  1  0.91320811  0.14963899  0.92233500  1
  O  O592  1  0.91380964  0.48219642  0.17291379  1
  O  O593  1  0.91218836  0.48057719  0.42251002  1
  O  O594  1  0.91482422  0.48248299  0.67178895  1
  O  O595  1  0.91259295  0.48115169  0.92251396  1
  O  O596  1  0.91417547  0.81502514  0.17164864  1
  O  O597  1  0.91155012  0.81497198  0.42348386  1
  O  O598  1  0.91220261  0.81467361  0.67280587  1
  O  O599  1  0.91079239  0.81423085  0.92280308  1
  O  O600  1  0.08696936  0.18592572  0.07732627  1
  O  O601  1  0.08724969  0.18432313  0.32695839  1
  O  O602  1  0.08936141  0.18593309  0.57661432  1
  O  O603  1  0.08688163  0.18347935  0.82721931  1
  O  O604  1  0.08709850  0.51816804  0.07743939  1
  O  O605  1  0.08836498  0.51855318  0.32810379  1
  O  O606  1  0.08696336  0.51869823  0.57679150  1
  O  O607  1  0.08663555  0.51859560  0.82792396  1
  O  O608  1  0.08642667  0.85067745  0.07672243  1
  O  O609  1  0.08694935  0.85193829  0.32759698  1
  O  O610  1  0.08588151  0.85078733  0.57808170  1
  O  O611  1  0.08918619  0.85291121  0.82711327  1
  O  O612  1  0.58736039  0.18563386  0.07639187  1
  O  O613  1  0.58832855  0.18355574  0.32822797  1
  O  O614  1  0.58666298  0.18487949  0.57701730  1
  O  O615  1  0.58755208  0.18462909  0.82726479  1
  O  O616  1  0.58584154  0.51838811  0.07771899  1
  O  O617  1  0.58815614  0.51829079  0.32796100  1
  O  O618  1  0.58652221  0.51845981  0.57664561  1
  O  O619  1  0.58534355  0.51883471  0.82683020  1
  O  O620  1  0.58496987  0.85070364  0.07734679  1
  O  O621  1  0.58904676  0.85275302  0.32801241  1
  O  O622  1  0.58834154  0.85157313  0.57678189  1
  O  O623  1  0.58701159  0.85114940  0.82754048  1
  O  O624  1  0.33548371  0.18484480  0.04823122  1
  O  O625  1  0.33644708  0.18534269  0.29720906  1
  O  O626  1  0.33692205  0.18501359  0.54804642  1
  O  O627  1  0.33564839  0.18418765  0.79726344  1
  O  O628  1  0.33729046  0.51909112  0.04815167  1
  O  O629  1  0.33846446  0.51887204  0.29681256  1
  O  O630  1  0.33657935  0.51800587  0.54813728  1
  O  O631  1  0.33796762  0.51852464  0.79796587  1
  O  O632  1  0.33578732  0.85102061  0.04794586  1
  O  O633  1  0.33819047  0.85059229  0.29632943  1
  O  O634  1  0.33699270  0.85173814  0.54756715  1
  O  O635  1  0.33502464  0.85249700  0.79785921  1
  O  O636  1  0.83858205  0.18398034  0.04745851  1
  O  O637  1  0.84036758  0.18593257  0.29704006  1
  O  O638  1  0.83682494  0.18438347  0.54635350  1
  O  O639  1  0.83928014  0.18426733  0.79757939  1
  O  O640  1  0.83985201  0.51917371  0.04804952  1
  O  O641  1  0.83829054  0.51695406  0.29624685  1
  O  O642  1  0.83713599  0.51932612  0.54860416  1
  O  O643  1  0.84008563  0.51891952  0.79812568  1
  O  O644  1  0.83878528  0.85167272  0.04818900  1
  O  O645  1  0.83847785  0.85194624  0.29671379  1
  O  O646  1  0.83693776  0.85155257  0.54787434  1
  O  O647  1  0.83961776  0.85157043  0.79680190  1
  O  O648  1  0.16207651  0.14922204  0.20274520  1
  O  O649  1  0.16443492  0.14937395  0.45260181  1
  O  O650  1  0.16184270  0.14815436  0.70274191  1
  O  O651  1  0.16048634  0.14855310  0.95238508  1
  O  O652  1  0.16111573  0.48082429  0.20175756  1
  O  O653  1  0.16336649  0.48207952  0.45322808  1
  O  O654  1  0.16108215  0.48104572  0.70182374  1
  O  O655  1  0.16126557  0.48224508  0.95376210  1
  O  O656  1  0.16299970  0.81487570  0.20142160  1
  O  O657  1  0.16343361  0.81431474  0.45279861  1
  O  O658  1  0.16060761  0.81586467  0.70229786  1
  O  O659  1  0.16220752  0.81466932  0.95354586  1
  O  O660  1  0.66407520  0.14881066  0.20237940  1
  O  O661  1  0.66343203  0.14824829  0.45175482  1
  O  O662  1  0.66512334  0.14835893  0.70224402  1
  O  O663  1  0.66532621  0.14924548  0.95278428  1
  O  O664  1  0.66411618  0.48156645  0.20068812  1
  O  O665  1  0.66266577  0.48226559  0.45308685  1
  O  O666  1  0.66341494  0.48176506  0.70273458  1
  O  O667  1  0.66215763  0.48086499  0.95284040  1
  O  O668  1  0.66152101  0.81466282  0.20088303  1
  O  O669  1  0.66440303  0.81499963  0.45298185  1
  O  O670  1  0.66472041  0.81474554  0.70279089  1
  O  O671  1  0.66413986  0.81538960  0.95283072  1
