# generated using pymatgen
data_Na2MnFe(PO4)2
_symmetry_space_group_name_H-M   'P 1'
_cell_length_a   21.08660091
_cell_length_b   18.93959322
_cell_length_c   20.04531579
_cell_angle_alpha   89.99990307
_cell_angle_beta   90.00347059
_cell_angle_gamma   89.99993763
_symmetry_Int_Tables_number   1
_chemical_formula_structural   Na2MnFe(PO4)2
_chemical_formula_sum   'Na96 Mn48 Fe48 P96 O384'
_cell_volume   8005.53070152
_cell_formula_units_Z   48
loop_
 _symmetry_equiv_pos_site_id
 _symmetry_equiv_pos_as_xyz
  1  'x, y, z'
loop_
 _atom_site_type_symbol
 _atom_site_label
 _atom_site_symmetry_multiplicity
 _atom_site_fract_x
 _atom_site_fract_y
 _atom_site_fract_z
 _atom_site_occupancy
  Na  Na0  1  -0.00123987  -0.00018570  0.00087570  1
  Na  Na1  1  -0.00024157  -0.00019127  0.24979641  1
  Na  Na2  1  0.00254188  0.00080586  0.49955294  1
  Na  Na3  1  0.00082480  0.00077656  0.75019791  1
  Na  Na4  1  -0.00259095  0.33236404  0.00036126  1
  Na  Na5  1  -0.00166181  0.33350361  0.25056892  1
  Na  Na6  1  -0.00116251  0.33268544  0.49966785  1
  Na  Na7  1  0.00097584  0.33347837  0.74899776  1
  Na  Na8  1  0.00170177  0.66780337  -0.00055500  1
  Na  Na9  1  -0.00197680  0.66691976  0.24993593  1
  Na  Na10  1  -0.00158867  0.66725813  0.49936945  1
  Na  Na11  1  0.00119382  0.66810652  0.75025895  1
  Na  Na12  1  0.50063748  -0.00013433  0.00089919  1
  Na  Na13  1  0.49994670  -0.00059317  0.25065848  1
  Na  Na14  1  0.50048617  -0.00012086  0.49898207  1
  Na  Na15  1  0.50131305  0.00026232  0.74983245  1
  Na  Na16  1  0.49928565  0.33283020  -0.00063630  1
  Na  Na17  1  0.49841343  0.33305952  0.24885754  1
  Na  Na18  1  0.49724690  0.33232309  0.50147077  1
  Na  Na19  1  0.49851600  0.33272405  0.75018802  1
  Na  Na20  1  0.50167040  0.66711871  0.00053513  1
  Na  Na21  1  0.50032174  0.66608095  0.25063316  1
  Na  Na22  1  0.50123631  0.66709112  0.49857767  1
  Na  Na23  1  0.50017219  0.66629185  0.75095267  1
  Na  Na24  1  0.25140713  -0.00049054  0.12517110  1
  Na  Na25  1  0.25124710  -0.00028598  0.37565431  1
  Na  Na26  1  0.24832531  -0.00099443  0.62471306  1
  Na  Na27  1  0.24877545  -0.00067728  0.87426017  1
  Na  Na28  1  0.25181880  0.33352467  0.12485491  1
  Na  Na29  1  0.25150287  0.33317621  0.37470009  1
  Na  Na30  1  0.25172143  0.33281991  0.62506597  1
  Na  Na31  1  0.25210705  0.33361559  0.87493212  1
  Na  Na32  1  0.24947104  0.66702687  0.12503385  1
  Na  Na33  1  0.25116146  0.66764796  0.37532783  1
  Na  Na34  1  0.24883039  0.66648140  0.62556544  1
  Na  Na35  1  0.24806055  0.66618460  0.87436042  1
  Na  Na36  1  0.75009084  0.00071702  0.12438210  1
  Na  Na37  1  0.74783153  -0.00047719  0.37588706  1
  Na  Na38  1  0.74843425  -0.00002065  0.62530976  1
  Na  Na39  1  0.75060987  0.00106824  0.87529439  1
  Na  Na40  1  0.75159695  0.33377766  0.12536557  1
  Na  Na41  1  0.75265875  0.33395548  0.37496879  1
  Na  Na42  1  0.75164305  0.33347306  0.62536003  1
  Na  Na43  1  0.74941985  0.33208985  0.87411771  1
  Na  Na44  1  0.74884147  0.66638641  0.12487512  1
  Na  Na45  1  0.74998561  0.66727514  0.37570914  1
  Na  Na46  1  0.74984421  0.66711997  0.62407368  1
  Na  Na47  1  0.75025007  0.66735701  0.87543668  1
  Na  Na48  1  -0.00159880  0.16647100  -0.00037703  1
  Na  Na49  1  -0.00298542  0.16746647  0.25073688  1
  Na  Na50  1  0.00121079  0.16638339  0.49929326  1
  Na  Na51  1  0.00073800  0.16674367  0.75001465  1
  Na  Na52  1  -0.00006688  0.49962789  0.00063372  1
  Na  Na53  1  -0.00264654  0.50045444  0.24908832  1
  Na  Na54  1  -0.00189573  0.50039504  0.49972618  1
  Na  Na55  1  -0.00062315  0.50034747  0.74998927  1
  Na  Na56  1  0.00059313  0.83296384  0.00063639  1
  Na  Na57  1  0.00093807  0.83256627  0.25027386  1
  Na  Na58  1  0.00034410  0.83329081  0.49948339  1
  Na  Na59  1  0.00100153  0.83289723  0.74926636  1
  Na  Na60  1  0.50298894  0.16597334  -0.00018711  1
  Na  Na61  1  0.49943594  0.16673095  0.24992922  1
  Na  Na62  1  0.49890404  0.16692404  0.49981568  1
  Na  Na63  1  0.50116525  0.16660910  0.75022686  1
  Na  Na64  1  0.49931611  0.50086735  -0.00015404  1
  Na  Na65  1  0.50098048  0.50006393  0.24981325  1
  Na  Na66  1  0.49895535  0.50053913  0.50009144  1
  Na  Na67  1  0.49827257  0.50044278  0.75036214  1
  Na  Na68  1  0.49896689  0.83390262  0.00108792  1
  Na  Na69  1  0.49895891  0.83389575  0.25059856  1
  Na  Na70  1  0.50054667  0.83323248  0.49904216  1
  Na  Na71  1  0.50057842  0.83326974  0.75022857  1
  Na  Na72  1  0.25205301  0.16619755  0.12439283  1
  Na  Na73  1  0.25127922  0.16610070  0.37609564  1
  Na  Na74  1  0.24856676  0.16765182  0.62469035  1
  Na  Na75  1  0.24952227  0.16731237  0.87450622  1
  Na  Na76  1  0.25070727  0.50031960  0.12590604  1
  Na  Na77  1  0.25185952  0.49991406  0.37426599  1
  Na  Na78  1  0.25346790  0.49862854  0.62537097  1
  Na  Na79  1  0.25124101  0.50011596  0.87429670  1
  Na  Na80  1  0.25027502  0.83325759  0.12484043  1
  Na  Na81  1  0.25043486  0.83350993  0.37537936  1
  Na  Na82  1  0.24820709  0.83388852  0.62496526  1
  Na  Na83  1  0.24771247  0.83380822  0.87479423  1
  Na  Na84  1  0.74899834  0.16657948  0.12483950  1
  Na  Na85  1  0.75054722  0.16589475  0.37558012  1
  Na  Na86  1  0.75001294  0.16620476  0.62529121  1
  Na  Na87  1  0.74931395  0.16648279  0.87481306  1
  Na  Na88  1  0.75116782  0.49984280  0.12533775  1
  Na  Na89  1  0.75003903  0.50028138  0.37499975  1
  Na  Na90  1  0.74926268  0.50057261  0.62480391  1
  Na  Na91  1  0.75034983  0.49971491  0.87445946  1
  Na  Na92  1  0.74955829  0.83333177  0.12466794  1
  Na  Na93  1  0.75006487  0.83275687  0.37569321  1
  Na  Na94  1  0.74983800  0.83320818  0.62488263  1
  Na  Na95  1  0.75132887  0.83233563  0.87543683  1
  Mn  Mn96  1  0.60798391  0.75009727  0.37224335  1
  Mn  Mn97  1  0.14210874  0.25084819  0.99815795  1
  Mn  Mn98  1  0.14183807  0.58394586  0.24786184  1
  Mn  Mn99  1  0.64213515  0.58320952  0.74730536  1
  Mn  Mn100  1  0.35736524  0.74932216  0.00241655  1
  Mn  Mn101  1  0.60777377  0.41582378  0.37349641  1
  Mn  Mn102  1  0.10830870  0.08344203  0.37183729  1
  Mn  Mn103  1  0.14225908  0.91654104  0.99814608  1
  Mn  Mn104  1  0.89247567  0.58362319  0.87746036  1
  Mn  Mn105  1  0.39263261  0.58312004  0.37730145  1
  Mn  Mn106  1  0.10834042  0.41679183  0.62186752  1
  Mn  Mn107  1  0.14234537  0.58264797  0.49732279  1
  Mn  Mn108  1  0.35747908  0.08333251  0.50323414  1
  Mn  Mn109  1  0.64196263  0.25065864  0.49820986  1
  Mn  Mn110  1  0.35882216  0.08347326  0.00187570  1
  Mn  Mn111  1  0.14265929  0.24926329  0.24716555  1
  Mn  Mn112  1  0.14240964  0.58251337  0.74699994  1
  Mn  Mn113  1  0.10830110  0.41660089  0.87325503  1
  Mn  Mn114  1  0.89252702  0.91770823  0.62694134  1
  Mn  Mn115  1  0.35796102  0.74953403  0.50324609  1
  Mn  Mn116  1  0.64230381  0.91666111  0.99788504  1
  Mn  Mn117  1  0.64233346  0.91669443  0.74746771  1
  Mn  Mn118  1  0.39200063  0.58355388  0.87815094  1
  Mn  Mn119  1  0.64239939  0.25013972  0.24809207  1
  Mn  Mn120  1  0.35841163  0.41658479  0.25247279  1
  Mn  Mn121  1  0.89176855  0.25018455  0.87676459  1
  Mn  Mn122  1  0.89173153  0.91645134  0.37697106  1
  Mn  Mn123  1  0.85784576  0.41660555  0.75238715  1
  Mn  Mn124  1  0.39193067  0.91733496  0.87675990  1
  Mn  Mn125  1  0.89182153  0.91678614  0.12800872  1
  Mn  Mn126  1  0.60854875  0.75060985  0.87305940  1
  Mn  Mn127  1  0.85751562  0.08301044  0.50295854  1
  Mn  Mn128  1  0.10768059  0.08363425  0.12335619  1
  Mn  Mn129  1  0.89175446  0.58333624  0.62731144  1
  Mn  Mn130  1  0.89185320  0.58315940  0.12681992  1
  Mn  Mn131  1  0.60667149  0.41668793  0.62247086  1
  Mn  Mn132  1  0.89254963  0.91665577  0.87672966  1
  Mn  Mn133  1  0.60710087  0.08406758  0.37271484  1
  Mn  Mn134  1  0.10710337  0.74931407  0.37256074  1
  Mn  Mn135  1  0.35766044  0.08324191  0.75186756  1
  Mn  Mn136  1  0.10758275  0.08328350  0.87299486  1
  Mn  Mn137  1  0.10729844  0.41734921  0.37315511  1
  Mn  Mn138  1  0.60761024  0.41612996  0.87309852  1
  Mn  Mn139  1  0.60845300  0.41681368  0.12221805  1
  Mn  Mn140  1  0.89187290  0.25016998  0.37780105  1
  Mn  Mn141  1  0.35741218  0.75005126  0.75166626  1
  Mn  Mn142  1  0.10709378  0.41661584  0.12265055  1
  Mn  Mn143  1  0.39307598  0.24959938  0.12685333  1
  Fe  Fe144  1  0.64329104  0.25079645  0.99837211  1
  Fe  Fe145  1  0.60731470  0.75025628  0.12411347  1
  Fe  Fe146  1  0.85714770  0.08302968  0.75122371  1
  Fe  Fe147  1  0.14194755  0.91735583  0.74723903  1
  Fe  Fe148  1  0.64309037  0.58270318  0.99890055  1
  Fe  Fe149  1  0.39322454  0.58418242  0.62622265  1
  Fe  Fe150  1  0.35773197  0.41677240  0.50184283  1
  Fe  Fe151  1  0.14320956  0.25000545  0.74793475  1
  Fe  Fe152  1  0.39313953  0.58439271  0.12666905  1
  Fe  Fe153  1  0.39201424  0.24969204  0.37691254  1
  Fe  Fe154  1  0.85653718  0.08368694  0.00215042  1
  Fe  Fe155  1  0.10671702  0.75034739  0.62271264  1
  Fe  Fe156  1  0.39294170  0.91626402  0.62630722  1
  Fe  Fe157  1  0.14342875  0.25038846  0.49829559  1
  Fe  Fe158  1  0.85699236  0.41695226  0.25220411  1
  Fe  Fe159  1  0.64265705  0.58315997  0.49875281  1
  Fe  Fe160  1  0.35748899  0.75048154  0.25100874  1
  Fe  Fe161  1  0.85710438  0.41700500  0.50217546  1
  Fe  Fe162  1  0.39306494  0.91604875  0.12733802  1
  Fe  Fe163  1  0.60756052  0.08274633  0.12379040  1
  Fe  Fe164  1  0.10733588  0.08349014  0.62359933  1
  Fe  Fe165  1  0.10751959  0.74990649  0.12363462  1
  Fe  Fe166  1  0.39278630  0.91683385  0.37705864  1
  Fe  Fe167  1  0.39345249  0.24917389  0.87658117  1
  Fe  Fe168  1  0.89091314  0.58364504  0.37659637  1
  Fe  Fe169  1  0.89113677  0.24944110  0.12653632  1
  Fe  Fe170  1  0.35761062  0.41732018  0.00172031  1
  Fe  Fe171  1  0.85712780  0.41658299  0.00120428  1
  Fe  Fe172  1  0.64192468  0.91621712  0.49882741  1
  Fe  Fe173  1  0.35760346  0.41634468  0.75181368  1
  Fe  Fe174  1  0.10699390  0.75012149  0.87311446  1
  Fe  Fe175  1  0.14297732  0.58274938  0.99880451  1
  Fe  Fe176  1  0.85767348  0.74977080  0.00221220  1
  Fe  Fe177  1  0.85771857  0.75057333  0.75129861  1
  Fe  Fe178  1  0.64330569  0.58363286  0.24812926  1
  Fe  Fe179  1  0.60706805  0.08283923  0.62368713  1
  Fe  Fe180  1  0.14392653  0.91676642  0.24867948  1
  Fe  Fe181  1  0.64254384  0.25006810  0.74771264  1
  Fe  Fe182  1  0.60813994  0.08338827  0.87318016  1
  Fe  Fe183  1  0.14305395  0.91668713  0.49786060  1
  Fe  Fe184  1  0.85669387  0.75038043  0.25107104  1
  Fe  Fe185  1  0.85624723  0.75021957  0.50221919  1
  Fe  Fe186  1  0.85624325  0.08251790  0.25156886  1
  Fe  Fe187  1  0.89353162  0.24935458  0.62668491  1
  Fe  Fe188  1  0.64223772  0.91626730  0.24845113  1
  Fe  Fe189  1  0.60762113  0.75042348  0.62372689  1
  Fe  Fe190  1  0.35843347  0.08257145  0.25123157  1
  Fe  Fe191  1  0.39236956  0.24919062  0.62751458  1
  P  P192  1  0.05112525  0.24967167  0.11011919  1
  P  P193  1  0.05455417  0.25056419  0.36078105  1
  P  P194  1  0.05454244  0.24925980  0.61021547  1
  P  P195  1  0.05392861  0.25033360  0.85914162  1
  P  P196  1  0.05368120  0.58428114  0.10950335  1
  P  P197  1  0.05085004  0.58322665  0.35965094  1
  P  P198  1  0.05306385  0.58417582  0.60944584  1
  P  P199  1  0.05479720  0.58369549  0.86116050  1
  P  P200  1  0.05467188  0.91611756  0.11179775  1
  P  P201  1  0.05507523  0.91642409  0.35997497  1
  P  P202  1  0.05506008  0.91709251  0.61021684  1
  P  P203  1  0.05416587  0.91602220  0.85942852  1
  P  P204  1  0.55469843  0.24941549  0.10941648  1
  P  P205  1  0.55140986  0.25041290  0.36005210  1
  P  P206  1  0.55278228  0.24925875  0.61139250  1
  P  P207  1  0.55483733  0.24954728  0.86056316  1
  P  P208  1  0.55459895  0.58439665  0.11092321  1
  P  P209  1  0.55570577  0.58276969  0.36041002  1
  P  P210  1  0.55272964  0.58419887  0.60950777  1
  P  P211  1  0.55481077  0.58297080  0.86134272  1
  P  P212  1  0.55379917  0.91611953  0.11198956  1
  P  P213  1  0.55400461  0.91671232  0.36045942  1
  P  P214  1  0.55274154  0.91651082  0.60948318  1
  P  P215  1  0.55365252  0.91748559  0.86020060  1
  P  P216  1  0.44783520  0.08241895  0.14041010  1
  P  P217  1  0.44472080  0.08305178  0.38884646  1
  P  P218  1  0.44765338  0.08255738  0.63987522  1
  P  P219  1  0.44851700  0.08410252  0.88971623  1
  P  P220  1  0.44590882  0.41809831  0.13841867  1
  P  P221  1  0.44614547  0.41578591  0.39085876  1
  P  P222  1  0.44441736  0.41686864  0.63954226  1
  P  P223  1  0.44475546  0.41557095  0.88947445  1
  P  P224  1  0.44732015  0.74962457  0.14056750  1
  P  P225  1  0.44528385  0.75082298  0.38865069  1
  P  P226  1  0.44829307  0.75018167  0.63976993  1
  P  P227  1  0.44688811  0.75035026  0.89045038  1
  P  P228  1  0.94428869  0.08408625  0.13985229  1
  P  P229  1  0.94529404  0.08266190  0.38913543  1
  P  P230  1  0.94754938  0.08419232  0.64029590  1
  P  P231  1  0.94465239  0.08331586  0.88957575  1
  P  P232  1  0.94387194  0.41564568  0.13935084  1
  P  P233  1  0.94401681  0.41787033  0.38967204  1
  P  P234  1  0.94571226  0.41571847  0.63875384  1
  P  P235  1  0.94628711  0.41662876  0.89073740  1
  P  P236  1  0.94595574  0.74990072  0.13966130  1
  P  P237  1  0.94358027  0.74961999  0.38930739  1
  P  P238  1  0.94581235  0.75059649  0.63915539  1
  P  P239  1  0.94614787  0.75041199  0.88956638  1
  P  P240  1  0.19884000  0.08229335  0.23506450  1
  P  P241  1  0.19504701  0.08338933  0.48651479  1
  P  P242  1  0.19582507  0.08366712  0.73436856  1
  P  P243  1  0.19708676  0.08344971  0.98495016  1
  P  P244  1  0.19673301  0.41661150  0.23491824  1
  P  P245  1  0.19845243  0.41591455  0.48479231  1
  P  P246  1  0.19810304  0.41551876  0.73490160  1
  P  P247  1  0.19818608  0.41762146  0.98528253  1
  P  P248  1  0.19721515  0.75108963  0.23487746  1
  P  P249  1  0.19531282  0.75051602  0.48609310  1
  P  P250  1  0.19421521  0.75083354  0.73527997  1
  P  P251  1  0.19464191  0.74892624  0.98567207  1
  P  P252  1  0.69660275  0.08254593  0.23484285  1
  P  P253  1  0.69458365  0.08284725  0.48661735  1
  P  P254  1  0.69571614  0.08405448  0.73558157  1
  P  P255  1  0.69567622  0.08413292  0.98593049  1
  P  P256  1  0.69787134  0.41722347  0.23547620  1
  P  P257  1  0.69777419  0.41696399  0.48537980  1
  P  P258  1  0.69632612  0.41570944  0.73473089  1
  P  P259  1  0.69802098  0.41655094  0.98512797  1
  P  P260  1  0.69703938  0.75015843  0.23475691  1
  P  P261  1  0.69544779  0.75012625  0.48651372  1
  P  P262  1  0.69759174  0.75012705  0.73430153  1
  P  P263  1  0.69672469  0.74937140  0.98671606  1
  P  P264  1  0.30505927  0.25065166  0.01352612  1
  P  P265  1  0.30458372  0.24863989  0.26547750  1
  P  P266  1  0.30437048  0.25054114  0.51470013  1
  P  P267  1  0.30462211  0.24998102  0.76437246  1
  P  P268  1  0.30286525  0.58296912  0.01581959  1
  P  P269  1  0.30472024  0.58492490  0.26381033  1
  P  P270  1  0.30406242  0.58272975  0.51575709  1
  P  P271  1  0.30506556  0.58313176  0.76361653  1
  P  P272  1  0.30432945  0.91647223  0.01566228  1
  P  P273  1  0.30496959  0.91616800  0.26440734  1
  P  P274  1  0.30393133  0.91649940  0.51489843  1
  P  P275  1  0.30288994  0.91656828  0.76342397  1
  P  P276  1  0.80266341  0.24989967  0.01497840  1
  P  P277  1  0.80434799  0.24925930  0.26391301  1
  P  P278  1  0.80400849  0.25037167  0.51608330  1
  P  P279  1  0.80344556  0.24852035  0.76342547  1
  P  P280  1  0.80247875  0.58335161  0.01468776  1
  P  P281  1  0.80272666  0.58409692  0.26513490  1
  P  P282  1  0.80314909  0.58358808  0.51373708  1
  P  P283  1  0.80343426  0.58462182  0.76495400  1
  P  P284  1  0.80377030  0.91661335  0.01477860  1
  P  P285  1  0.80143605  0.91677227  0.26489274  1
  P  P286  1  0.80179996  0.91613080  0.51507774  1
  P  P287  1  0.80351097  0.91685150  0.76466961  1
  O  O288  1  0.05541602  0.24963333  0.18682113  1
  O  O289  1  0.05954074  0.25051172  0.43750434  1
  O  O290  1  0.05931219  0.25034265  0.68691446  1
  O  O291  1  0.05684644  0.25031925  0.93595931  1
  O  O292  1  0.05624139  0.58357612  0.18631512  1
  O  O293  1  0.05545435  0.58319286  0.43630439  1
  O  O294  1  0.05638100  0.58322004  0.68625734  1
  O  O295  1  0.05880211  0.58255987  0.93786818  1
  O  O296  1  0.05933950  0.91675502  0.18848600  1
  O  O297  1  0.05940662  0.91663891  0.43675177  1
  O  O298  1  0.05836105  0.91712980  0.68705780  1
  O  O299  1  0.05668805  0.91692056  0.93626184  1
  O  O300  1  0.55733788  0.25046095  0.18623905  1
  O  O301  1  0.55549309  0.25053715  0.43675165  1
  O  O302  1  0.55787959  0.25009160  0.68802021  1
  O  O303  1  0.55980025  0.25067976  0.93726021  1
  O  O304  1  0.55957712  0.58327402  0.18765583  1
  O  O305  1  0.56016131  0.58294168  0.43716681  1
  O  O306  1  0.55605842  0.58326002  0.68628703  1
  O  O307  1  0.55974323  0.58282422  0.93809367  1
  O  O308  1  0.55843904  0.91615092  0.18867180  1
  O  O309  1  0.55888477  0.91628353  0.43710587  1
  O  O310  1  0.55637006  0.91640240  0.68620825  1
  O  O311  1  0.55668899  0.91676522  0.93700937  1
  O  O312  1  0.44454728  0.08300901  0.06369795  1
  O  O313  1  0.44135724  0.08284198  0.31208944  1
  O  O314  1  0.44392028  0.08286098  0.56316565  1
  O  O315  1  0.44435507  0.08357037  0.81307770  1
  O  O316  1  0.44183579  0.41772410  0.06168111  1
  O  O317  1  0.44372556  0.41675425  0.31398833  1
  O  O318  1  0.44091801  0.41671604  0.56272496  1
  O  O319  1  0.44090674  0.41646337  0.81266722  1
  O  O320  1  0.44376815  0.74952377  0.06388430  1
  O  O321  1  0.44122741  0.75022065  0.31200038  1
  O  O322  1  0.44488310  0.75005944  0.56304284  1
  O  O323  1  0.44330829  0.74998801  0.81369466  1
  O  O324  1  0.93998700  0.08332628  0.06303716  1
  O  O325  1  0.94016257  0.08216369  0.31244841  1
  O  O326  1  0.94384621  0.08332332  0.56356420  1
  O  O327  1  0.94048393  0.08342031  0.81281445  1
  O  O328  1  0.93968310  0.41653791  0.06255141  1
  O  O329  1  0.93984833  0.41727799  0.31281385  1
  O  O330  1  0.94109958  0.41657918  0.56202286  1
  O  O331  1  0.94324896  0.41671974  0.81390479  1
  O  O332  1  0.94104497  0.75004646  0.06293816  1
  O  O333  1  0.93924971  0.75065257  0.31250132  1
  O  O334  1  0.94037646  0.75060407  0.56248153  1
  O  O335  1  0.94131342  0.75034346  0.81286163  1
  O  O336  1  0.19388508  0.08345125  0.06171717  1
  O  O337  1  0.19504468  0.08297600  0.31178099  1
  O  O338  1  0.19108628  0.08349270  0.56321547  1
  O  O339  1  0.19323450  0.08353279  0.81114578  1
  O  O340  1  0.19402302  0.41672515  0.06194439  1
  O  O341  1  0.19328042  0.41676533  0.31167066  1
  O  O342  1  0.19474451  0.41642725  0.56150557  1
  O  O343  1  0.19428875  0.41633247  0.81154833  1
  O  O344  1  0.19100764  0.75002377  0.06244967  1
  O  O345  1  0.19352964  0.75008798  0.31160749  1
  O  O346  1  0.19087518  0.74982172  0.56280200  1
  O  O347  1  0.19053707  0.75018720  0.81209690  1
  O  O348  1  0.69080632  0.08302387  0.06259904  1
  O  O349  1  0.69296908  0.08325324  0.31161369  1
  O  O350  1  0.69024715  0.08341800  0.56338402  1
  O  O351  1  0.69149023  0.08346185  0.81233340  1
  O  O352  1  0.69483830  0.41663496  0.06186041  1
  O  O353  1  0.69410425  0.41626584  0.31211049  1
  O  O354  1  0.69349308  0.41627982  0.56203480  1
  O  O355  1  0.69323753  0.41598154  0.81148034  1
  O  O356  1  0.69153095  0.75024013  0.06331338  1
  O  O357  1  0.69381036  0.75036622  0.31159786  1
  O  O358  1  0.69084922  0.75026828  0.56316692  1
  O  O359  1  0.69391600  0.75024033  0.81103480  1
  O  O360  1  0.30786583  0.24936688  0.18865243  1
  O  O361  1  0.30880684  0.24961432  0.43802498  1
  O  O362  1  0.30929423  0.24877595  0.68758706  1
  O  O363  1  0.30907250  0.24933133  0.93679240  1
  O  O364  1  0.30894504  0.58457259  0.18711762  1
  O  O365  1  0.30703293  0.58393076  0.43893352  1
  O  O366  1  0.30962344  0.58433744  0.68693961  1
  O  O367  1  0.30619533  0.58399953  0.93902603  1
  O  O368  1  0.30961262  0.91618364  0.18765961  1
  O  O369  1  0.30896657  0.91645411  0.43823956  1
  O  O370  1  0.30868452  0.91643175  0.68681275  1
  O  O371  1  0.30694851  0.91648968  0.93880504  1
  O  O372  1  0.80735597  0.24929802  0.18714911  1
  O  O373  1  0.80675060  0.24932828  0.43923419  1
  O  O374  1  0.80868111  0.24893252  0.68687342  1
  O  O375  1  0.80577705  0.24964190  0.93824069  1
  O  O376  1  0.80618495  0.58406760  0.18843345  1
  O  O377  1  0.80701711  0.58361335  0.43706642  1
  O  O378  1  0.80622851  0.58405320  0.68814436  1
  O  O379  1  0.80595339  0.58363469  0.93802966  1
  O  O380  1  0.80512044  0.91689773  0.18820783  1
  O  O381  1  0.80556049  0.91691788  0.43844114  1
  O  O382  1  0.80623350  0.91703854  0.68792015  1
  O  O383  1  0.80669942  0.91639288  0.93807096  1
  O  O384  1  0.23522303  0.25038084  0.03836475  1
  O  O385  1  0.23485077  0.24959426  0.29043382  1
  O  O386  1  0.23399083  0.25001101  0.53838102  1
  O  O387  1  0.23419582  0.24985853  0.78774524  1
  O  O388  1  0.23289337  0.58329502  0.04051290  1
  O  O389  1  0.23477252  0.58422148  0.28840031  1
  O  O390  1  0.23439687  0.58277876  0.54092145  1
  O  O391  1  0.23496007  0.58323946  0.78749939  1
  O  O392  1  0.23460866  0.91646164  0.04061330  1
  O  O393  1  0.23462536  0.91634468  0.28833479  1
  O  O394  1  0.23341862  0.91664499  0.53788493  1
  O  O395  1  0.23240931  0.91705061  0.78648507  1
  O  O396  1  0.73263995  0.25007911  0.03988135  1
  O  O397  1  0.73462620  0.24952612  0.28938494  1
  O  O398  1  0.73426475  0.24987760  0.54108928  1
  O  O399  1  0.73313195  0.24900531  0.78718266  1
  O  O400  1  0.73257195  0.58311179  0.03982761  1
  O  O401  1  0.73258842  0.58412414  0.28971837  1
  O  O402  1  0.73298073  0.58373733  0.53827300  1
  O  O403  1  0.73386513  0.58385079  0.79032916  1
  O  O404  1  0.73406216  0.91688626  0.03998736  1
  O  O405  1  0.73144492  0.91626345  0.28978995  1
  O  O406  1  0.73178268  0.91630154  0.53972621  1
  O  O407  1  0.73405055  0.91674070  0.79051005  1
  O  O408  1  0.26888754  0.08238221  0.21049031  1
  O  O409  1  0.26511220  0.08309794  0.46235609  1
  O  O410  1  0.26545706  0.08341001  0.70887191  1
  O  O411  1  0.26668736  0.08318268  0.95957445  1
  O  O412  1  0.26662098  0.41665838  0.21038976  1
  O  O413  1  0.26846560  0.41647698  0.46020423  1
  O  O414  1  0.26822326  0.41559525  0.71061173  1
  O  O415  1  0.26816518  0.41745269  0.96062127  1
  O  O416  1  0.26731612  0.75063669  0.21039926  1
  O  O417  1  0.26540204  0.75041683  0.46219424  1
  O  O418  1  0.26426082  0.75013395  0.71094282  1
  O  O419  1  0.26459186  0.74983439  0.96105256  1
  O  O420  1  0.76663619  0.08323058  0.21032550  1
  O  O421  1  0.76462409  0.08312171  0.46256426  1
  O  O422  1  0.76601819  0.08318656  0.71164130  1
  O  O423  1  0.76618592  0.08365393  0.96258188  1
  O  O424  1  0.76802507  0.41709958  0.21114275  1
  O  O425  1  0.76783852  0.41683342  0.46105805  1
  O  O426  1  0.76605596  0.41664967  0.70977964  1
  O  O427  1  0.76787713  0.41620713  0.95986330  1
  O  O428  1  0.76712765  0.74998924  0.21012469  1
  O  O429  1  0.76572968  0.75007101  0.46258720  1
  O  O430  1  0.76763449  0.75032076  0.70983032  1
  O  O431  1  0.76711694  0.74965490  0.96307383  1
  O  O432  1  0.01434879  0.08348132  0.16401351  1
  O  O433  1  0.01550889  0.08311614  0.41246538  1
  O  O434  1  0.01766199  0.08372460  0.66459497  1
  O  O435  1  0.01473049  0.08320050  0.91364197  1
  O  O436  1  0.01394082  0.41689869  0.16349715  1
  O  O437  1  0.01404557  0.41676595  0.41385832  1
  O  O438  1  0.01578250  0.41637897  0.66276416  1
  O  O439  1  0.01592261  0.41595944  0.91583755  1
  O  O440  1  0.01632716  0.74966852  0.16318595  1
  O  O441  1  0.01379382  0.75021732  0.41294792  1
  O  O442  1  0.01634987  0.75071271  0.66209077  1
  O  O443  1  0.01657333  0.75040919  0.91294624  1
  O  O444  1  0.51792250  0.08297684  0.16508424  1
  O  O445  1  0.51456018  0.08323960  0.41363581  1
  O  O446  1  0.51770512  0.08273825  0.66450879  1
  O  O447  1  0.51853736  0.08362983  0.91430294  1
  O  O448  1  0.51590020  0.41706951  0.16287746  1
  O  O449  1  0.51563074  0.41638674  0.41664307  1
  O  O450  1  0.51441773  0.41670965  0.66415674  1
  O  O451  1  0.51477931  0.41655183  0.91375680  1
  O  O452  1  0.51737121  0.74986002  0.16537924  1
  O  O453  1  0.51544235  0.75036975  0.41264223  1
  O  O454  1  0.51825135  0.75015229  0.66487395  1
  O  O455  1  0.51661059  0.75059876  0.91538658  1
  O  O456  1  0.48499848  0.24954370  0.08429382  1
  O  O457  1  0.48146452  0.24984967  0.33550751  1
  O  O458  1  0.48226323  0.24954044  0.58807849  1
  O  O459  1  0.48441089  0.24973342  0.83708212  1
  O  O460  1  0.48421172  0.58430332  0.08729975  1
  O  O461  1  0.48551091  0.58292911  0.33689872  1
  O  O462  1  0.48267838  0.58388885  0.58481026  1
  O  O463  1  0.48464537  0.58290820  0.83784220  1
  O  O464  1  0.48345633  0.91629249  0.08810686  1
  O  O465  1  0.48357146  0.91687157  0.33725966  1
  O  O466  1  0.48267964  0.91656417  0.58469203  1
  O  O467  1  0.48411026  0.91718415  0.83476698  1
  O  O468  1  0.98105157  0.24947060  0.08579501  1
  O  O469  1  0.98426339  0.25047243  0.33754713  1
  O  O470  1  0.98413851  0.24940396  0.58650996  1
  O  O471  1  0.98416410  0.25031232  0.83423455  1
  O  O472  1  0.98396625  0.58398201  0.08428682  1
  O  O473  1  0.98074859  0.58370874  0.33549681  1
  O  O474  1  0.98331343  0.58402493  0.58459634  1
  O  O475  1  0.98491226  0.58393436  0.83646474  1
  O  O476  1  0.98457926  0.91634155  0.08774884  1
  O  O477  1  0.98489223  0.91613693  0.33627062  1
  O  O478  1  0.98511277  0.91707549  0.58541117  1
  O  O479  1  0.98457039  0.91665156  0.83398671  1
  O  O480  1  0.08475348  0.31487255  0.07727910  1
  O  O481  1  0.08756918  0.31565185  0.32745871  1
  O  O482  1  0.08803312  0.31408077  0.57632933  1
  O  O483  1  0.08823540  0.31524647  0.82659776  1
  O  O484  1  0.08792658  0.64943651  0.07764065  1
  O  O485  1  0.08480634  0.64822897  0.32684820  1
  O  O486  1  0.08692711  0.64939492  0.57730357  1
  O  O487  1  0.08855053  0.64894595  0.82874877  1
  O  O488  1  0.08802692  0.98107595  0.07825501  1
  O  O489  1  0.08873034  0.98130010  0.32659098  1
  O  O490  1  0.08885733  0.98223903  0.57757853  1
  O  O491  1  0.08883886  0.98076504  0.82682297  1
  O  O492  1  0.58896167  0.31429420  0.07651969  1
  O  O493  1  0.58501994  0.31547155  0.32713087  1
  O  O494  1  0.58577786  0.31427920  0.57751568  1
  O  O495  1  0.58810736  0.31436056  0.82659544  1
  O  O496  1  0.58795618  0.64968828  0.07820362  1
  O  O497  1  0.58918470  0.64781425  0.32708089  1
  O  O498  1  0.58670696  0.64931740  0.57724357  1
  O  O499  1  0.58805268  0.64815645  0.82821159  1
  O  O500  1  0.58720624  0.98115376  0.07877264  1
  O  O501  1  0.58744800  0.98163421  0.32716962  1
  O  O502  1  0.58675793  0.98156989  0.57693248  1
  O  O503  1  0.58777341  0.98266598  0.82819200  1
  O  O504  1  0.41397066  0.01736082  0.17305203  1
  O  O505  1  0.41117758  0.01786255  0.42177663  1
  O  O506  1  0.41404682  0.01729552  0.67239818  1
  O  O507  1  0.41449740  0.01921591  0.92257402  1
  O  O508  1  0.41191045  0.35312271  0.17124781  1
  O  O509  1  0.41192716  0.35052722  0.42265715  1
  O  O510  1  0.41061611  0.35175740  0.67240030  1
  O  O511  1  0.41170485  0.34998201  0.92187162  1
  O  O512  1  0.41340128  0.68460151  0.17334684  1
  O  O513  1  0.41185065  0.68590996  0.42208598  1
  O  O514  1  0.41432678  0.68515115  0.67234492  1
  O  O515  1  0.41311379  0.68526155  0.92328389  1
  O  O516  1  0.91037063  0.01922636  0.17329775  1
  O  O517  1  0.91230040  0.01759263  0.42281562  1
  O  O518  1  0.91339103  0.01938348  0.67330228  1
  O  O519  1  0.91099406  0.01839583  0.92273331  1
  O  O520  1  0.91084555  0.35026724  0.17217580  1
  O  O521  1  0.90977453  0.35320067  0.42283846  1
  O  O522  1  0.91265305  0.35024627  0.67158563  1
  O  O523  1  0.91143988  0.35183696  0.92284168  1
  O  O524  1  0.91226718  0.68496007  0.17274532  1
  O  O525  1  0.91035166  0.68428201  0.42212349  1
  O  O526  1  0.91271931  0.68565728  0.67293085  1
  O  O527  1  0.91281596  0.68550100  0.92324091  1
  O  O528  1  0.16490370  0.01720328  0.20272479  1
  O  O529  1  0.16159491  0.01824232  0.45345298  1
  O  O530  1  0.16115824  0.01885335  0.70199386  1
  O  O531  1  0.16280403  0.01837829  0.95271481  1
  O  O532  1  0.16299436  0.35152663  0.20213182  1
  O  O533  1  0.16474367  0.35072686  0.45239887  1
  O  O534  1  0.16442862  0.35039976  0.70226363  1
  O  O535  1  0.16439514  0.35266333  0.95218853  1
  O  O536  1  0.16282277  0.68642982  0.20186508  1
  O  O537  1  0.16191472  0.68550586  0.45255815  1
  O  O538  1  0.16006097  0.68610411  0.70208644  1
  O  O539  1  0.16135436  0.68340323  0.95325033  1
  O  O540  1  0.66306019  0.01726728  0.20226179  1
  O  O541  1  0.66114178  0.01759004  0.45396150  1
  O  O542  1  0.66176682  0.01924147  0.70230828  1
  O  O543  1  0.66222371  0.01933301  0.95209729  1
  O  O544  1  0.66414550  0.35235170  0.20229888  1
  O  O545  1  0.66426927  0.35181012  0.45222801  1
  O  O546  1  0.66271341  0.35042368  0.70225349  1
  O  O547  1  0.66387891  0.35149214  0.95274242  1
  O  O548  1  0.66294374  0.68515196  0.20234326  1
  O  O549  1  0.66217138  0.68503470  0.45326673  1
  O  O550  1  0.66351543  0.68523746  0.70154641  1
  O  O551  1  0.66357569  0.68422771  0.95360201  1
  O  O552  1  0.33867379  0.31601099  0.04591295  1
  O  O553  1  0.33931631  0.31341589  0.29804052  1
  O  O554  1  0.33770291  0.31568265  0.54756759  1
  O  O555  1  0.33820416  0.31506274  0.79707975  1
  O  O556  1  0.33704722  0.64785157  0.04876256  1
  O  O557  1  0.33800062  0.65014324  0.29679411  1
  O  O558  1  0.33835191  0.64756700  0.54876689  1
  O  O559  1  0.33834113  0.64801894  0.79737655  1
  O  O560  1  0.33880240  0.98135938  0.04798408  1
  O  O561  1  0.33848250  0.98113011  0.29774517  1
  O  O562  1  0.33723592  0.98142042  0.54851714  1
  O  O563  1  0.33613684  0.98161286  0.79694964  1
  O  O564  1  0.83681905  0.31486843  0.04741500  1
  O  O565  1  0.83838223  0.31442229  0.29629653  1
  O  O566  1  0.83814509  0.31566226  0.54783906  1
  O  O567  1  0.83677574  0.31354640  0.79696771  1
  O  O568  1  0.83635898  0.64830246  0.04760766  1
  O  O569  1  0.83649528  0.64919109  0.29782353  1
  O  O570  1  0.83669905  0.64869876  0.54672201  1
  O  O571  1  0.83726954  0.64999929  0.79696204  1
  O  O572  1  0.83780529  0.98176656  0.04705021  1
  O  O573  1  0.83500675  0.98194130  0.29772711  1
  O  O574  1  0.83567822  0.98104566  0.54817506  1
  O  O575  1  0.83767103  0.98206679  0.79676335  1
  O  O576  1  0.41353218  0.14726491  0.17308795  1
  O  O577  1  0.41095639  0.14811957  0.42165701  1
  O  O578  1  0.41376680  0.14748818  0.67273986  1
  O  O579  1  0.41507424  0.14935824  0.92245833  1
  O  O580  1  0.41286597  0.48337966  0.17150005  1
  O  O581  1  0.41136133  0.48058524  0.42321701  1
  O  O582  1  0.41090625  0.48211284  0.67226626  1
  O  O583  1  0.41044910  0.48009902  0.92290516  1
  O  O584  1  0.41311265  0.81458295  0.17320404  1
  O  O585  1  0.41210855  0.81604995  0.42170800  1
  O  O586  1  0.41431736  0.81536096  0.67220783  1
  O  O587  1  0.41268203  0.81536977  0.92264402  1
  O  O588  1  0.91075395  0.14924155  0.17256361  1
  O  O589  1  0.91185506  0.14770001  0.42230217  1
  O  O590  1  0.91375978  0.14927597  0.67295225  1
  O  O591  1  0.91102501  0.14834700  0.92267139  1
  O  O592  1  0.90964284  0.48046329  0.17248059  1
  O  O593  1  0.91085947  0.48330362  0.42240451  1
  O  O594  1  0.91195420  0.48057301  0.67207122  1
  O  O595  1  0.91230894  0.48170722  0.92328498  1
  O  O596  1  0.91255669  0.81475874  0.17336713  1
  O  O597  1  0.90984403  0.81435046  0.42299836  1
  O  O598  1  0.91268555  0.81560470  0.67277502  1
  O  O599  1  0.91283789  0.81536882  0.92302949  1
  O  O600  1  0.08513701  0.18481036  0.07731262  1
  O  O601  1  0.08764638  0.18542569  0.32729956  1
  O  O602  1  0.08783183  0.18398623  0.57736087  1
  O  O603  1  0.08820832  0.18534639  0.82675606  1
  O  O604  1  0.08808859  0.51936491  0.07690611  1
  O  O605  1  0.08442445  0.51819117  0.32672480  1
  O  O606  1  0.08703917  0.51908308  0.57674189  1
  O  O607  1  0.08823788  0.51866402  0.82764791  1
  O  O608  1  0.08790412  0.85076721  0.07892406  1
  O  O609  1  0.08882302  0.85147295  0.32698971  1
  O  O610  1  0.08887374  0.85201168  0.57736773  1
  O  O611  1  0.08811201  0.85074530  0.82741213  1
  O  O612  1  0.58884058  0.18414063  0.07770830  1
  O  O613  1  0.58557209  0.18552336  0.32741692  1
  O  O614  1  0.58579244  0.18415164  0.57817821  1
  O  O615  1  0.58817320  0.18433446  0.82763851  1
  O  O616  1  0.58803882  0.51956136  0.07699668  1
  O  O617  1  0.58912999  0.51780632  0.32718983  1
  O  O618  1  0.58684244  0.51929920  0.57652995  1
  O  O619  1  0.58800186  0.51797172  0.82788040  1
  O  O620  1  0.58690908  0.85094618  0.07866583  1
  O  O621  1  0.58729500  0.85179265  0.32674327  1
  O  O622  1  0.58671104  0.85145291  0.57677195  1
  O  O623  1  0.58794786  0.85256693  0.82767252  1
  O  O624  1  0.33895304  0.18583231  0.04685700  1
  O  O625  1  0.33818518  0.18326735  0.29774093  1
  O  O626  1  0.33790559  0.18570756  0.54855140  1
  O  O627  1  0.33807348  0.18510729  0.79807840  1
  O  O628  1  0.33714066  0.51797723  0.04798955  1
  O  O629  1  0.33872955  0.51995403  0.29675073  1
  O  O630  1  0.33844756  0.51755152  0.54737808  1
  O  O631  1  0.33829184  0.51768103  0.79624079  1
  O  O632  1  0.33852245  0.85147230  0.04817107  1
  O  O633  1  0.33816477  0.85095262  0.29764040  1
  O  O634  1  0.33719275  0.85161651  0.54860242  1
  O  O635  1  0.33565659  0.85151408  0.79719299  1
  O  O636  1  0.83653113  0.18486442  0.04780588  1
  O  O637  1  0.83800331  0.18405274  0.29660568  1
  O  O638  1  0.83858177  0.18560840  0.54878056  1
  O  O639  1  0.83647205  0.18337829  0.79684176  1
  O  O640  1  0.83640354  0.51817416  0.04700312  1
  O  O641  1  0.83663452  0.51908329  0.29788412  1
  O  O642  1  0.83660792  0.51853853  0.54688617  1
  O  O643  1  0.83801528  0.51970033  0.79719207  1
  O  O644  1  0.83769729  0.85154463  0.04743949  1
  O  O645  1  0.83558080  0.85173252  0.29722724  1
  O  O646  1  0.83574895  0.85106635  0.54744502  1
  O  O647  1  0.83780247  0.85160756  0.79664419  1
  O  O648  1  0.16496278  0.14727905  0.20208634  1
  O  O649  1  0.16189290  0.14870015  0.45342088  1
  O  O650  1  0.16174962  0.14895431  0.70218876  1
  O  O651  1  0.16292011  0.14850971  0.95265337  1
  O  O652  1  0.16273829  0.48171299  0.20252643  1
  O  O653  1  0.16436247  0.48088838  0.45195083  1
  O  O654  1  0.16445407  0.48047605  0.70165222  1
  O  O655  1  0.16452368  0.48288218  0.95276194  1
  O  O656  1  0.16355107  0.81633277  0.20238394  1
  O  O657  1  0.16191616  0.81574140  0.45325733  1
  O  O658  1  0.16079935  0.81611326  0.70249451  1
  O  O659  1  0.16029682  0.81353612  0.95239502  1
  O  O660  1  0.66229853  0.14730879  0.20202306  1
  O  O661  1  0.66110840  0.14789099  0.45326432  1
  O  O662  1  0.66229846  0.14909690  0.70244156  1
  O  O663  1  0.66273844  0.14943280  0.95282470  1
  O  O664  1  0.66435343  0.48243104  0.20283400  1
  O  O665  1  0.66402339  0.48204807  0.45290027  1
  O  O666  1  0.66189966  0.48062888  0.70234428  1
  O  O667  1  0.66409371  0.48164967  0.95271825  1
  O  O668  1  0.66304757  0.81510249  0.20204835  1
  O  O669  1  0.66223372  0.81524424  0.45312660  1
  O  O670  1  0.66342312  0.81504413  0.70158987  1
  O  O671  1  0.66363327  0.81442763  0.95295490  1
