# generated using pymatgen
data_Na2MnFe(PO4)2
_symmetry_space_group_name_H-M   'P 1'
_cell_length_a   21.08464442
_cell_length_b   18.93700378
_cell_length_c   20.04380677
_cell_angle_alpha   89.99962813
_cell_angle_beta   89.99282684
_cell_angle_gamma   89.99983335
_symmetry_Int_Tables_number   1
_chemical_formula_structural   Na2MnFe(PO4)2
_chemical_formula_sum   'Na96 Mn48 Fe48 P96 O384'
_cell_volume   8003.09092397
_cell_formula_units_Z   48
loop_
 _symmetry_equiv_pos_site_id
 _symmetry_equiv_pos_as_xyz
  1  'x, y, z'
loop_
 _atom_site_type_symbol
 _atom_site_label
 _atom_site_symmetry_multiplicity
 _atom_site_fract_x
 _atom_site_fract_y
 _atom_site_fract_z
 _atom_site_occupancy
  Na  Na0  1  0.00033935  0.00097004  0.00010230  1
  Na  Na1  1  -0.00050665  0.00015114  0.24912876  1
  Na  Na2  1  0.00012008  -0.00001493  0.50081788  1
  Na  Na3  1  -0.00013378  0.00000718  0.74987154  1
  Na  Na4  1  0.00208294  0.33344613  0.00027012  1
  Na  Na5  1  0.00149830  0.33399768  0.25045563  1
  Na  Na6  1  -0.00155873  0.33285547  0.49991068  1
  Na  Na7  1  0.00259483  0.33417678  0.74968036  1
  Na  Na8  1  0.00020400  0.66693833  -0.00140991  1
  Na  Na9  1  -0.00048067  0.66655902  0.24934118  1
  Na  Na10  1  0.00067261  0.66775987  0.50087976  1
  Na  Na11  1  -0.00079316  0.66654383  0.75140646  1
  Na  Na12  1  0.49929305  0.00001828  0.00004924  1
  Na  Na13  1  0.49871306  -0.00005302  0.24950533  1
  Na  Na14  1  0.50089603  0.00033805  0.50040376  1
  Na  Na15  1  0.50166930  0.00029026  0.75044312  1
  Na  Na16  1  0.49855473  0.33301552  -0.00005744  1
  Na  Na17  1  0.50015970  0.33353893  0.24931514  1
  Na  Na18  1  0.49929648  0.33280743  0.50028164  1
  Na  Na19  1  0.49971897  0.33372770  0.75046676  1
  Na  Na20  1  0.50057772  0.66732652  0.00021582  1
  Na  Na21  1  0.50286572  0.66814346  0.24985271  1
  Na  Na22  1  0.50194052  0.66670245  0.49944875  1
  Na  Na23  1  0.49927981  0.66598971  0.75008664  1
  Na  Na24  1  0.25185316  0.00037254  0.12465663  1
  Na  Na25  1  0.25138358  0.00044717  0.37401794  1
  Na  Na26  1  0.24908601  -0.00059204  0.62500283  1
  Na  Na27  1  0.25092716  -0.00002971  0.87586290  1
  Na  Na28  1  0.24887262  0.33274540  0.12356561  1
  Na  Na29  1  0.24833131  0.33272666  0.37570857  1
  Na  Na30  1  0.25051094  0.33359772  0.62567457  1
  Na  Na31  1  0.25076673  0.33360607  0.87483135  1
  Na  Na32  1  0.24945193  0.66620024  0.12520413  1
  Na  Na33  1  0.24872234  0.66671153  0.37549223  1
  Na  Na34  1  0.24991227  0.66692480  0.62508891  1
  Na  Na35  1  0.25176438  0.66671964  0.87347187  1
  Na  Na36  1  0.74951073  0.00045491  0.12483129  1
  Na  Na37  1  0.75097191  0.00114724  0.37574362  1
  Na  Na38  1  0.74714165  -0.00061014  0.62498872  1
  Na  Na39  1  0.74813096  0.00004168  0.87493451  1
  Na  Na40  1  0.75149594  0.33354192  0.12391389  1
  Na  Na41  1  0.75304799  0.33423305  0.37626329  1
  Na  Na42  1  0.74966378  0.33408980  0.62586355  1
  Na  Na43  1  0.74684312  0.33200173  0.87367573  1
  Na  Na44  1  0.74910234  0.66666082  0.12432733  1
  Na  Na45  1  0.74842980  0.66624427  0.37508081  1
  Na  Na46  1  0.74919840  0.66697381  0.62526591  1
  Na  Na47  1  0.75030637  0.66762985  0.87585767  1
  Na  Na48  1  -0.00011209  0.16654014  0.00054794  1
  Na  Na49  1  0.00080816  0.16562675  0.24943553  1
  Na  Na50  1  0.00041996  0.16649646  0.50001196  1
  Na  Na51  1  0.00168384  0.16602644  0.75041954  1
  Na  Na52  1  0.00247352  0.49900425  -0.00056177  1
  Na  Na53  1  -0.00084774  0.50045042  0.25019107  1
  Na  Na54  1  -0.00099580  0.49990265  0.50022214  1
  Na  Na55  1  -0.00018578  0.50012794  0.75013134  1
  Na  Na56  1  -0.00100023  0.83435182  -0.00120806  1
  Na  Na57  1  0.00036710  0.83310201  0.24937615  1
  Na  Na58  1  -0.00034384  0.83368106  0.50117290  1
  Na  Na59  1  0.00044748  0.83342034  0.75049662  1
  Na  Na60  1  0.49965361  0.16622460  0.00026319  1
  Na  Na61  1  0.50104939  0.16530694  0.24936034  1
  Na  Na62  1  0.50059921  0.16645292  0.49959620  1
  Na  Na63  1  0.50044321  0.16657950  0.75016460  1
  Na  Na64  1  0.49898283  0.49950403  0.00007626  1
  Na  Na65  1  0.49917742  0.50061549  0.25013068  1
  Na  Na66  1  0.50066656  0.49938526  0.49973083  1
  Na  Na67  1  0.49852077  0.50014940  0.75024870  1
  Na  Na68  1  0.49981866  0.83371481  -0.00009065  1
  Na  Na69  1  0.50044838  0.83379911  0.24892465  1
  Na  Na70  1  0.50170562  0.83322845  0.50110010  1
  Na  Na71  1  0.50199195  0.83251090  0.75055582  1
  Na  Na72  1  0.24913098  0.16643296  0.12383488  1
  Na  Na73  1  0.24795705  0.16666672  0.37473388  1
  Na  Na74  1  0.25044998  0.16611911  0.62614880  1
  Na  Na75  1  0.25038038  0.16650534  0.87462483  1
  Na  Na76  1  0.24867949  0.50038547  0.12420827  1
  Na  Na77  1  0.25026854  0.49922684  0.37589474  1
  Na  Na78  1  0.25120452  0.49941867  0.62599492  1
  Na  Na79  1  0.25137282  0.49957085  0.87422803  1
  Na  Na80  1  0.25264605  0.83294702  0.12530213  1
  Na  Na81  1  0.25015828  0.83370480  0.37469603  1
  Na  Na82  1  0.24818597  0.83416162  0.62368131  1
  Na  Na83  1  0.25170363  0.83328898  0.87525394  1
  Na  Na84  1  0.75016827  0.16558858  0.12487422  1
  Na  Na85  1  0.74925973  0.16657540  0.37551983  1
  Na  Na86  1  0.74895096  0.16649989  0.62576628  1
  Na  Na87  1  0.74821168  0.16650017  0.87448408  1
  Na  Na88  1  0.75144155  0.50011783  0.12393270  1
  Na  Na89  1  0.75304489  0.49893910  0.37582894  1
  Na  Na90  1  0.74787902  0.50065028  0.62581664  1
  Na  Na91  1  0.74971352  0.49961007  0.87421681  1
  Na  Na92  1  0.74807925  0.83437371  0.12444262  1
  Na  Na93  1  0.75032432  0.83291573  0.37561957  1
  Na  Na94  1  0.74847639  0.83349500  0.62467224  1
  Na  Na95  1  0.74814043  0.83360983  0.87558843  1
  Mn  Mn96  1  0.10800949  0.75073211  0.87254053  1
  Mn  Mn97  1  0.85684591  0.75088217  0.00184134  1
  Mn  Mn98  1  0.64228691  0.91718752  0.24813005  1
  Mn  Mn99  1  0.14130189  0.58267816  0.24802775  1
  Mn  Mn100  1  0.14270951  0.91718935  0.24765192  1
  Mn  Mn101  1  0.64165805  0.24986523  0.99772058  1
  Mn  Mn102  1  0.35808893  0.08310309  0.75248071  1
  Mn  Mn103  1  0.14292549  0.25006111  0.99699286  1
  Mn  Mn104  1  0.39195239  0.58394921  0.12753665  1
  Mn  Mn105  1  0.85834705  0.41577355  0.00100367  1
  Mn  Mn106  1  0.89248729  0.24975928  0.87640732  1
  Mn  Mn107  1  0.89157723  0.91675659  0.12687293  1
  Mn  Mn108  1  0.10685936  0.41708614  0.37282769  1
  Mn  Mn109  1  0.35812277  0.41655400  0.50236219  1
  Mn  Mn110  1  0.64299736  0.25052923  0.24795059  1
  Mn  Mn111  1  0.89267569  0.24964362  0.37734355  1
  Mn  Mn112  1  0.35699197  0.41588732  0.25209917  1
  Mn  Mn113  1  0.10854230  0.75020236  0.12174985  1
  Mn  Mn114  1  0.89188890  0.91691210  0.62822483  1
  Mn  Mn115  1  0.64204989  0.25085590  0.49801868  1
  Mn  Mn116  1  0.39268867  0.58407120  0.37752135  1
  Mn  Mn117  1  0.64182815  0.58318992  0.99721790  1
  Mn  Mn118  1  0.89288402  0.25026655  0.12705397  1
  Mn  Mn119  1  0.85704975  0.41696057  0.75273553  1
  Mn  Mn120  1  0.60848210  0.41652328  0.12268278  1
  Mn  Mn121  1  0.60889758  0.41625358  0.37211248  1
  Mn  Mn122  1  0.64322232  0.58238403  0.24779008  1
  Mn  Mn123  1  0.85652136  0.08291004  0.75259881  1
  Mn  Mn124  1  0.14192869  0.24965227  0.49854669  1
  Mn  Mn125  1  0.14297762  0.58370849  0.74749138  1
  Mn  Mn126  1  0.89300882  0.58319839  0.12643608  1
  Mn  Mn127  1  0.10789041  0.08346455  0.62293359  1
  Mn  Mn128  1  0.35833496  0.75011980  0.75149738  1
  Mn  Mn129  1  0.64188619  0.91637772  0.49704677  1
  Mn  Mn130  1  0.85760325  0.75029084  0.25220403  1
  Mn  Mn131  1  0.89169929  0.58328188  0.62773540  1
  Mn  Mn132  1  0.85747611  0.74957513  0.50241036  1
  Mn  Mn133  1  0.39298584  0.91635639  0.62771431  1
  Mn  Mn134  1  0.14189690  0.58340531  0.49826620  1
  Mn  Mn135  1  0.35808733  0.08361635  0.50181231  1
  Mn  Mn136  1  0.85763962  0.08412366  0.50227209  1
  Mn  Mn137  1  0.35816305  0.74988420  0.50203465  1
  Mn  Mn138  1  0.35837739  0.74988169  0.25290665  1
  Mn  Mn139  1  0.39179582  0.24933088  0.12779545  1
  Mn  Mn140  1  0.39170528  0.24952664  0.37682286  1
  Mn  Mn141  1  0.64144287  0.58352938  0.74820876  1
  Mn  Mn142  1  0.14345549  0.91588701  0.99760691  1
  Mn  Mn143  1  0.14179123  0.91683216  0.49709859  1
  Fe  Fe144  1  0.64244444  0.58273841  0.49832668  1
  Fe  Fe145  1  0.10691751  0.74961199  0.62378869  1
  Fe  Fe146  1  0.39284126  0.25027697  0.62702299  1
  Fe  Fe147  1  0.89267980  0.25009206  0.62751021  1
  Fe  Fe148  1  0.39339855  0.58306879  0.62583871  1
  Fe  Fe149  1  0.10741748  0.08290397  0.12284612  1
  Fe  Fe150  1  0.10670641  0.75050838  0.37357596  1
  Fe  Fe151  1  0.60725830  0.08291759  0.12317980  1
  Fe  Fe152  1  0.35772873  0.41620349  0.75170089  1
  Fe  Fe153  1  0.85896839  0.41627852  0.25131541  1
  Fe  Fe154  1  0.60645648  0.74973558  0.87315991  1
  Fe  Fe155  1  0.85672716  0.08318668  0.00104627  1
  Fe  Fe156  1  0.10840995  0.41631079  0.87269586  1
  Fe  Fe157  1  0.14207182  0.24949950  0.24829704  1
  Fe  Fe158  1  0.35708264  0.08387998  0.25159617  1
  Fe  Fe159  1  0.60755768  0.75069319  0.37292411  1
  Fe  Fe160  1  0.60677273  0.08394372  0.62318435  1
  Fe  Fe161  1  0.14343873  0.24980962  0.74818077  1
  Fe  Fe162  1  0.64213497  0.91675619  0.74901572  1
  Fe  Fe163  1  0.60664162  0.08355340  0.87387851  1
  Fe  Fe164  1  0.89226465  0.58473205  0.37717628  1
  Fe  Fe165  1  0.35691333  0.41689958  0.00173120  1
  Fe  Fe166  1  0.35839282  0.74973414  0.00151193  1
  Fe  Fe167  1  0.39367047  0.91668606  0.12642643  1
  Fe  Fe168  1  0.60712829  0.08294551  0.37272468  1
  Fe  Fe169  1  0.39289538  0.24975238  0.87617205  1
  Fe  Fe170  1  0.60592670  0.41663206  0.87360700  1
  Fe  Fe171  1  0.10717784  0.08231064  0.37242037  1
  Fe  Fe172  1  0.89301533  0.91637119  0.37631666  1
  Fe  Fe173  1  0.35789008  0.08315235  0.00175935  1
  Fe  Fe174  1  0.64101291  0.24972154  0.74775650  1
  Fe  Fe175  1  0.85755865  0.08348370  0.25190129  1
  Fe  Fe176  1  0.60722183  0.75064321  0.12307517  1
  Fe  Fe177  1  0.89192821  0.91715449  0.87635004  1
  Fe  Fe178  1  0.64159653  0.91737006  0.99785306  1
  Fe  Fe179  1  0.39314790  0.91655202  0.87636190  1
  Fe  Fe180  1  0.85664574  0.75054283  0.75185933  1
  Fe  Fe181  1  0.10762142  0.08325642  0.87387776  1
  Fe  Fe182  1  0.14255029  0.91698199  0.74934904  1
  Fe  Fe183  1  0.10786788  0.41657880  0.12302284  1
  Fe  Fe184  1  0.85718772  0.41672749  0.50297590  1
  Fe  Fe185  1  0.39277409  0.58344785  0.87727532  1
  Fe  Fe186  1  0.39336441  0.91655421  0.37646765  1
  Fe  Fe187  1  0.10726590  0.41712955  0.62359249  1
  Fe  Fe188  1  0.14358548  0.58370048  0.99774323  1
  Fe  Fe189  1  0.60634874  0.41669388  0.62351853  1
  Fe  Fe190  1  0.89316361  0.58319319  0.87678158  1
  Fe  Fe191  1  0.60773667  0.74909936  0.62338161  1
  P  P192  1  0.05540794  0.24957003  0.11115604  1
  P  P193  1  0.05407498  0.24897916  0.35958280  1
  P  P194  1  0.05346161  0.25092591  0.61140258  1
  P  P195  1  0.05469617  0.24952917  0.85956058  1
  P  P196  1  0.05467694  0.58268566  0.10862865  1
  P  P197  1  0.05156136  0.58448472  0.36055747  1
  P  P198  1  0.05325804  0.58343895  0.61075860  1
  P  P199  1  0.05435493  0.58294045  0.86109451  1
  P  P200  1  0.05358857  0.91757509  0.10942655  1
  P  P201  1  0.05225376  0.91648391  0.35984724  1
  P  P202  1  0.05461049  0.91586601  0.61173759  1
  P  P203  1  0.05279504  0.91789047  0.85994245  1
  P  P204  1  0.55338624  0.24903370  0.11013027  1
  P  P205  1  0.55326878  0.24926684  0.35958048  1
  P  P206  1  0.55303392  0.25036591  0.61137593  1
  P  P207  1  0.55241782  0.24989765  0.86000790  1
  P  P208  1  0.55360547  0.58373458  0.11000669  1
  P  P209  1  0.55501841  0.58383613  0.36089477  1
  P  P210  1  0.55307560  0.58271129  0.60984758  1
  P  P211  1  0.55168046  0.58315887  0.86042418  1
  P  P212  1  0.55336487  0.91727080  0.10959415  1
  P  P213  1  0.55249002  0.91685432  0.35978597  1
  P  P214  1  0.55534422  0.91666714  0.61176880  1
  P  P215  1  0.55375569  0.91677724  0.86120464  1
  P  P216  1  0.44585063  0.08236966  0.13918341  1
  P  P217  1  0.44669797  0.08257702  0.38859507  1
  P  P218  1  0.44775049  0.08384254  0.64000856  1
  P  P219  1  0.44707059  0.08329095  0.89005206  1
  P  P220  1  0.44557120  0.41671914  0.13908797  1
  P  P221  1  0.44704684  0.41639564  0.38989371  1
  P  P222  1  0.44686343  0.41664251  0.64038653  1
  P  P223  1  0.44530338  0.41640433  0.88908644  1
  P  P224  1  0.44678011  0.75083182  0.13871914  1
  P  P225  1  0.44843174  0.75123169  0.39000520  1
  P  P226  1  0.44859415  0.74912804  0.63966609  1
  P  P227  1  0.44705212  0.75011584  0.89002380  1
  P  P228  1  0.94582454  0.08339687  0.13906083  1
  P  P229  1  0.94686119  0.08223958  0.38888695  1
  P  P230  1  0.94618517  0.08443749  0.64043906  1
  P  P231  1  0.94692912  0.08270343  0.89020337  1
  P  P232  1  0.94815165  0.41651333  0.13996710  1
  P  P233  1  0.94430614  0.41766188  0.38983770  1
  P  P234  1  0.94625132  0.41595744  0.63941157  1
  P  P235  1  0.94858101  0.41666662  0.88943065  1
  P  P236  1  0.94684701  0.75017293  0.13935572  1
  P  P237  1  0.94724937  0.75053251  0.38998562  1
  P  P238  1  0.94672737  0.74994596  0.64135000  1
  P  P239  1  0.94487439  0.75071468  0.88838967  1
  P  P240  1  0.19596933  0.08356790  0.23492979  1
  P  P241  1  0.19597265  0.08317041  0.48397983  1
  P  P242  1  0.19557185  0.08298946  0.73685864  1
  P  P243  1  0.19680935  0.08293189  0.98539765  1
  P  P244  1  0.19561210  0.41553480  0.23428167  1
  P  P245  1  0.19528848  0.41665307  0.48647919  1
  P  P246  1  0.19626220  0.41583224  0.73575729  1
  P  P247  1  0.19631080  0.41750526  0.98503204  1
  P  P248  1  0.19568176  0.75035175  0.23597851  1
  P  P249  1  0.19489179  0.75000138  0.48520214  1
  P  P250  1  0.19646990  0.75129491  0.73435359  1
  P  P251  1  0.19893940  0.74928376  0.98454001  1
  P  P252  1  0.69619348  0.08330639  0.23550003  1
  P  P253  1  0.69448052  0.08382595  0.48550968  1
  P  P254  1  0.69342467  0.08318545  0.73602514  1
  P  P255  1  0.69525732  0.08268861  0.98533371  1
  P  P256  1  0.69963937  0.41645371  0.23463970  1
  P  P257  1  0.69651311  0.41735411  0.48665071  1
  P  P258  1  0.69356952  0.41616547  0.73577613  1
  P  P259  1  0.69610648  0.41649324  0.98341983  1
  P  P260  1  0.69506248  0.75038294  0.23513018  1
  P  P261  1  0.69451382  0.74886091  0.48557614  1
  P  P262  1  0.69543976  0.75064365  0.73611753  1
  P  P263  1  0.69376601  0.75117279  0.98546771  1
  P  P264  1  0.30538873  0.24978556  0.01305436  1
  P  P265  1  0.30132543  0.24893532  0.26479245  1
  P  P266  1  0.30381206  0.24962220  0.51629228  1
  P  P267  1  0.30456193  0.25061624  0.76439198  1
  P  P268  1  0.30407274  0.58340113  0.01341979  1
  P  P269  1  0.30269434  0.58304445  0.26561312  1
  P  P270  1  0.30394557  0.58348700  0.51616122  1
  P  P271  1  0.30613396  0.58249395  0.76391718  1
  P  P272  1  0.30644729  0.91651982  0.01418880  1
  P  P273  1  0.30587621  0.91770293  0.26418529  1
  P  P274  1  0.30477053  0.91681838  0.51392977  1
  P  P275  1  0.30299712  0.91655681  0.76557327  1
  P  P276  1  0.80348938  0.24872045  0.01424774  1
  P  P277  1  0.80409838  0.24947379  0.26494415  1
  P  P278  1  0.80412239  0.25052177  0.51642670  1
  P  P279  1  0.80209864  0.24993057  0.76389550  1
  P  P280  1  0.80466830  0.58319724  0.01338706  1
  P  P281  1  0.80460207  0.58293556  0.26541667  1
  P  P282  1  0.80303231  0.58304101  0.51455087  1
  P  P283  1  0.80350667  0.58444419  0.76590730  1
  P  P284  1  0.80251368  0.91798354  0.01346781  1
  P  P285  1  0.80378143  0.91768818  0.26579543  1
  P  P286  1  0.80444332  0.91677108  0.51423047  1
  P  P287  1  0.80177286  0.91603764  0.76567227  1
  O  O288  1  0.05865087  0.24940769  0.18790619  1
  O  O289  1  0.05655165  0.24967806  0.43640387  1
  O  O290  1  0.05870510  0.25024076  0.68803178  1
  O  O291  1  0.05731854  0.24959578  0.93642314  1
  O  O292  1  0.05679908  0.58352501  0.18548445  1
  O  O293  1  0.05531678  0.58363207  0.43722774  1
  O  O294  1  0.05635958  0.58324694  0.68754334  1
  O  O295  1  0.05955541  0.58363385  0.93771395  1
  O  O296  1  0.05687756  0.91693818  0.18614744  1
  O  O297  1  0.05541051  0.91688361  0.43659365  1
  O  O298  1  0.05879986  0.91674305  0.68842684  1
  O  O299  1  0.05702087  0.91710943  0.93660785  1
  O  O300  1  0.55692078  0.24973342  0.18685389  1
  O  O301  1  0.55624267  0.25023027  0.43638857  1
  O  O302  1  0.55717006  0.25031337  0.68808758  1
  O  O303  1  0.55565772  0.24986564  0.93670323  1
  O  O304  1  0.55699761  0.58293505  0.18678986  1
  O  O305  1  0.55886182  0.58246333  0.43767498  1
  O  O306  1  0.55593238  0.58303193  0.68660921  1
  O  O307  1  0.55532647  0.58302215  0.93703640  1
  O  O308  1  0.55672774  0.91753873  0.18626749  1
  O  O309  1  0.55578490  0.91697066  0.43653832  1
  O  O310  1  0.55870348  0.91637691  0.68856601  1
  O  O311  1  0.55759928  0.91708681  0.93791350  1
  O  O312  1  0.44128139  0.08349704  0.06248874  1
  O  O313  1  0.44180656  0.08375643  0.31195190  1
  O  O314  1  0.44424443  0.08340254  0.56332496  1
  O  O315  1  0.44385824  0.08317211  0.81334012  1
  O  O316  1  0.44088212  0.41664997  0.06231183  1
  O  O317  1  0.44337427  0.41638175  0.31312819  1
  O  O318  1  0.44376588  0.41635309  0.56366643  1
  O  O319  1  0.44126241  0.41636505  0.81236037  1
  O  O320  1  0.44205219  0.74969773  0.06207487  1
  O  O321  1  0.44480438  0.75050770  0.31326105  1
  O  O322  1  0.44482672  0.74989525  0.56304637  1
  O  O323  1  0.44377039  0.75019740  0.81331701  1
  O  O324  1  0.94072076  0.08336766  0.06242637  1
  O  O325  1  0.94217288  0.08303776  0.31221266  1
  O  O326  1  0.94319937  0.08383935  0.56366033  1
  O  O327  1  0.94286549  0.08318819  0.81351436  1
  O  O328  1  0.94417778  0.41601093  0.06326882  1
  O  O329  1  0.94103533  0.41665689  0.31297306  1
  O  O330  1  0.94131174  0.41661554  0.56271390  1
  O  O331  1  0.94410288  0.41627061  0.81277196  1
  O  O332  1  0.94311294  0.75050083  0.06259630  1
  O  O333  1  0.94386464  0.75023104  0.31329532  1
  O  O334  1  0.94283556  0.75009535  0.56461893  1
  O  O335  1  0.94075208  0.75081462  0.81168957  1
  O  O336  1  0.19184965  0.08282834  0.06202993  1
  O  O337  1  0.19104958  0.08238637  0.31163846  1
  O  O338  1  0.19280462  0.08290377  0.56083279  1
  O  O339  1  0.19185975  0.08294822  0.81359952  1
  O  O340  1  0.19160268  0.41672733  0.06168813  1
  O  O341  1  0.19267154  0.41652451  0.31114629  1
  O  O342  1  0.19095777  0.41694675  0.56325458  1
  O  O343  1  0.19174009  0.41663950  0.81251143  1
  O  O344  1  0.19512138  0.75003265  0.06125652  1
  O  O345  1  0.19062596  0.75063242  0.31270303  1
  O  O346  1  0.19044169  0.74998110  0.56193934  1
  O  O347  1  0.19371704  0.75027304  0.81117956  1
  O  O348  1  0.69091931  0.08305798  0.06205167  1
  O  O349  1  0.69107944  0.08300431  0.31221307  1
  O  O350  1  0.68997942  0.08381497  0.56229613  1
  O  O351  1  0.68944215  0.08361724  0.81285154  1
  O  O352  1  0.69350628  0.41682537  0.06024561  1
  O  O353  1  0.69570336  0.41635896  0.31137031  1
  O  O354  1  0.69084720  0.41686688  0.56326133  1
  O  O355  1  0.68881799  0.41666343  0.81249372  1
  O  O356  1  0.68990596  0.75041497  0.06229618  1
  O  O357  1  0.69099784  0.75077886  0.31195090  1
  O  O358  1  0.69048713  0.74956091  0.56243585  1
  O  O359  1  0.69034627  0.74961148  0.81282686  1
  O  O360  1  0.30515714  0.24934688  0.18806117  1
  O  O361  1  0.30661581  0.24961296  0.43946563  1
  O  O362  1  0.30943145  0.24992216  0.68770477  1
  O  O363  1  0.30942597  0.24950204  0.93629282  1
  O  O364  1  0.30602449  0.58352048  0.18876751  1
  O  O365  1  0.30705331  0.58359045  0.43935539  1
  O  O366  1  0.31045884  0.58345654  0.68720321  1
  O  O367  1  0.30876483  0.58356174  0.93666478  1
  O  O368  1  0.31007325  0.91665377  0.18740461  1
  O  O369  1  0.30960003  0.91660576  0.43719904  1
  O  O370  1  0.30676758  0.91664458  0.68881737  1
  O  O371  1  0.31036173  0.91664417  0.93736741  1
  O  O372  1  0.80669456  0.24930376  0.18814607  1
  O  O373  1  0.80756814  0.24931876  0.43962413  1
  O  O374  1  0.80766477  0.25023525  0.68734261  1
  O  O375  1  0.80641986  0.24934319  0.93746949  1
  O  O376  1  0.80730772  0.58403852  0.18855372  1
  O  O377  1  0.80809859  0.58409585  0.43791510  1
  O  O378  1  0.80619952  0.58355591  0.68906155  1
  O  O379  1  0.80939440  0.58302411  0.93664502  1
  O  O380  1  0.80618647  0.91695628  0.18892702  1
  O  O381  1  0.80928387  0.91671320  0.43753730  1
  O  O382  1  0.80541075  0.91667533  0.68892160  1
  O  O383  1  0.80748248  0.91735239  0.93684574  1
  O  O384  1  0.23532570  0.24982349  0.03722650  1
  O  O385  1  0.23140608  0.24927722  0.28954909  1
  O  O386  1  0.23415214  0.24962973  0.54146999  1
  O  O387  1  0.23415690  0.25019068  0.78792748  1
  O  O388  1  0.23382383  0.58336690  0.03744279  1
  O  O389  1  0.23300028  0.58285747  0.29064428  1
  O  O390  1  0.23424848  0.58327536  0.54116631  1
  O  O391  1  0.23588651  0.58318967  0.78766458  1
  O  O392  1  0.23639880  0.91658962  0.03854222  1
  O  O393  1  0.23575009  0.91721701  0.28815672  1
  O  O394  1  0.23460892  0.91695251  0.53749203  1
  O  O395  1  0.23297933  0.91664683  0.79017420  1
  O  O396  1  0.73392657  0.24944684  0.03967219  1
  O  O397  1  0.73472774  0.24997590  0.29109973  1
  O  O398  1  0.73420912  0.25040160  0.54090603  1
  O  O399  1  0.73153757  0.24949532  0.78693328  1
  O  O400  1  0.73458225  0.58334074  0.03721206  1
  O  O401  1  0.73494254  0.58279356  0.29075942  1
  O  O402  1  0.73275719  0.58334873  0.53847420  1
  O  O403  1  0.73366311  0.58371382  0.79079686  1
  O  O404  1  0.73221897  0.91761729  0.03733186  1
  O  O405  1  0.73420096  0.91731786  0.29132113  1
  O  O406  1  0.73421782  0.91653379  0.53775342  1
  O  O407  1  0.73160006  0.91673043  0.78996824  1
  O  O408  1  0.26638552  0.08322537  0.21132735  1
  O  O409  1  0.26572710  0.08350223  0.45920345  1
  O  O410  1  0.26546199  0.08297911  0.71198775  1
  O  O411  1  0.26734619  0.08295826  0.96214029  1
  O  O412  1  0.26520300  0.41624562  0.20879856  1
  O  O413  1  0.26527388  0.41629837  0.46232979  1
  O  O414  1  0.26675213  0.41623070  0.71236844  1
  O  O415  1  0.26675263  0.41669789  0.96147387  1
  O  O416  1  0.26587769  0.75024618  0.21236560  1
  O  O417  1  0.26504124  0.74998138  0.46132986  1
  O  O418  1  0.26618274  0.75071368  0.70915048  1
  O  O419  1  0.26898386  0.74981272  0.95999175  1
  O  O420  1  0.76661075  0.08303095  0.21213599  1
  O  O421  1  0.76468394  0.08397506  0.46198869  1
  O  O422  1  0.76351954  0.08300141  0.71183184  1
  O  O423  1  0.76544521  0.08315587  0.96108538  1
  O  O424  1  0.76963239  0.41657984  0.20996788  1
  O  O425  1  0.76702565  0.41670901  0.46358573  1
  O  O426  1  0.76386435  0.41723769  0.71233958  1
  O  O427  1  0.76576369  0.41572659  0.95810684  1
  O  O428  1  0.76505797  0.75053779  0.21086601  1
  O  O429  1  0.76459119  0.74965837  0.46158197  1
  O  O430  1  0.76583595  0.75025606  0.71239886  1
  O  O431  1  0.76386214  0.75061446  0.96154817  1
  O  O432  1  0.01634270  0.08308602  0.16225395  1
  O  O433  1  0.01711907  0.08283828  0.41294539  1
  O  O434  1  0.01593177  0.08352368  0.66528467  1
  O  O435  1  0.01716229  0.08354609  0.91437564  1
  O  O436  1  0.01824138  0.41686391  0.16425893  1
  O  O437  1  0.01432437  0.41652975  0.41423151  1
  O  O438  1  0.01661428  0.41688731  0.66306172  1
  O  O439  1  0.01882773  0.41607664  0.91343619  1
  O  O440  1  0.01662257  0.74997172  0.16400335  1
  O  O441  1  0.01709311  0.75068354  0.41523070  1
  O  O442  1  0.01686643  0.74967889  0.66555470  1
  O  O443  1  0.01498839  0.75091803  0.91268236  1
  O  O444  1  0.51630007  0.08254391  0.16265238  1
  O  O445  1  0.51692823  0.08291395  0.41264309  1
  O  O446  1  0.51773962  0.08359252  0.66471936  1
  O  O447  1  0.51723341  0.08327501  0.91464293  1
  O  O448  1  0.51564054  0.41683287  0.16303816  1
  O  O449  1  0.51679543  0.41609788  0.41472803  1
  O  O450  1  0.51689511  0.41685801  0.66517672  1
  O  O451  1  0.51569899  0.41633024  0.91312721  1
  O  O452  1  0.51713330  0.75108874  0.16240229  1
  O  O453  1  0.51838931  0.75061112  0.41470862  1
  O  O454  1  0.51863999  0.74908170  0.66437750  1
  O  O455  1  0.51722187  0.75030485  0.91449170  1
  O  O456  1  0.48365081  0.24912315  0.08531865  1
  O  O457  1  0.48371069  0.24946196  0.33408400  1
  O  O458  1  0.48285220  0.25022590  0.58705002  1
  O  O459  1  0.48223566  0.24991047  0.83542549  1
  O  O460  1  0.48388636  0.58350107  0.08502368  1
  O  O461  1  0.48516475  0.58431754  0.33616649  1
  O  O462  1  0.48310044  0.58282452  0.58479403  1
  O  O463  1  0.48160266  0.58331021  0.83584024  1
  O  O464  1  0.48326113  0.91709852  0.08507053  1
  O  O465  1  0.48276274  0.91671467  0.33443920  1
  O  O466  1  0.48555437  0.91677366  0.58677363  1
  O  O467  1  0.48343391  0.91651004  0.83691223  1
  O  O468  1  0.98564413  0.24983172  0.08606909  1
  O  O469  1  0.98440692  0.24953571  0.33432840  1
  O  O470  1  0.98325087  0.25019420  0.58741305  1
  O  O471  1  0.98499311  0.24981426  0.83429171  1
  O  O472  1  0.98512078  0.58316456  0.08301557  1
  O  O473  1  0.98163182  0.58404088  0.33570594  1
  O  O474  1  0.98360420  0.58359187  0.58554476  1
  O  O475  1  0.98389011  0.58333482  0.83765476  1
  O  O476  1  0.98387069  0.91753194  0.08443315  1
  O  O477  1  0.98247086  0.91639925  0.33448455  1
  O  O478  1  0.98457418  0.91673017  0.58751227  1
  O  O479  1  0.98257902  0.91702382  0.83577622  1
  O  O480  1  0.08939806  0.31467402  0.07850117  1
  O  O481  1  0.08863242  0.31386926  0.32720485  1
  O  O482  1  0.08643870  0.31621512  0.57822872  1
  O  O483  1  0.08934397  0.31437149  0.82726520  1
  O  O484  1  0.08948131  0.64741514  0.07600431  1
  O  O485  1  0.08536960  0.64959252  0.32805840  1
  O  O486  1  0.08734443  0.64872884  0.57871414  1
  O  O487  1  0.08767247  0.64797621  0.82759338  1
  O  O488  1  0.08777568  0.98273027  0.07730632  1
  O  O489  1  0.08632484  0.98148181  0.32709133  1
  O  O490  1  0.08854404  0.98055316  0.57823244  1
  O  O491  1  0.08627622  0.98321247  0.82733817  1
  O  O492  1  0.58736254  0.31399229  0.07733685  1
  O  O493  1  0.58764917  0.31423222  0.32702325  1
  O  O494  1  0.58634284  0.31562062  0.57830825  1
  O  O495  1  0.58629887  0.31486657  0.82720543  1
  O  O496  1  0.58743176  0.64908410  0.07791758  1
  O  O497  1  0.58898069  0.64915506  0.32890335  1
  O  O498  1  0.58752007  0.64750959  0.57735293  1
  O  O499  1  0.58551535  0.64826147  0.82771611  1
  O  O500  1  0.58713390  0.98235626  0.07668693  1
  O  O501  1  0.58640508  0.98193868  0.32714718  1
  O  O502  1  0.58901120  0.98186367  0.57905151  1
  O  O503  1  0.58716070  0.98182807  0.82804993  1
  O  O504  1  0.41254901  0.01715637  0.17197393  1
  O  O505  1  0.41362409  0.01719080  0.42154862  1
  O  O506  1  0.41398352  0.01880864  0.67293902  1
  O  O507  1  0.41317304  0.01824633  0.92267486  1
  O  O508  1  0.41218553  0.35148655  0.17211881  1
  O  O509  1  0.41279486  0.35139082  0.42232078  1
  O  O510  1  0.41288840  0.35166145  0.67330301  1
  O  O511  1  0.41190240  0.35134147  0.92221645  1
  O  O512  1  0.41370216  0.68599248  0.17272563  1
  O  O513  1  0.41427049  0.68636720  0.42280859  1
  O  O514  1  0.41467228  0.68407720  0.67203084  1
  O  O515  1  0.41326069  0.68503725  0.92287852  1
  O  O516  1  0.91217017  0.01863304  0.17259563  1
  O  O517  1  0.91363512  0.01702850  0.42193179  1
  O  O518  1  0.91172528  0.01955307  0.67296264  1
  O  O519  1  0.91330970  0.01741223  0.92287777  1
  O  O520  1  0.91445016  0.35158555  0.17319039  1
  O  O521  1  0.91000171  0.35297580  0.42298693  1
  O  O522  1  0.91333194  0.35073076  0.67278425  1
  O  O523  1  0.91491402  0.35152996  0.92232250  1
  O  O524  1  0.91285941  0.68510987  0.17180477  1
  O  O525  1  0.91331857  0.68543899  0.42285229  1
  O  O526  1  0.91253692  0.68506293  0.67396528  1
  O  O527  1  0.91158073  0.68545577  0.92130197  1
  O  O528  1  0.16256642  0.01873826  0.20102938  1
  O  O529  1  0.16197697  0.01823457  0.45103128  1
  O  O530  1  0.16199490  0.01783001  0.70400679  1
  O  O531  1  0.16338988  0.01808536  0.95185802  1
  O  O532  1  0.16181026  0.35015490  0.20218065  1
  O  O533  1  0.16153726  0.35166798  0.45364817  1
  O  O534  1  0.16295808  0.35064185  0.70279225  1
  O  O535  1  0.16270607  0.35258824  0.95147866  1
  O  O536  1  0.16231213  0.68519730  0.20293211  1
  O  O537  1  0.16115670  0.68503369  0.45210129  1
  O  O538  1  0.16193678  0.68640258  0.70180702  1
  O  O539  1  0.16514185  0.68432600  0.95181613  1
  O  O540  1  0.66267156  0.01842210  0.20192478  1
  O  O541  1  0.66112742  0.01875187  0.45207858  1
  O  O542  1  0.65994863  0.01791288  0.70335709  1
  O  O543  1  0.66158831  0.01772508  0.95218261  1
  O  O544  1  0.66572208  0.35146483  0.20189747  1
  O  O545  1  0.66349747  0.35234999  0.45279557  1
  O  O546  1  0.66057091  0.35093141  0.70247637  1
  O  O547  1  0.66113154  0.35168534  0.95146834  1
  O  O548  1  0.66135820  0.68534747  0.20223808  1
  O  O549  1  0.66123060  0.68363249  0.45289571  1
  O  O550  1  0.66197302  0.68568117  0.70243061  1
  O  O551  1  0.65990684  0.68642267  0.95192498  1
  O  O552  1  0.33861600  0.31504591  0.04598689  1
  O  O553  1  0.33522547  0.31387260  0.29766098  1
  O  O554  1  0.33821719  0.31456068  0.54870905  1
  O  O555  1  0.33782699  0.31576590  0.79750584  1
  O  O556  1  0.33738097  0.64850862  0.04674436  1
  O  O557  1  0.33673210  0.64816528  0.29811595  1
  O  O558  1  0.33822977  0.64849639  0.54859414  1
  O  O559  1  0.33994427  0.64727419  0.79743551  1
  O  O560  1  0.34006352  0.98168260  0.04712141  1
  O  O561  1  0.33911299  0.98322760  0.29673099  1
  O  O562  1  0.33811813  0.98188477  0.54721841  1
  O  O563  1  0.33725511  0.98134301  0.79842345  1
  O  O564  1  0.83818791  0.31357490  0.04657525  1
  O  O565  1  0.83875185  0.31445983  0.29680065  1
  O  O566  1  0.83819228  0.31569056  0.54863436  1
  O  O567  1  0.83503394  0.31499896  0.79763150  1
  O  O568  1  0.83795754  0.64828400  0.04660470  1
  O  O569  1  0.83849871  0.64805676  0.29841246  1
  O  O570  1  0.83639904  0.64798980  0.54813518  1
  O  O571  1  0.83735699  0.64972694  0.79786951  1
  O  O572  1  0.83578407  0.98318291  0.04654278  1
  O  O573  1  0.83808740  0.98286447  0.29771365  1
  O  O574  1  0.83745727  0.98194600  0.54761344  1
  O  O575  1  0.83594271  0.98085312  0.79871090  1
  O  O576  1  0.41226980  0.14702931  0.17319760  1
  O  O577  1  0.41318627  0.14740285  0.42228758  1
  O  O578  1  0.41390757  0.14885728  0.67263844  1
  O  O579  1  0.41318741  0.14836302  0.92266741  1
  O  O580  1  0.41196852  0.48168488  0.17211359  1
  O  O581  1  0.41322863  0.48156116  0.42247530  1
  O  O582  1  0.41277072  0.48169536  0.67278671  1
  O  O583  1  0.41189695  0.48155058  0.92225537  1
  O  O584  1  0.41349371  0.81612203  0.17145302  1
  O  O585  1  0.41484546  0.81647886  0.42248501  1
  O  O586  1  0.41499798  0.81415217  0.67287514  1
  O  O587  1  0.41316564  0.81512092  0.92271627  1
  O  O588  1  0.91285123  0.14847926  0.17273851  1
  O  O589  1  0.91327776  0.14718209  0.42240044  1
  O  O590  1  0.91255419  0.14966801  0.67293345  1
  O  O591  1  0.91272120  0.14753024  0.92312602  1
  O  O592  1  0.91405887  0.48150135  0.17249133  1
  O  O593  1  0.91107949  0.48313325  0.42242857  1
  O  O594  1  0.91253388  0.48081535  0.67277020  1
  O  O595  1  0.91511545  0.48176705  0.92228687  1
  O  O596  1  0.91290365  0.81519946  0.17203705  1
  O  O597  1  0.91322030  0.81565291  0.42244028  1
  O  O598  1  0.91278176  0.81495511  0.67419275  1
  O  O599  1  0.91129361  0.81595903  0.92134434  1
  O  O600  1  0.08909892  0.18441075  0.07827093  1
  O  O601  1  0.08812997  0.18380424  0.32733579  1
  O  O602  1  0.08708251  0.18595260  0.57802160  1
  O  O603  1  0.08884986  0.18423895  0.82755087  1
  O  O604  1  0.08893551  0.51733992  0.07695984  1
  O  O605  1  0.08546839  0.51940575  0.32768884  1
  O  O606  1  0.08721962  0.51833314  0.57822597  1
  O  O607  1  0.08742535  0.51781730  0.82777163  1
  O  O608  1  0.08763987  0.85258083  0.07657750  1
  O  O609  1  0.08643419  0.85138289  0.32761454  1
  O  O610  1  0.08758471  0.85029988  0.57899636  1
  O  O611  1  0.08727505  0.85324771  0.82690625  1
  O  O612  1  0.58723587  0.18368823  0.07793021  1
  O  O613  1  0.58743201  0.18399871  0.32774820  1
  O  O614  1  0.58665482  0.18540157  0.57832508  1
  O  O615  1  0.58627103  0.18479364  0.82736992  1
  O  O616  1  0.58777606  0.51885874  0.07720848  1
  O  O617  1  0.58838959  0.51874991  0.32742994  1
  O  O618  1  0.58697627  0.51745044  0.57741298  1
  O  O619  1  0.58529215  0.51814309  0.82752841  1
  O  O620  1  0.58737140  0.85234991  0.07688156  1
  O  O621  1  0.58668148  0.85180812  0.32749286  1
  O  O622  1  0.58908203  0.85152164  0.57901875  1
  O  O623  1  0.58748498  0.85174880  0.82822196  1
  O  O624  1  0.33860371  0.18458910  0.04628327  1
  O  O625  1  0.33515224  0.18373507  0.29730022  1
  O  O626  1  0.33813797  0.18463433  0.54868530  1
  O  O627  1  0.33814234  0.18576606  0.79801576  1
  O  O628  1  0.33721082  0.51811383  0.04646445  1
  O  O629  1  0.33686380  0.51796355  0.29770034  1
  O  O630  1  0.33837152  0.51855234  0.54853063  1
  O  O631  1  0.33906584  0.51710651  0.79691717  1
  O  O632  1  0.34006680  0.85137671  0.04708252  1
  O  O633  1  0.33979699  0.85311793  0.29794747  1
  O  O634  1  0.33805245  0.85175655  0.54738627  1
  O  O635  1  0.33720518  0.85156386  0.79804890  1
  O  O636  1  0.83725794  0.18338726  0.04642377  1
  O  O637  1  0.83793808  0.18404991  0.29727821  1
  O  O638  1  0.83816955  0.18561626  0.54938116  1
  O  O639  1  0.83537469  0.18496516  0.79735717  1
  O  O640  1  0.83805247  0.51797466  0.04632294  1
  O  O641  1  0.83905594  0.51788893  0.29720231  1
  O  O642  1  0.83625509  0.51785524  0.54774428  1
  O  O643  1  0.83820777  0.51963608  0.79842173  1
  O  O644  1  0.83587345  0.85309605  0.04720370  1
  O  O645  1  0.83831272  0.85278036  0.29823184  1
  O  O646  1  0.83770428  0.85171156  0.54760134  1
  O  O647  1  0.83541763  0.85094837  0.79834789  1
  O  O648  1  0.16262437  0.14876060  0.20201235  1
  O  O649  1  0.16151544  0.14812028  0.45189209  1
  O  O650  1  0.16209906  0.14829997  0.70393516  1
  O  O651  1  0.16344893  0.14791141  0.95191995  1
  O  O652  1  0.16093842  0.48031691  0.20171000  1
  O  O653  1  0.16191479  0.48168997  0.45312630  1
  O  O654  1  0.16273482  0.48071372  0.70221345  1
  O  O655  1  0.16339457  0.48270628  0.95167991  1
  O  O656  1  0.16264746  0.81544583  0.20233621  1
  O  O657  1  0.16131137  0.81494988  0.45181881  1
  O  O658  1  0.16243855  0.81660074  0.70260088  1
  O  O659  1  0.16488998  0.81431133  0.95180000  1
  O  O660  1  0.66291388  0.14828219  0.20204051  1
  O  O661  1  0.66090767  0.14874563  0.45236333  1
  O  O662  1  0.65981909  0.14820582  0.70275563  1
  O  O663  1  0.66139019  0.14752213  0.95197239  1
  O  O664  1  0.66567436  0.48140853  0.20191765  1
  O  O665  1  0.66385196  0.48251923  0.45297003  1
  O  O666  1  0.65982162  0.48107031  0.70245862  1
  O  O667  1  0.66192153  0.48151146  0.95088896  1
  O  O668  1  0.66120984  0.81536907  0.20211018  1
  O  O669  1  0.66062321  0.81374053  0.45217728  1
  O  O670  1  0.66225533  0.81585781  0.70317747  1
  O  O671  1  0.66046858  0.81647186  0.95275577  1
