# generated using pymatgen
data_Na2MnFe(PO4)2
_symmetry_space_group_name_H-M   'P 1'
_cell_length_a   21.08043755
_cell_length_b   18.93337858
_cell_length_c   20.04000836
_cell_angle_alpha   90.00026505
_cell_angle_beta   89.99868585
_cell_angle_gamma   89.99998246
_symmetry_Int_Tables_number   1
_chemical_formula_structural   Na2MnFe(PO4)2
_chemical_formula_sum   'Na96 Mn48 Fe48 P96 O384'
_cell_volume   7998.44638812
_cell_formula_units_Z   48
loop_
 _symmetry_equiv_pos_site_id
 _symmetry_equiv_pos_as_xyz
  1  'x, y, z'
loop_
 _atom_site_type_symbol
 _atom_site_label
 _atom_site_symmetry_multiplicity
 _atom_site_fract_x
 _atom_site_fract_y
 _atom_site_fract_z
 _atom_site_occupancy
  Na  Na0  1  0.00070502  0.00002341  0.00046967  1
  Na  Na1  1  0.00312633  0.00051830  0.25011265  1
  Na  Na2  1  0.00240583  -0.00019563  0.50005634  1
  Na  Na3  1  0.00065495  -0.00044044  0.75028141  1
  Na  Na4  1  -0.00254337  0.33270559  0.00058882  1
  Na  Na5  1  -0.00131928  0.33327225  0.25106832  1
  Na  Na6  1  0.00111541  0.33388671  0.49851824  1
  Na  Na7  1  -0.00025810  0.33344007  0.74909910  1
  Na  Na8  1  -0.00253336  0.66613978  0.00098901  1
  Na  Na9  1  0.00000888  0.66724149  0.25010738  1
  Na  Na10  1  -0.00027650  0.66734192  0.49880583  1
  Na  Na11  1  -0.00169969  0.66681743  0.74963486  1
  Na  Na12  1  0.49836610  -0.00100286  0.00003324  1
  Na  Na13  1  0.49920239  -0.00068119  0.24968044  1
  Na  Na14  1  0.49693492  -0.00085875  0.50054014  1
  Na  Na15  1  0.49742481  -0.00027991  0.74919655  1
  Na  Na16  1  0.49889276  0.33324788  0.00099501  1
  Na  Na17  1  0.49832196  0.33290257  0.25028285  1
  Na  Na18  1  0.49902198  0.33295822  0.49919019  1
  Na  Na19  1  0.50073633  0.33372301  0.74977705  1
  Na  Na20  1  0.49978932  0.66625245  0.00064061  1
  Na  Na21  1  0.50217936  0.66763195  0.24997654  1
  Na  Na22  1  0.50053610  0.66723419  0.50061888  1
  Na  Na23  1  0.49960260  0.66686285  0.74943746  1
  Na  Na24  1  0.24919069  -0.00086179  0.12514147  1
  Na  Na25  1  0.25013659  -0.00089902  0.37471371  1
  Na  Na26  1  0.25110045  0.00002155  0.62514665  1
  Na  Na27  1  0.24888266  -0.00073390  0.87507433  1
  Na  Na28  1  0.25228924  0.33463572  0.12605521  1
  Na  Na29  1  0.25132035  0.33359047  0.37412137  1
  Na  Na30  1  0.25007341  0.33328078  0.62538254  1
  Na  Na31  1  0.25012213  0.33364377  0.87416228  1
  Na  Na32  1  0.25024294  0.66687632  0.12561629  1
  Na  Na33  1  0.24923022  0.66604575  0.37427341  1
  Na  Na34  1  0.25091933  0.66804101  0.62581187  1
  Na  Na35  1  0.24807223  0.66621964  0.87541100  1
  Na  Na36  1  0.74984470  -0.00041194  0.12445421  1
  Na  Na37  1  0.74796754  -0.00069044  0.37505085  1
  Na  Na38  1  0.75179525  0.00034337  0.62474905  1
  Na  Na39  1  0.75379569  0.00087898  0.87538777  1
  Na  Na40  1  0.75063032  0.33320771  0.12410771  1
  Na  Na41  1  0.74923679  0.33359871  0.37453522  1
  Na  Na42  1  0.74930688  0.33300952  0.62536665  1
  Na  Na43  1  0.75229850  0.33379528  0.87597869  1
  Na  Na44  1  0.75069638  0.66728408  0.12467051  1
  Na  Na45  1  0.74860784  0.66663950  0.37351875  1
  Na  Na46  1  0.75236850  0.66790496  0.62474030  1
  Na  Na47  1  0.75298118  0.66759007  0.87646463  1
  Na  Na48  1  -0.00200090  0.16702982  -0.00009158  1
  Na  Na49  1  0.00089809  0.16679900  0.25073697  1
  Na  Na50  1  0.00267415  0.16582062  0.49937534  1
  Na  Na51  1  -0.00115837  0.16716658  0.75012871  1
  Na  Na52  1  -0.00241668  0.50061366  0.00141985  1
  Na  Na53  1  -0.00056508  0.49951595  0.25008811  1
  Na  Na54  1  -0.00032024  0.49949396  0.49867222  1
  Na  Na55  1  -0.00086644  0.49966349  0.74927166  1
  Na  Na56  1  0.00002617  0.83353524  0.00066893  1
  Na  Na57  1  0.00109197  0.83310202  0.25040006  1
  Na  Na58  1  0.00138252  0.83295832  0.49951413  1
  Na  Na59  1  0.00051575  0.83360295  0.74957364  1
  Na  Na60  1  0.49857183  0.16724157  -0.00000416  1
  Na  Na61  1  0.49927658  0.16728307  0.25029281  1
  Na  Na62  1  0.49885350  0.16697091  0.50020034  1
  Na  Na63  1  0.49745551  0.16737666  0.74937553  1
  Na  Na64  1  0.49875686  0.50063921  0.00113341  1
  Na  Na65  1  0.50015169  0.49976074  0.24990773  1
  Na  Na66  1  0.49958573  0.49953333  0.49953353  1
  Na  Na67  1  0.50120303  0.49886276  0.74956309  1
  Na  Na68  1  0.49919510  0.83392211  0.00055585  1
  Na  Na69  1  0.50025122  0.83325263  0.24968975  1
  Na  Na70  1  0.49813778  0.83397621  0.50075455  1
  Na  Na71  1  0.49847215  0.83383008  0.74933175  1
  Na  Na72  1  0.25180150  0.16607671  0.12597259  1
  Na  Na73  1  0.25129880  0.16713009  0.37444878  1
  Na  Na74  1  0.25220796  0.16586666  0.62540082  1
  Na  Na75  1  0.24911829  0.16708053  0.87469646  1
  Na  Na76  1  0.25164662  0.49907848  0.12561357  1
  Na  Na77  1  0.25003923  0.49986082  0.37432413  1
  Na  Na78  1  0.24988910  0.49944355  0.62570744  1
  Na  Na79  1  0.24986304  0.49957271  0.87524672  1
  Na  Na80  1  0.24856982  0.83379822  0.12525437  1
  Na  Na81  1  0.24970847  0.83373843  0.37434665  1
  Na  Na82  1  0.24936401  0.83401961  0.62545287  1
  Na  Na83  1  0.24830569  0.83402090  0.87474903  1
  Na  Na84  1  0.75135221  0.16635297  0.12450926  1
  Na  Na85  1  0.74733670  0.16801504  0.37412963  1
  Na  Na86  1  0.75081215  0.16654963  0.62509341  1
  Na  Na87  1  0.75321833  0.16587735  0.87541901  1
  Na  Na88  1  0.75058354  0.49977110  0.12395305  1
  Na  Na89  1  0.74900143  0.49977433  0.37441978  1
  Na  Na90  1  0.74939615  0.50008659  0.62480665  1
  Na  Na91  1  0.75252780  0.49907074  0.87610102  1
  Na  Na92  1  0.74978904  0.83323147  0.12463935  1
  Na  Na93  1  0.74916056  0.83301961  0.37455133  1
  Na  Na94  1  0.75218296  0.83307329  0.62512224  1
  Na  Na95  1  0.75376960  0.83236290  0.87614580  1
  Mn  Mn96  1  0.39240952  0.58391174  0.37755810  1
  Mn  Mn97  1  0.89252485  0.91693939  0.12833501  1
  Mn  Mn98  1  0.64314621  0.58327192  0.99782069  1
  Mn  Mn99  1  0.35694470  0.08369833  0.00212813  1
  Mn  Mn100  1  0.60812621  0.75021917  0.62323791  1
  Mn  Mn101  1  0.35798284  0.41675003  0.75244258  1
  Mn  Mn102  1  0.35719610  0.75025949  0.75315080  1
  Mn  Mn103  1  0.60842312  0.75052683  0.87268292  1
  Mn  Mn104  1  0.10880818  0.08372949  0.62264072  1
  Mn  Mn105  1  0.14157959  0.58311382  0.99806865  1
  Mn  Mn106  1  0.10706822  0.41642871  0.12299882  1
  Mn  Mn107  1  0.64286038  0.24935064  0.74831775  1
  Mn  Mn108  1  0.14061777  0.58367978  0.74803442  1
  Mn  Mn109  1  0.35809350  0.74943194  0.25240433  1
  Mn  Mn110  1  0.35702873  0.74938783  0.00225716  1
  Mn  Mn111  1  0.10709653  0.74940480  0.12294627  1
  Mn  Mn112  1  0.60670369  0.08263376  0.37308443  1
  Mn  Mn113  1  0.64319166  0.91675718  0.74850798  1
  Mn  Mn114  1  0.85722401  0.08302820  0.25325581  1
  Mn  Mn115  1  0.60821022  0.41667398  0.87367541  1
  Mn  Mn116  1  0.64266743  0.91706465  0.99717475  1
  Mn  Mn117  1  0.10774883  0.74941877  0.62224265  1
  Mn  Mn118  1  0.64220945  0.58336794  0.49778139  1
  Mn  Mn119  1  0.35810375  0.08333308  0.25248237  1
  Mn  Mn120  1  0.14161408  0.24939770  0.74785527  1
  Mn  Mn121  1  0.60809415  0.08291828  0.87250939  1
  Mn  Mn122  1  0.39157564  0.25003902  0.87776303  1
  Mn  Mn123  1  0.64320437  0.58378033  0.74851261  1
  Mn  Mn124  1  0.10794292  0.41673087  0.62182498  1
  Mn  Mn125  1  0.89218795  0.24952325  0.62589119  1
  Mn  Mn126  1  0.14244148  0.58317865  0.49713666  1
  Mn  Mn127  1  0.14186369  0.25013006  0.99832828  1
  Mn  Mn128  1  0.14311328  0.25044574  0.24748370  1
  Mn  Mn129  1  0.60724049  0.08360865  0.62341842  1
  Mn  Mn130  1  0.64310480  0.24949988  0.99788612  1
  Mn  Mn131  1  0.85809109  0.41660117  0.75233993  1
  Mn  Mn132  1  0.10777705  0.08429710  0.12260992  1
  Mn  Mn133  1  0.89210592  0.58350694  0.37635736  1
  Mn  Mn134  1  0.60748058  0.08336389  0.12227616  1
  Mn  Mn135  1  0.60728007  0.41690752  0.37226238  1
  Mn  Mn136  1  0.39198637  0.58294515  0.62729739  1
  Mn  Mn137  1  0.64149083  0.91692355  0.49830591  1
  Mn  Mn138  1  0.89145298  0.58321404  0.62662368  1
  Mn  Mn139  1  0.85822658  0.08356891  0.50151486  1
  Mn  Mn140  1  0.89288321  0.91705985  0.37655617  1
  Mn  Mn141  1  0.89229186  0.24938384  0.37731848  1
  Mn  Mn142  1  0.39167945  0.58388682  0.87753941  1
  Mn  Mn143  1  0.89285158  0.91713586  0.62663814  1
  Fe  Fe144  1  0.89411224  0.91680005  0.87680185  1
  Fe  Fe145  1  0.35677825  0.08301737  0.75258697  1
  Fe  Fe146  1  0.64192221  0.25031914  0.24764971  1
  Fe  Fe147  1  0.85831477  0.75043050  0.00269211  1
  Fe  Fe148  1  0.89199924  0.58296614  0.12813751  1
  Fe  Fe149  1  0.85874871  0.08276681  0.75193532  1
  Fe  Fe150  1  0.89289283  0.58319787  0.87691967  1
  Fe  Fe151  1  0.10664103  0.41676185  0.87457028  1
  Fe  Fe152  1  0.10597563  0.74967443  0.87383021  1
  Fe  Fe153  1  0.14404540  0.24978681  0.49817717  1
  Fe  Fe154  1  0.85865292  0.75069917  0.75236248  1
  Fe  Fe155  1  0.10653386  0.08355598  0.87329193  1
  Fe  Fe156  1  0.60722646  0.74976870  0.12320699  1
  Fe  Fe157  1  0.39142354  0.91682170  0.62714802  1
  Fe  Fe158  1  0.14238069  0.91666535  0.99796928  1
  Fe  Fe159  1  0.39275722  0.24954341  0.37762665  1
  Fe  Fe160  1  0.35730889  0.74972017  0.50101119  1
  Fe  Fe161  1  0.14343533  0.91610851  0.24858699  1
  Fe  Fe162  1  0.10937518  0.08345705  0.37354640  1
  Fe  Fe163  1  0.64180330  0.24993853  0.49869683  1
  Fe  Fe164  1  0.14396788  0.91692327  0.49812627  1
  Fe  Fe165  1  0.39279798  0.25036487  0.12676870  1
  Fe  Fe166  1  0.64152573  0.91655548  0.24834600  1
  Fe  Fe167  1  0.39259587  0.25006274  0.62624831  1
  Fe  Fe168  1  0.85873093  0.08303406  0.00228181  1
  Fe  Fe169  1  0.35700170  0.08343548  0.50173466  1
  Fe  Fe170  1  0.39227285  0.91614995  0.12655002  1
  Fe  Fe171  1  0.35748769  0.41685792  0.00177177  1
  Fe  Fe172  1  0.39227322  0.91645157  0.37678139  1
  Fe  Fe173  1  0.14275241  0.58324940  0.24813151  1
  Fe  Fe174  1  0.39181943  0.91635957  0.87704962  1
  Fe  Fe175  1  0.60739488  0.41611033  0.62301124  1
  Fe  Fe176  1  0.89312599  0.25005313  0.87659729  1
  Fe  Fe177  1  0.85596795  0.41681843  0.25151160  1
  Fe  Fe178  1  0.85689342  0.41660065  0.50109894  1
  Fe  Fe179  1  0.10772602  0.41686027  0.37293410  1
  Fe  Fe180  1  0.89206369  0.25009930  0.12785142  1
  Fe  Fe181  1  0.39301964  0.58351559  0.12704744  1
  Fe  Fe182  1  0.60661976  0.41688553  0.12346719  1
  Fe  Fe183  1  0.85586885  0.75012216  0.25194882  1
  Fe  Fe184  1  0.10807364  0.74969926  0.37311075  1
  Fe  Fe185  1  0.60747547  0.75057772  0.37370958  1
  Fe  Fe186  1  0.35766832  0.41734004  0.25184296  1
  Fe  Fe187  1  0.14267370  0.91697067  0.74872998  1
  Fe  Fe188  1  0.64260634  0.58313029  0.24748840  1
  Fe  Fe189  1  0.35695196  0.41687244  0.50171454  1
  Fe  Fe190  1  0.85850507  0.41642130  0.00251149  1
  Fe  Fe191  1  0.85751025  0.74995205  0.50049180  1
  P  P192  1  0.05148872  0.25053359  0.11028633  1
  P  P193  1  0.05570708  0.25021024  0.36119656  1
  P  P194  1  0.05422186  0.24987499  0.60839131  1
  P  P195  1  0.05206333  0.25026674  0.86061205  1
  P  P196  1  0.05254186  0.58303029  0.11159301  1
  P  P197  1  0.05431173  0.58321896  0.35908481  1
  P  P198  1  0.05247305  0.58336653  0.60881555  1
  P  P199  1  0.05136711  0.58318393  0.86076001  1
  P  P200  1  0.05538655  0.91658262  0.11074301  1
  P  P201  1  0.05650632  0.91654189  0.36081524  1
  P  P202  1  0.05585367  0.91673299  0.61009745  1
  P  P203  1  0.05421186  0.91653756  0.86109063  1
  P  P204  1  0.55338839  0.25107214  0.11114116  1
  P  P205  1  0.55357754  0.24990268  0.36056597  1
  P  P206  1  0.55270938  0.25032008  0.60958076  1
  P  P207  1  0.55307397  0.24981182  0.86003729  1
  P  P208  1  0.55402441  0.58307601  0.11147797  1
  P  P209  1  0.55415735  0.58421249  0.35935376  1
  P  P210  1  0.55362720  0.58263823  0.61013952  1
  P  P211  1  0.55318053  0.58343226  0.86003772  1
  P  P212  1  0.55343732  0.91586171  0.11085162  1
  P  P213  1  0.55206560  0.91599321  0.35989729  1
  P  P214  1  0.55155533  0.91713432  0.61051573  1
  P  P215  1  0.55170653  0.91678278  0.85953435  1
  P  P216  1  0.44611622  0.08319860  0.13978478  1
  P  P217  1  0.44545243  0.08310056  0.39064403  1
  P  P218  1  0.44353037  0.08369952  0.63911143  1
  P  P219  1  0.44526301  0.08229544  0.88915386  1
  P  P220  1  0.44558857  0.41705993  0.13957323  1
  P  P221  1  0.44461629  0.41619273  0.38927054  1
  P  P222  1  0.44639799  0.41556628  0.63847529  1
  P  P223  1  0.44623551  0.41684212  0.89128425  1
  P  P224  1  0.44736492  0.74970499  0.13984511  1
  P  P225  1  0.44752045  0.75066086  0.39047319  1
  P  P226  1  0.44472193  0.75061448  0.63895757  1
  P  P227  1  0.44673506  0.75097103  0.89056533  1
  P  P228  1  0.94570446  0.08395269  0.13997885  1
  P  P229  1  0.94913241  0.08292176  0.38989024  1
  P  P230  1  0.94697369  0.08330208  0.64039841  1
  P  P231  1  0.94651066  0.08290730  0.88929043  1
  P  P232  1  0.94428267  0.41645948  0.14037531  1
  P  P233  1  0.94566102  0.41673189  0.38876245  1
  P  P234  1  0.94538308  0.41619463  0.63817045  1
  P  P235  1  0.94712120  0.41663271  0.89051437  1
  P  P236  1  0.94436523  0.74953000  0.14044786  1
  P  P237  1  0.94635688  0.75035350  0.38860816  1
  P  P238  1  0.94499942  0.75030876  0.63901276  1
  P  P239  1  0.94620160  0.75046757  0.88958817  1
  P  P240  1  0.19592499  0.08261386  0.23607475  1
  P  P241  1  0.19823331  0.08347718  0.48475830  1
  P  P242  1  0.19620178  0.08248355  0.73643685  1
  P  P243  1  0.19556070  0.08296657  0.98440363  1
  P  P244  1  0.19660621  0.41753427  0.23599779  1
  P  P245  1  0.19764120  0.41573451  0.48413586  1
  P  P246  1  0.19467632  0.41662019  0.73628054  1
  P  P247  1  0.19731185  0.41647297  0.98491640  1
  P  P248  1  0.19537275  0.74968051  0.23616103  1
  P  P249  1  0.19765413  0.75067716  0.48441777  1
  P  P250  1  0.19441718  0.75096672  0.73662773  1
  P  P251  1  0.19525768  0.75046394  0.98463927  1
  P  P252  1  0.69581659  0.08329542  0.23480043  1
  P  P253  1  0.69633302  0.08418174  0.48501545  1
  P  P254  1  0.69888849  0.08290927  0.73516442  1
  P  P255  1  0.69870219  0.08339202  0.98477915  1
  P  P256  1  0.69630175  0.41666463  0.23398158  1
  P  P257  1  0.69603615  0.41576189  0.48583608  1
  P  P258  1  0.69636100  0.41657765  0.73477572  1
  P  P259  1  0.69752605  0.41647535  0.98665436  1
  P  P260  1  0.69502967  0.75012654  0.23542294  1
  P  P261  1  0.69725797  0.75023892  0.48429290  1
  P  P262  1  0.69914024  0.75040551  0.73539335  1
  P  P263  1  0.69725476  0.75002769  0.98634605  1
  P  P264  1  0.30349318  0.25097973  0.01601867  1
  P  P265  1  0.30607967  0.25104090  0.26448926  1
  P  P266  1  0.30416220  0.25030440  0.51413892  1
  P  P267  1  0.30440010  0.24933922  0.76378021  1
  P  P268  1  0.30349163  0.58258845  0.01618735  1
  P  P269  1  0.30379149  0.58283284  0.26387524  1
  P  P270  1  0.30314482  0.58330769  0.51489485  1
  P  P271  1  0.30236336  0.58336762  0.76554004  1
  P  P272  1  0.30313146  0.91642051  0.01461756  1
  P  P273  1  0.30445512  0.91621439  0.26439484  1
  P  P274  1  0.30419001  0.91626021  0.51399028  1
  P  P275  1  0.30363487  0.91740545  0.76480513  1
  P  P276  1  0.80648666  0.24965163  0.01444676  1
  P  P277  1  0.80270228  0.25092115  0.26385620  1
  P  P278  1  0.80176730  0.25073661  0.51442309  1
  P  P279  1  0.80472144  0.24916709  0.76563218  1
  P  P280  1  0.80645583  0.58345541  0.01474814  1
  P  P281  1  0.80275963  0.58322394  0.26329203  1
  P  P282  1  0.80339804  0.58341072  0.51385350  1
  P  P283  1  0.80455441  0.58414511  0.76604490  1
  P  P284  1  0.80580851  0.91683032  0.01405617  1
  P  P285  1  0.80150732  0.91585931  0.26494924  1
  P  P286  1  0.80351899  0.91593199  0.51432557  1
  P  P287  1  0.80520788  0.91678861  0.76575310  1
  O  O288  1  0.05626637  0.25065773  0.18694874  1
  O  O289  1  0.06025816  0.25013308  0.43790620  1
  O  O290  1  0.05682388  0.24982168  0.68524352  1
  O  O291  1  0.05539654  0.25002471  0.93728939  1
  O  O292  1  0.05821343  0.58305724  0.18817265  1
  O  O293  1  0.05709316  0.58321290  0.43589623  1
  O  O294  1  0.05535988  0.58348593  0.68564119  1
  O  O295  1  0.05466171  0.58336261  0.93750034  1
  O  O296  1  0.05980934  0.91638674  0.18751807  1
  O  O297  1  0.06048186  0.91646162  0.43765783  1
  O  O298  1  0.05955845  0.91688749  0.68690878  1
  O  O299  1  0.05819245  0.91669232  0.93785455  1
  O  O300  1  0.55807911  0.25046801  0.18787440  1
  O  O301  1  0.55843820  0.25014020  0.43724265  1
  O  O302  1  0.55664219  0.24977325  0.68628294  1
  O  O303  1  0.55672004  0.24955640  0.93686850  1
  O  O304  1  0.55878022  0.58300659  0.18818049  1
  O  O305  1  0.55697795  0.58320233  0.43615987  1
  O  O306  1  0.55684885  0.58325850  0.68690310  1
  O  O307  1  0.55671574  0.58347122  0.93689125  1
  O  O308  1  0.55832789  0.91652440  0.18754237  1
  O  O309  1  0.55556242  0.91669635  0.43661699  1
  O  O310  1  0.55628329  0.91704688  0.68711764  1
  O  O311  1  0.55615414  0.91694314  0.93629855  1
  O  O312  1  0.44313229  0.08316645  0.06300949  1
  O  O313  1  0.44339557  0.08308132  0.31382286  1
  O  O314  1  0.43963657  0.08348483  0.56224040  1
  O  O315  1  0.44110348  0.08301334  0.81235962  1
  O  O316  1  0.44128421  0.41705267  0.06288130  1
  O  O317  1  0.44095366  0.41722679  0.31248055  1
  O  O318  1  0.44129485  0.41637993  0.56179908  1
  O  O319  1  0.44335404  0.41666572  0.81443248  1
  O  O320  1  0.44342652  0.74964472  0.06322026  1
  O  O321  1  0.44394107  0.74989382  0.31374882  1
  O  O322  1  0.44047119  0.74995520  0.56220416  1
  O  O323  1  0.44350472  0.75026646  0.81376705  1
  O  O324  1  0.94200501  0.08300155  0.06315656  1
  O  O325  1  0.94430608  0.08298116  0.31320815  1
  O  O326  1  0.94384075  0.08302838  0.56357992  1
  O  O327  1  0.94252677  0.08275979  0.81254187  1
  O  O328  1  0.94096087  0.41661774  0.06351654  1
  O  O329  1  0.94002711  0.41664601  0.31213285  1
  O  O330  1  0.94081743  0.41618373  0.56139068  1
  O  O331  1  0.94418007  0.41660003  0.81374569  1
  O  O332  1  0.94086905  0.75042066  0.06356013  1
  O  O333  1  0.94052825  0.75045168  0.31198669  1
  O  O334  1  0.94089151  0.75038478  0.56219992  1
  O  O335  1  0.94253411  0.75068270  0.81278128  1
  O  O336  1  0.19321648  0.08385842  0.06127539  1
  O  O337  1  0.19249883  0.08356416  0.31286647  1
  O  O338  1  0.19505652  0.08355605  0.56150308  1
  O  O339  1  0.19070561  0.08345364  0.81306891  1
  O  O340  1  0.19328859  0.41642979  0.06166486  1
  O  O341  1  0.19167219  0.41688744  0.31262412  1
  O  O342  1  0.19412760  0.41637344  0.56091232  1
  O  O343  1  0.18971051  0.41670570  0.81303088  1
  O  O344  1  0.19264790  0.74953996  0.06147542  1
  O  O345  1  0.19174378  0.74945134  0.31292248  1
  O  O346  1  0.19419592  0.75004648  0.56117616  1
  O  O347  1  0.18963431  0.74980252  0.81334160  1
  O  O348  1  0.69373660  0.08332805  0.06144172  1
  O  O349  1  0.69244952  0.08329794  0.31157381  1
  O  O350  1  0.69344271  0.08350122  0.56179920  1
  O  O351  1  0.69488606  0.08284370  0.81186231  1
  O  O352  1  0.69157167  0.41658143  0.06318582  1
  O  O353  1  0.69290271  0.41658172  0.31080664  1
  O  O354  1  0.69133393  0.41620933  0.56250521  1
  O  O355  1  0.69377259  0.41649305  0.81164585  1
  O  O356  1  0.69136367  0.75005167  0.06297097  1
  O  O357  1  0.69058112  0.75036121  0.31215166  1
  O  O358  1  0.69373606  0.75044344  0.56104886  1
  O  O359  1  0.69520416  0.75049947  0.81212887  1
  O  O360  1  0.31010221  0.25021488  0.18768819  1
  O  O361  1  0.30830019  0.25019718  0.43737351  1
  O  O362  1  0.30850047  0.25024509  0.68703781  1
  O  O363  1  0.30584939  0.25017478  0.93917047  1
  O  O364  1  0.30898053  0.58363860  0.18724503  1
  O  O365  1  0.30588939  0.58334893  0.43808042  1
  O  O366  1  0.30611231  0.58342152  0.68875755  1
  O  O367  1  0.30615194  0.58356570  0.93939188  1
  O  O368  1  0.30923836  0.91606988  0.18766043  1
  O  O369  1  0.30849352  0.91612639  0.43721753  1
  O  O370  1  0.30800429  0.91661454  0.68804123  1
  O  O371  1  0.30779408  0.91623867  0.93792531  1
  O  O372  1  0.80760750  0.24999209  0.18721282  1
  O  O373  1  0.80556780  0.25016082  0.43766548  1
  O  O374  1  0.80709526  0.24988528  0.68883593  1
  O  O375  1  0.81065423  0.25000672  0.93761595  1
  O  O376  1  0.80715401  0.58332372  0.18661520  1
  O  O377  1  0.80581217  0.58313012  0.43700689  1
  O  O378  1  0.80661387  0.58324822  0.68918935  1
  O  O379  1  0.81058618  0.58326472  0.93789398  1
  O  O380  1  0.80566029  0.91657050  0.18829477  1
  O  O381  1  0.80652293  0.91663882  0.43756865  1
  O  O382  1  0.80750145  0.91704255  0.68894157  1
  O  O383  1  0.81042866  0.91672644  0.93735614  1
  O  O384  1  0.23396988  0.25027217  0.04183549  1
  O  O385  1  0.23593687  0.25039571  0.28826813  1
  O  O386  1  0.23388350  0.24989177  0.53845816  1
  O  O387  1  0.23443409  0.24976868  0.78821713  1
  O  O388  1  0.23376518  0.58300605  0.04142875  1
  O  O389  1  0.23344936  0.58293239  0.28745662  1
  O  O390  1  0.23360827  0.58340018  0.54067531  1
  O  O391  1  0.23259620  0.58303659  0.79030280  1
  O  O392  1  0.23268530  0.91655928  0.03806552  1
  O  O393  1  0.23404531  0.91616322  0.28772331  1
  O  O394  1  0.23377094  0.91689012  0.53796361  1
  O  O395  1  0.23326297  0.91689619  0.78848393  1
  O  O396  1  0.73630018  0.24958044  0.03839697  1
  O  O397  1  0.73224190  0.25085597  0.28730107  1
  O  O398  1  0.73191126  0.25001840  0.53947968  1
  O  O399  1  0.73518027  0.24986180  0.79143433  1
  O  O400  1  0.73625403  0.58366368  0.03858484  1
  O  O401  1  0.73243995  0.58331340  0.28725523  1
  O  O402  1  0.73401353  0.58399098  0.53992467  1
  O  O403  1  0.73518894  0.58345763  0.79225704  1
  O  O404  1  0.73568507  0.91667153  0.03805821  1
  O  O405  1  0.73130806  0.91601067  0.28910590  1
  O  O406  1  0.73398849  0.91655536  0.54005278  1
  O  O407  1  0.73570863  0.91654796  0.79178443  1
  O  O408  1  0.26580670  0.08256020  0.21141016  1
  O  O409  1  0.26838853  0.08322245  0.46009132  1
  O  O410  1  0.26651137  0.08253444  0.71283557  1
  O  O411  1  0.26516700  0.08326673  0.95901470  1
  O  O412  1  0.26706307  0.41709316  0.21263735  1
  O  O413  1  0.26777297  0.41657782  0.45972925  1
  O  O414  1  0.26484352  0.41653082  0.71258873  1
  O  O415  1  0.26745442  0.41672393  0.96068841  1
  O  O416  1  0.26527343  0.75011272  0.21146496  1
  O  O417  1  0.26773694  0.75002463  0.45967149  1
  O  O418  1  0.26449025  0.75117435  0.71270261  1
  O  O419  1  0.26490600  0.75005515  0.95935039  1
  O  O420  1  0.76560858  0.08316379  0.20981536  1
  O  O421  1  0.76587290  0.08386349  0.45919877  1
  O  O422  1  0.76898665  0.08303142  0.71081061  1
  O  O423  1  0.76907765  0.08349784  0.96149216  1
  O  O424  1  0.76643074  0.41668582  0.20955288  1
  O  O425  1  0.76624263  0.41644932  0.46153065  1
  O  O426  1  0.76611527  0.41652866  0.70973430  1
  O  O427  1  0.76820564  0.41645318  0.96399675  1
  O  O428  1  0.76550847  0.74993960  0.21171500  1
  O  O429  1  0.76727184  0.74978869  0.45949015  1
  O  O430  1  0.76923184  0.75071240  0.71109804  1
  O  O431  1  0.76798705  0.74991741  0.96398183  1
  O  O432  1  0.01566673  0.08382408  0.16432931  1
  O  O433  1  0.01937950  0.08292268  0.41367729  1
  O  O434  1  0.01669740  0.08355018  0.66535418  1
  O  O435  1  0.01686868  0.08305219  0.91346033  1
  O  O436  1  0.01427657  0.41644852  0.16485534  1
  O  O437  1  0.01638675  0.41700361  0.41136679  1
  O  O438  1  0.01535929  0.41626972  0.66230454  1
  O  O439  1  0.01702245  0.41662307  0.91600863  1
  O  O440  1  0.01447025  0.75000962  0.16438283  1
  O  O441  1  0.01706778  0.74998782  0.41127592  1
  O  O442  1  0.01503829  0.75023658  0.66311488  1
  O  O443  1  0.01640468  0.75026703  0.91420730  1
  O  O444  1  0.51570636  0.08327930  0.16528434  1
  O  O445  1  0.51493939  0.08298168  0.41648085  1
  O  O446  1  0.51360346  0.08370702  0.66345833  1
  O  O447  1  0.51509977  0.08279336  0.91395012  1
  O  O448  1  0.51593548  0.41689866  0.16365238  1
  O  O449  1  0.51474776  0.41675167  0.41330247  1
  O  O450  1  0.51675199  0.41574059  0.66216503  1
  O  O451  1  0.51588084  0.41678202  0.91656397  1
  O  O452  1  0.51747945  0.74987769  0.16430879  1
  O  O453  1  0.51758860  0.75046304  0.41509800  1
  O  O454  1  0.51476384  0.75036339  0.66325429  1
  O  O455  1  0.51629938  0.75060475  0.91604137  1
  O  O456  1  0.48296149  0.25071469  0.08757284  1
  O  O457  1  0.48303533  0.24975432  0.33746350  1
  O  O458  1  0.48252045  0.24982990  0.58529785  1
  O  O459  1  0.48331713  0.25032238  0.83528257  1
  O  O460  1  0.48360665  0.58317634  0.08786383  1
  O  O461  1  0.48437538  0.58369184  0.33437162  1
  O  O462  1  0.48395036  0.58301887  0.58485087  1
  O  O463  1  0.48353246  0.58316653  0.83490375  1
  O  O464  1  0.48294141  0.91613251  0.08743070  1
  O  O465  1  0.48190552  0.91645906  0.33542502  1
  O  O466  1  0.48123825  0.91711301  0.58677648  1
  O  O467  1  0.48159924  0.91663531  0.83536895  1
  O  O468  1  0.98135670  0.25036245  0.08645973  1
  O  O469  1  0.98553597  0.25018988  0.33718493  1
  O  O470  1  0.98462453  0.24967699  0.58301918  1
  O  O471  1  0.98204876  0.25014397  0.83559221  1
  O  O472  1  0.98203514  0.58309878  0.08871186  1
  O  O473  1  0.98445826  0.58338821  0.33415507  1
  O  O474  1  0.98298558  0.58333839  0.58331570  1
  O  O475  1  0.98141549  0.58325841  0.83557925  1
  O  O476  1  0.98521050  0.91655424  0.08718704  1
  O  O477  1  0.98644610  0.91662949  0.33633116  1
  O  O478  1  0.98588502  0.91664480  0.58576622  1
  O  O479  1  0.98388952  0.91669890  0.83695583  1
  O  O480  1  0.08495809  0.31555964  0.07714742  1
  O  O481  1  0.08885505  0.31557120  0.32798984  1
  O  O482  1  0.08871913  0.31470423  0.57596501  1
  O  O483  1  0.08574102  0.31547992  0.82813423  1
  O  O484  1  0.08551844  0.64800851  0.07784191  1
  O  O485  1  0.08864422  0.64825774  0.32681003  1
  O  O486  1  0.08670426  0.64841552  0.57653467  1
  O  O487  1  0.08511031  0.64832941  0.82800584  1
  O  O488  1  0.08893188  0.98155449  0.07748631  1
  O  O489  1  0.09037738  0.98156755  0.32794844  1
  O  O490  1  0.08974286  0.98171628  0.57713434  1
  O  O491  1  0.08782901  0.98152191  0.82775756  1
  O  O492  1  0.58654409  0.31629696  0.07807712  1
  O  O493  1  0.58670916  0.31495253  0.32685633  1
  O  O494  1  0.58644018  0.31533381  0.57655734  1
  O  O495  1  0.58732475  0.31489653  0.82789675  1
  O  O496  1  0.58734210  0.64819854  0.07822792  1
  O  O497  1  0.58814888  0.64954215  0.32748218  1
  O  O498  1  0.58781787  0.64780160  0.57778240  1
  O  O499  1  0.58710464  0.64866011  0.82759961  1
  O  O500  1  0.58661585  0.98087242  0.07710343  1
  O  O501  1  0.58616093  0.98080224  0.32676207  1
  O  O502  1  0.58489782  0.98227032  0.57740898  1
  O  O503  1  0.58539994  0.98182416  0.82660250  1
  O  O504  1  0.41201208  0.01795098  0.17200789  1
  O  O505  1  0.41088214  0.01805612  0.42261226  1
  O  O506  1  0.40970761  0.01866275  0.67211276  1
  O  O507  1  0.41158606  0.01702365  0.92176315  1
  O  O508  1  0.41197721  0.35208487  0.17280110  1
  O  O509  1  0.41131864  0.35081511  0.42196001  1
  O  O510  1  0.41316637  0.35032594  0.67155606  1
  O  O511  1  0.41174744  0.35194934  0.92375213  1
  O  O512  1  0.41385076  0.68456702  0.17293026  1
  O  O513  1  0.41345778  0.68572691  0.42343137  1
  O  O514  1  0.41106097  0.68571306  0.67232780  1
  O  O515  1  0.41238231  0.68599828  0.92309264  1
  O  O516  1  0.91225505  0.01890435  0.17332446  1
  O  O517  1  0.91554110  0.01790495  0.42277546  1
  O  O518  1  0.91297495  0.01829342  0.67313290  1
  O  O519  1  0.91330029  0.01782182  0.92278999  1
  O  O520  1  0.91046180  0.35135561  0.17312981  1
  O  O521  1  0.91266325  0.35174629  0.42258927  1
  O  O522  1  0.91206145  0.35110254  0.67135461  1
  O  O523  1  0.91293566  0.35157492  0.92295425  1
  O  O524  1  0.91077152  0.68432253  0.17309770  1
  O  O525  1  0.91304803  0.68532619  0.42205876  1
  O  O526  1  0.91117698  0.68541780  0.67215553  1
  O  O527  1  0.91244931  0.68543961  0.92246065  1
  O  O528  1  0.16214297  0.01743382  0.20375817  1
  O  O529  1  0.16419142  0.01851645  0.45211323  1
  O  O530  1  0.16311381  0.01726131  0.70327017  1
  O  O531  1  0.16132666  0.01773235  0.95251809  1
  O  O532  1  0.16345123  0.35250380  0.20228578  1
  O  O533  1  0.16420766  0.35046889  0.45148497  1
  O  O534  1  0.16144323  0.35150204  0.70297619  1
  O  O535  1  0.16350760  0.35144692  0.95200055  1
  O  O536  1  0.16185114  0.68449510  0.20312604  1
  O  O537  1  0.16317065  0.68596978  0.45152702  1
  O  O538  1  0.16119009  0.68597122  0.70287197  1
  O  O539  1  0.16059861  0.68557927  0.95220568  1
  O  O540  1  0.66186647  0.01800190  0.20248702  1
  O  O541  1  0.66189797  0.01908370  0.45273969  1
  O  O542  1  0.66500150  0.01796688  0.70227877  1
  O  O543  1  0.66531814  0.01830839  0.95160419  1
  O  O544  1  0.66225489  0.35170545  0.20127262  1
  O  O545  1  0.66275278  0.35060744  0.45267462  1
  O  O546  1  0.66204446  0.35154690  0.70233646  1
  O  O547  1  0.66468198  0.35143237  0.95292248  1
  O  O548  1  0.66174589  0.68496667  0.20207662  1
  O  O549  1  0.66287230  0.68547032  0.45159621  1
  O  O550  1  0.66553533  0.68521956  0.70263319  1
  O  O551  1  0.66447744  0.68495483  0.95266668  1
  O  O552  1  0.33772342  0.31626646  0.04786824  1
  O  O553  1  0.33937251  0.31624729  0.29731088  1
  O  O554  1  0.33743064  0.31556819  0.54727844  1
  O  O555  1  0.33817311  0.31413091  0.79714199  1
  O  O556  1  0.33807594  0.64742420  0.04888931  1
  O  O557  1  0.33692513  0.64784588  0.29761613  1
  O  O558  1  0.33736754  0.64851619  0.54685999  1
  O  O559  1  0.33599282  0.64860917  0.79818781  1
  O  O560  1  0.33659071  0.98142733  0.04792980  1
  O  O561  1  0.33773142  0.98118090  0.29789992  1
  O  O562  1  0.33770927  0.98128336  0.54721952  1
  O  O563  1  0.33687223  0.98259307  0.79785478  1
  O  O564  1  0.83989745  0.31470927  0.04777858  1
  O  O565  1  0.83591028  0.31617349  0.29682013  1
  O  O566  1  0.83543420  0.31595955  0.54689017  1
  O  O567  1  0.83948123  0.31396162  0.79816878  1
  O  O568  1  0.84006899  0.64849953  0.04781449  1
  O  O569  1  0.83624753  0.64824865  0.29654996  1
  O  O570  1  0.83803900  0.64856456  0.54551625  1
  O  O571  1  0.83889005  0.64948110  0.79771787  1
  O  O572  1  0.83910652  0.98209364  0.04717912  1
  O  O573  1  0.83533872  0.98079718  0.29810756  1
  O  O574  1  0.83817831  0.98078879  0.54671650  1
  O  O575  1  0.83971037  0.98186252  0.79796199  1
  O  O576  1  0.41201622  0.14835394  0.17206518  1
  O  O577  1  0.41112291  0.14829529  0.42275280  1
  O  O578  1  0.40992671  0.14894562  0.67182912  1
  O  O579  1  0.41127497  0.14721934  0.92221994  1
  O  O580  1  0.41220285  0.48220233  0.17294220  1
  O  O581  1  0.41069864  0.48090936  0.42269656  1
  O  O582  1  0.41309598  0.48045883  0.67229922  1
  O  O583  1  0.41180954  0.48179843  0.92362858  1
  O  O584  1  0.41348063  0.81475974  0.17257264  1
  O  O585  1  0.41330501  0.81566444  0.42281260  1
  O  O586  1  0.41117335  0.81592889  0.67165109  1
  O  O587  1  0.41251394  0.81621372  0.92257829  1
  O  O588  1  0.91204708  0.14919617  0.17252506  1
  O  O589  1  0.91541344  0.14798923  0.42279031  1
  O  O590  1  0.91252065  0.14825113  0.67261372  1
  O  O591  1  0.91291853  0.14796294  0.92227754  1
  O  O592  1  0.91039929  0.48152254  0.17326649  1
  O  O593  1  0.91238960  0.48179409  0.42213632  1
  O  O594  1  0.91184137  0.48118707  0.67138869  1
  O  O595  1  0.91291213  0.48159196  0.92309602  1
  O  O596  1  0.91056265  0.81435604  0.17381329  1
  O  O597  1  0.91354694  0.81532077  0.42256092  1
  O  O598  1  0.91161372  0.81534960  0.67235609  1
  O  O599  1  0.91285594  0.81560897  0.92281330  1
  O  O600  1  0.08520744  0.18558889  0.07726792  1
  O  O601  1  0.08918319  0.18507330  0.32812177  1
  O  O602  1  0.08893008  0.18490917  0.57632807  1
  O  O603  1  0.08594108  0.18518195  0.82776215  1
  O  O604  1  0.08550813  0.51802609  0.07785764  1
  O  O605  1  0.08841428  0.51806676  0.32667144  1
  O  O606  1  0.08681269  0.51836995  0.57657620  1
  O  O607  1  0.08513777  0.51794946  0.82835956  1
  O  O608  1  0.08882315  0.85162686  0.07736825  1
  O  O609  1  0.09003198  0.85134397  0.32776464  1
  O  O610  1  0.08972084  0.85188490  0.57696533  1
  O  O611  1  0.08744657  0.85138516  0.82790328  1
  O  O612  1  0.58666371  0.18609519  0.07750564  1
  O  O613  1  0.58692108  0.18493839  0.32716217  1
  O  O614  1  0.58666377  0.18534092  0.57661825  1
  O  O615  1  0.58666608  0.18462689  0.82718211  1
  O  O616  1  0.58716304  0.51787908  0.07812920  1
  O  O617  1  0.58863688  0.51939734  0.32651694  1
  O  O618  1  0.58745098  0.51739088  0.57773132  1
  O  O619  1  0.58746850  0.51833333  0.82796732  1
  O  O620  1  0.58663539  0.85068587  0.07770684  1
  O  O621  1  0.58591034  0.85086432  0.32733580  1
  O  O622  1  0.58519734  0.85212331  0.57742637  1
  O  O623  1  0.58559305  0.85167875  0.82690343  1
  O  O624  1  0.33843234  0.18618254  0.04830433  1
  O  O625  1  0.33984066  0.18616974  0.29791061  1
  O  O626  1  0.33787489  0.18533329  0.54719701  1
  O  O627  1  0.33766210  0.18392445  0.79652431  1
  O  O628  1  0.33771917  0.51734597  0.04812225  1
  O  O629  1  0.33715553  0.51783030  0.29704658  1
  O  O630  1  0.33720214  0.51796099  0.54705138  1
  O  O631  1  0.33664935  0.51843625  0.79788756  1
  O  O632  1  0.33647531  0.85144978  0.04822779  1
  O  O633  1  0.33784513  0.85135823  0.29799921  1
  O  O634  1  0.33708167  0.85099693  0.54735928  1
  O  O635  1  0.33725694  0.85269834  0.79856250  1
  O  O636  1  0.84001998  0.18446560  0.04738711  1
  O  O637  1  0.83604338  0.18602578  0.29773090  1
  O  O638  1  0.83623496  0.18582184  0.54687327  1
  O  O639  1  0.83895937  0.18387622  0.79753639  1
  O  O640  1  0.83981809  0.51828303  0.04790222  1
  O  O641  1  0.83597747  0.51803216  0.29645425  1
  O  O642  1  0.83725398  0.51811678  0.54617820  1
  O  O643  1  0.83949791  0.51932182  0.79832192  1
  O  O644  1  0.83923486  0.85177929  0.04734502  1
  O  O645  1  0.83533706  0.85072747  0.29744086  1
  O  O646  1  0.83746438  0.85050687  0.54618452  1
  O  O647  1  0.83993150  0.85179343  0.79784797  1
  O  O648  1  0.16244827  0.14772410  0.20282150  1
  O  O649  1  0.16446866  0.14852195  0.45191006  1
  O  O650  1  0.16318958  0.14746494  0.70253497  1
  O  O651  1  0.16101585  0.14786888  0.95190584  1
  O  O652  1  0.16348241  0.48260316  0.20259560  1
  O  O653  1  0.16315182  0.48045029  0.45126178  1
  O  O654  1  0.16133033  0.48166129  0.70287076  1
  O  O655  1  0.16312232  0.48142816  0.95220459  1
  O  O656  1  0.16153851  0.81481523  0.20356049  1
  O  O657  1  0.16394444  0.81587498  0.45194690  1
  O  O658  1  0.16107835  0.81628462  0.70389683  1
  O  O659  1  0.16113632  0.81569046  0.95265239  1
  O  O660  1  0.66205945  0.14862560  0.20228442  1
  O  O661  1  0.66203700  0.14931428  0.45299568  1
  O  O662  1  0.66489449  0.14799178  0.70255306  1
  O  O663  1  0.66520506  0.14842878  0.95177286  1
  O  O664  1  0.66240788  0.48178516  0.20137333  1
  O  O665  1  0.66239099  0.48071803  0.45243596  1
  O  O666  1  0.66214468  0.48159071  0.70237973  1
  O  O667  1  0.66479316  0.48158423  0.95288079  1
  O  O668  1  0.66171403  0.81518001  0.20198738  1
  O  O669  1  0.66325799  0.81532261  0.45159313  1
  O  O670  1  0.66507611  0.81527198  0.70248018  1
  O  O671  1  0.66454715  0.81507248  0.95243555  1
