# generated using pymatgen
data_Na2MnFe(PO4)2
_symmetry_space_group_name_H-M   'P 1'
_cell_length_a   21.08827844
_cell_length_b   18.94069917
_cell_length_c   20.04642629
_cell_angle_alpha   90.00035411
_cell_angle_beta   90.00100350
_cell_angle_gamma   89.99995379
_symmetry_Int_Tables_number   1
_chemical_formula_structural   Na2MnFe(PO4)2
_chemical_formula_sum   'Na96 Mn48 Fe48 P96 O384'
_cell_volume   8007.07866241
_cell_formula_units_Z   48
loop_
 _symmetry_equiv_pos_site_id
 _symmetry_equiv_pos_as_xyz
  1  'x, y, z'
loop_
 _atom_site_type_symbol
 _atom_site_label
 _atom_site_symmetry_multiplicity
 _atom_site_fract_x
 _atom_site_fract_y
 _atom_site_fract_z
 _atom_site_occupancy
  Na  Na0  1  0.00038786  -0.00025105  -0.00000141  1
  Na  Na1  1  0.00025820  -0.00027388  0.25047035  1
  Na  Na2  1  0.00008399  0.00009066  0.49934777  1
  Na  Na3  1  -0.00133208  -0.00107989  0.75043462  1
  Na  Na4  1  0.00159032  0.33339152  0.00036254  1
  Na  Na5  1  0.00056987  0.33363837  0.24981814  1
  Na  Na6  1  -0.00035541  0.33341251  0.49975864  1
  Na  Na7  1  0.00173966  0.33397623  0.75007392  1
  Na  Na8  1  -0.00006581  0.66711959  0.00057867  1
  Na  Na9  1  -0.00228563  0.66564782  0.25094985  1
  Na  Na10  1  -0.00121711  0.66612474  0.49887363  1
  Na  Na11  1  -0.00081800  0.66649829  0.74936751  1
  Na  Na12  1  0.50163804  0.00045523  0.00117132  1
  Na  Na13  1  0.50180712  0.00017047  0.24963595  1
  Na  Na14  1  0.50171416  0.00041936  0.49958871  1
  Na  Na15  1  0.50070189  0.00019524  0.74950559  1
  Na  Na16  1  0.49944320  0.33415439  -0.00031728  1
  Na  Na17  1  0.49885750  0.33330913  0.25051717  1
  Na  Na18  1  0.50183649  0.33450038  0.49966928  1
  Na  Na19  1  0.50084154  0.33409781  0.74970304  1
  Na  Na20  1  0.50169758  0.66764829  0.00028705  1
  Na  Na21  1  0.49991341  0.66627744  0.25123624  1
  Na  Na22  1  0.49937722  0.66610821  0.49991263  1
  Na  Na23  1  0.50097303  0.66727104  0.74892025  1
  Na  Na24  1  0.24919875  -0.00091420  0.12456297  1
  Na  Na25  1  0.24945127  -0.00059525  0.37491428  1
  Na  Na26  1  0.24894207  -0.00111800  0.62535958  1
  Na  Na27  1  0.25113989  0.00025503  0.87525583  1
  Na  Na28  1  0.25145850  0.33348143  0.12620627  1
  Na  Na29  1  0.24906351  0.33329597  0.37560935  1
  Na  Na30  1  0.24875492  0.33306627  0.62298090  1
  Na  Na31  1  0.24953823  0.33293755  0.87459608  1
  Na  Na32  1  0.24977028  0.66604763  0.12496690  1
  Na  Na33  1  0.25272822  0.66731399  0.37532601  1
  Na  Na34  1  0.25078838  0.66675133  0.62585123  1
  Na  Na35  1  0.24898541  0.66591881  0.87363623  1
  Na  Na36  1  0.74729954  -0.00078749  0.12353085  1
  Na  Na37  1  0.74896412  0.00018375  0.37583690  1
  Na  Na38  1  0.75030073  0.00018363  0.62621077  1
  Na  Na39  1  0.75041869  0.00039522  0.87476413  1
  Na  Na40  1  0.74932461  0.33412026  0.12502413  1
  Na  Na41  1  0.74934715  0.33376682  0.37541024  1
  Na  Na42  1  0.74897889  0.33372717  0.62573300  1
  Na  Na43  1  0.74845483  0.33330392  0.87435737  1
  Na  Na44  1  0.75014790  0.66673350  0.12399324  1
  Na  Na45  1  0.75175229  0.66723785  0.37616847  1
  Na  Na46  1  0.74980866  0.66575377  0.62558263  1
  Na  Na47  1  0.74918663  0.66651372  0.87446098  1
  Na  Na48  1  0.00129615  0.16656743  -0.00040189  1
  Na  Na49  1  0.00021801  0.16704309  0.24967077  1
  Na  Na50  1  -0.00134763  0.16724347  0.49986269  1
  Na  Na51  1  -0.00090979  0.16750511  0.75100063  1
  Na  Na52  1  -0.00151654  0.50043561  0.00066132  1
  Na  Na53  1  -0.00210127  0.50005454  0.25105811  1
  Na  Na54  1  0.00021608  0.49904470  0.49922246  1
  Na  Na55  1  -0.00098189  0.50046467  0.74905620  1
  Na  Na56  1  0.00185877  0.83352731  0.00047928  1
  Na  Na57  1  0.00058342  0.83374035  0.25050775  1
  Na  Na58  1  -0.00008263  0.83387521  0.49897667  1
  Na  Na59  1  0.00093331  0.83373587  0.74984834  1
  Na  Na60  1  0.49857894  0.16682995  0.00014602  1
  Na  Na61  1  0.49882401  0.16701878  0.25082660  1
  Na  Na62  1  0.49975347  0.16711929  0.49994245  1
  Na  Na63  1  0.50164497  0.16534945  0.74902044  1
  Na  Na64  1  0.49987368  0.49904318  -0.00016380  1
  Na  Na65  1  0.49910709  0.49989530  0.25019802  1
  Na  Na66  1  0.50052017  0.49957648  0.49942251  1
  Na  Na67  1  0.49952977  0.49984116  0.75014460  1
  Na  Na68  1  0.50242205  0.83346591  0.00094647  1
  Na  Na69  1  0.50253221  0.83313051  0.25064736  1
  Na  Na70  1  0.50161980  0.83285118  0.49966591  1
  Na  Na71  1  0.50139630  0.83305790  0.74911873  1
  Na  Na72  1  0.25100965  0.16701978  0.12561603  1
  Na  Na73  1  0.25201698  0.16633112  0.37493056  1
  Na  Na74  1  0.25023349  0.16658825  0.62402056  1
  Na  Na75  1  0.24965613  0.16746992  0.87469997  1
  Na  Na76  1  0.25248118  0.49860908  0.12624690  1
  Na  Na77  1  0.24988365  0.50004286  0.37621536  1
  Na  Na78  1  0.24943969  0.50034961  0.62379994  1
  Na  Na79  1  0.25254304  0.49857595  0.87404938  1
  Na  Na80  1  0.24857626  0.83392939  0.12364847  1
  Na  Na81  1  0.24874661  0.83388849  0.37513892  1
  Na  Na82  1  0.24977060  0.83308260  0.62594397  1
  Na  Na83  1  0.24816547  0.83448068  0.87499860  1
  Na  Na84  1  0.74964854  0.16618205  0.12445145  1
  Na  Na85  1  0.75051483  0.16647094  0.37580673  1
  Na  Na86  1  0.75038855  0.16670004  0.62598825  1
  Na  Na87  1  0.74896491  0.16643485  0.87468120  1
  Na  Na88  1  0.74898218  0.49981377  0.12428728  1
  Na  Na89  1  0.75055091  0.49901399  0.37564202  1
  Na  Na90  1  0.75023890  0.49957685  0.62550030  1
  Na  Na91  1  0.74952132  0.49989155  0.87471123  1
  Na  Na92  1  0.74811040  0.83405818  0.12377989  1
  Na  Na93  1  0.74870565  0.83359540  0.37610755  1
  Na  Na94  1  0.74896446  0.83361582  0.62603222  1
  Na  Na95  1  0.74948929  0.83365153  0.87430371  1
  Mn  Mn96  1  0.10836850  0.08364989  0.12274980  1
  Mn  Mn97  1  0.89168807  0.91656006  0.37681975  1
  Mn  Mn98  1  0.64196970  0.58328089  0.74755204  1
  Mn  Mn99  1  0.14228136  0.58271745  0.99753693  1
  Mn  Mn100  1  0.35801435  0.75016842  0.75257929  1
  Mn  Mn101  1  0.85716459  0.74984861  0.50305711  1
  Mn  Mn102  1  0.64200890  0.24976057  0.74775063  1
  Mn  Mn103  1  0.10777969  0.74965373  0.12318602  1
  Mn  Mn104  1  0.10890103  0.41788949  0.87284512  1
  Mn  Mn105  1  0.85744922  0.08383366  0.50306788  1
  Mn  Mn106  1  0.10833295  0.41717103  0.12336764  1
  Mn  Mn107  1  0.10784986  0.74902022  0.37269103  1
  Mn  Mn108  1  0.35839695  0.74990013  0.25181283  1
  Mn  Mn109  1  0.89124063  0.58331397  0.12781984  1
  Mn  Mn110  1  0.64154995  0.58360203  0.99735855  1
  Mn  Mn111  1  0.10700832  0.08366657  0.62293544  1
  Mn  Mn112  1  0.60801655  0.74913566  0.37285353  1
  Mn  Mn113  1  0.85715537  0.08351020  0.00212466  1
  Mn  Mn114  1  0.85755535  0.75041283  0.00174322  1
  Mn  Mn115  1  0.39299774  0.25072522  0.62706963  1
  Mn  Mn116  1  0.14189299  0.58279365  0.74712628  1
  Mn  Mn117  1  0.39329973  0.91653522  0.12702497  1
  Mn  Mn118  1  0.39274561  0.91638149  0.62659607  1
  Mn  Mn119  1  0.39267211  0.58373737  0.12715451  1
  Mn  Mn120  1  0.35735112  0.41690341  0.50238080  1
  Mn  Mn121  1  0.89184409  0.91693516  0.12725040  1
  Mn  Mn122  1  0.10819616  0.08419566  0.37265509  1
  Mn  Mn123  1  0.85790481  0.75048156  0.75234266  1
  Mn  Mn124  1  0.64060624  0.24956306  0.99763722  1
  Mn  Mn125  1  0.14188705  0.24949839  0.49730699  1
  Mn  Mn126  1  0.35806849  0.08298966  0.25218411  1
  Mn  Mn127  1  0.10833590  0.08283978  0.87252380  1
  Mn  Mn128  1  0.89285730  0.25037814  0.87778742  1
  Mn  Mn129  1  0.14260189  0.58318811  0.24835418  1
  Mn  Mn130  1  0.64262877  0.58390941  0.24820798  1
  Mn  Mn131  1  0.60790921  0.08417438  0.37275666  1
  Mn  Mn132  1  0.39185265  0.24927029  0.87673074  1
  Mn  Mn133  1  0.89221815  0.24994346  0.12713760  1
  Mn  Mn134  1  0.85799900  0.41623192  0.75228438  1
  Mn  Mn135  1  0.64170430  0.24955607  0.24731187  1
  Mn  Mn136  1  0.39243410  0.58442631  0.87725670  1
  Mn  Mn137  1  0.85722380  0.41619831  0.00177761  1
  Mn  Mn138  1  0.64239107  0.91690189  0.74812898  1
  Mn  Mn139  1  0.10749634  0.74938309  0.62216463  1
  Mn  Mn140  1  0.39237766  0.91649597  0.37735058  1
  Mn  Mn141  1  0.35809693  0.08372613  0.75181145  1
  Mn  Mn142  1  0.89182492  0.25049491  0.37686409  1
  Mn  Mn143  1  0.35805180  0.75005745  0.00196204  1
  Fe  Fe144  1  0.14320920  0.91713932  0.99752840  1
  Fe  Fe145  1  0.89242628  0.91693897  0.62679265  1
  Fe  Fe146  1  0.35729620  0.75062891  0.50159117  1
  Fe  Fe147  1  0.14244468  0.24975787  0.74776332  1
  Fe  Fe148  1  0.60732026  0.41704345  0.62291066  1
  Fe  Fe149  1  0.60709442  0.41671721  0.37322316  1
  Fe  Fe150  1  0.39303849  0.91654279  0.87656885  1
  Fe  Fe151  1  0.89205788  0.58276172  0.37727179  1
  Fe  Fe152  1  0.35744671  0.08218965  0.50156293  1
  Fe  Fe153  1  0.39279239  0.58294031  0.37755400  1
  Fe  Fe154  1  0.35806500  0.41599664  0.00171609  1
  Fe  Fe155  1  0.35782207  0.08335693  0.00153577  1
  Fe  Fe156  1  0.10638849  0.41676346  0.37301721  1
  Fe  Fe157  1  0.14380462  0.24989403  0.24834420  1
  Fe  Fe158  1  0.64290964  0.25037757  0.49860424  1
  Fe  Fe159  1  0.85665552  0.41634708  0.50205617  1
  Fe  Fe160  1  0.14414343  0.24987612  0.99902247  1
  Fe  Fe161  1  0.39247835  0.24999620  0.12668879  1
  Fe  Fe162  1  0.35716882  0.41614811  0.75036014  1
  Fe  Fe163  1  0.85719973  0.08335347  0.75190545  1
  Fe  Fe164  1  0.60656659  0.41639101  0.12370103  1
  Fe  Fe165  1  0.60741410  0.08404081  0.12310723  1
  Fe  Fe166  1  0.14250875  0.91619240  0.49894350  1
  Fe  Fe167  1  0.60732266  0.75029462  0.87302761  1
  Fe  Fe168  1  0.64222651  0.91668556  0.99702053  1
  Fe  Fe169  1  0.89359020  0.91599229  0.87700276  1
  Fe  Fe170  1  0.85672475  0.41640399  0.25201126  1
  Fe  Fe171  1  0.14259503  0.91695262  0.24827981  1
  Fe  Fe172  1  0.85692265  0.75047932  0.25129123  1
  Fe  Fe173  1  0.39280822  0.25031189  0.37714315  1
  Fe  Fe174  1  0.10677027  0.41687525  0.62323405  1
  Fe  Fe175  1  0.39315055  0.58319409  0.62584007  1
  Fe  Fe176  1  0.60810608  0.08341772  0.62253509  1
  Fe  Fe177  1  0.89228395  0.25016031  0.62706816  1
  Fe  Fe178  1  0.89266675  0.58321101  0.62614488  1
  Fe  Fe179  1  0.60866661  0.74958294  0.12343566  1
  Fe  Fe180  1  0.64269543  0.58263457  0.49835269  1
  Fe  Fe181  1  0.64305514  0.91671959  0.24862452  1
  Fe  Fe182  1  0.35783427  0.41658549  0.25260026  1
  Fe  Fe183  1  0.60719157  0.74948637  0.62248569  1
  Fe  Fe184  1  0.14267945  0.58407267  0.49814410  1
  Fe  Fe185  1  0.64286644  0.91679383  0.49884559  1
  Fe  Fe186  1  0.14258020  0.91738560  0.74810913  1
  Fe  Fe187  1  0.85677497  0.08322671  0.25088527  1
  Fe  Fe188  1  0.10722833  0.74971736  0.87376583  1
  Fe  Fe189  1  0.89276621  0.58393405  0.87641674  1
  Fe  Fe190  1  0.60657955  0.08328644  0.87343833  1
  Fe  Fe191  1  0.60633076  0.41662960  0.87322716  1
  P  P192  1  0.05556059  0.25022200  0.11040400  1
  P  P193  1  0.05392284  0.25102281  0.35919785  1
  P  P194  1  0.05289758  0.25045312  0.61103515  1
  P  P195  1  0.05610403  0.25026077  0.86070640  1
  P  P196  1  0.05291999  0.58311354  0.11033488  1
  P  P197  1  0.05299374  0.58237159  0.36132663  1
  P  P198  1  0.05243932  0.58267331  0.60885472  1
  P  P199  1  0.05223423  0.58416050  0.85982371  1
  P  P200  1  0.05533641  0.91696111  0.11036175  1
  P  P201  1  0.05536116  0.91663037  0.36060446  1
  P  P202  1  0.05328542  0.91697129  0.61038463  1
  P  P203  1  0.05460136  0.91599027  0.86061525  1
  P  P204  1  0.55158506  0.25031371  0.11039418  1
  P  P205  1  0.55350159  0.25101658  0.36134051  1
  P  P206  1  0.55440743  0.25026636  0.60929914  1
  P  P207  1  0.55270662  0.24953061  0.85977924  1
  P  P208  1  0.55372934  0.58286726  0.11050217  1
  P  P209  1  0.55348369  0.58216672  0.36145708  1
  P  P210  1  0.55307114  0.58304507  0.60932848  1
  P  P211  1  0.55319581  0.58350823  0.85975759  1
  P  P212  1  0.55650774  0.91674414  0.11109956  1
  P  P213  1  0.55549347  0.91676546  0.36056120  1
  P  P214  1  0.55457236  0.91663470  0.60941509  1
  P  P215  1  0.55330344  0.91713683  0.86097626  1
  P  P216  1  0.44689619  0.08373178  0.13883067  1
  P  P217  1  0.44598610  0.08382707  0.39050505  1
  P  P218  1  0.44721974  0.08307033  0.63831894  1
  P  P219  1  0.44700236  0.08222910  0.89031259  1
  P  P220  1  0.44561552  0.41588872  0.13963531  1
  P  P221  1  0.44623366  0.41658533  0.38911862  1
  P  P222  1  0.44745637  0.41762553  0.63981072  1
  P  P223  1  0.44565396  0.41645049  0.88879620  1
  P  P224  1  0.44917641  0.75044940  0.14013385  1
  P  P225  1  0.44606156  0.74941775  0.39064943  1
  P  P226  1  0.44650132  0.74942897  0.63827907  1
  P  P227  1  0.44834304  0.75128031  0.88994795  1
  P  P228  1  0.94625172  0.08327696  0.14069399  1
  P  P229  1  0.94513215  0.08344664  0.38887125  1
  P  P230  1  0.94555987  0.08352081  0.64075627  1
  P  P231  1  0.94574123  0.08240425  0.88906371  1
  P  P232  1  0.94585503  0.41628972  0.14100496  1
  P  P233  1  0.94491677  0.41694546  0.38962022  1
  P  P234  1  0.94608048  0.41655740  0.63835252  1
  P  P235  1  0.94723528  0.41747964  0.89011776  1
  P  P236  1  0.94587855  0.75063196  0.14105926  1
  P  P237  1  0.94461556  0.74956834  0.38881515  1
  P  P238  1  0.94632538  0.75018395  0.63950386  1
  P  P239  1  0.94771790  0.75041033  0.88980169  1
  P  P240  1  0.19702012  0.08375029  0.23517050  1
  P  P241  1  0.19761860  0.08241301  0.48520946  1
  P  P242  1  0.19669248  0.08333397  0.73486973  1
  P  P243  1  0.19822136  0.08381783  0.98522400  1
  P  P244  1  0.19701992  0.41595181  0.23701863  1
  P  P245  1  0.19390817  0.41774456  0.48558430  1
  P  P246  1  0.19700073  0.41592759  0.73352831  1
  P  P247  1  0.19874660  0.41576098  0.98548336  1
  P  P248  1  0.19715749  0.75023574  0.23496929  1
  P  P249  1  0.19752534  0.74954130  0.48548854  1
  P  P250  1  0.19505171  0.75080903  0.73625617  1
  P  P251  1  0.19609152  0.75021896  0.98412579  1
  P  P252  1  0.69700096  0.08289558  0.23449349  1
  P  P253  1  0.69540682  0.08379407  0.48671778  1
  P  P254  1  0.69578411  0.08316337  0.73581559  1
  P  P255  1  0.69411033  0.08280522  0.98493287  1
  P  P256  1  0.69583143  0.41689985  0.23580080  1
  P  P257  1  0.69537306  0.41671364  0.48605900  1
  P  P258  1  0.69455313  0.41676159  0.73546009  1
  P  P259  1  0.69401361  0.41645041  0.98505826  1
  P  P260  1  0.69768337  0.75036357  0.23480182  1
  P  P261  1  0.69501833  0.74937120  0.48690096  1
  P  P262  1  0.69469488  0.75002634  0.73532872  1
  P  P263  1  0.69473212  0.75067796  0.98474567  1
  P  P264  1  0.30377938  0.24968496  0.01538797  1
  P  P265  1  0.30497352  0.25078061  0.26484033  1
  P  P266  1  0.30473097  0.24929564  0.51362888  1
  P  P267  1  0.30215682  0.25102989  0.76385569  1
  P  P268  1  0.30353088  0.58265821  0.01490922  1
  P  P269  1  0.30469431  0.58235256  0.26607660  1
  P  P270  1  0.30408922  0.58417999  0.51458092  1
  P  P271  1  0.30486540  0.58206749  0.76298031  1
  P  P272  1  0.30409618  0.91728626  0.01350774  1
  P  P273  1  0.30240553  0.91642105  0.26465204  1
  P  P274  1  0.30227322  0.91633939  0.51495502  1
  P  P275  1  0.30317071  0.91675294  0.76553883  1
  P  P276  1  0.80232893  0.25004214  0.01499511  1
  P  P277  1  0.80274324  0.24982011  0.26483512  1
  P  P278  1  0.80266081  0.25132588  0.51581074  1
  P  P279  1  0.80466972  0.24938617  0.76424659  1
  P  P280  1  0.80417734  0.58341896  0.01349379  1
  P  P281  1  0.80365416  0.58323740  0.26587276  1
  P  P282  1  0.80357692  0.58193030  0.51465855  1
  P  P283  1  0.80521468  0.58330380  0.76449914  1
  P  P284  1  0.80300278  0.91661875  0.01337829  1
  P  P285  1  0.80175097  0.91693334  0.26462513  1
  P  P286  1  0.80251398  0.91671086  0.51602914  1
  P  P287  1  0.80545805  0.91745512  0.76473260  1
  O  O288  1  0.06010684  0.25009082  0.18712500  1
  O  O289  1  0.05653631  0.24983535  0.43606729  1
  O  O290  1  0.05805198  0.24986628  0.68769217  1
  O  O291  1  0.06094605  0.25000338  0.93744821  1
  O  O292  1  0.05644795  0.58275198  0.18709840  1
  O  O293  1  0.05816396  0.58350712  0.43791072  1
  O  O294  1  0.05620475  0.58338594  0.68558783  1
  O  O295  1  0.05603771  0.58318197  0.93651395  1
  O  O296  1  0.05971657  0.91708850  0.18716917  1
  O  O297  1  0.05987657  0.91668743  0.43740884  1
  O  O298  1  0.05832137  0.91700494  0.68704786  1
  O  O299  1  0.05955766  0.91736364  0.93734305  1
  O  O300  1  0.55496330  0.24999170  0.18712460  1
  O  O301  1  0.55869216  0.25044364  0.43789894  1
  O  O302  1  0.55685873  0.24984532  0.68610492  1
  O  O303  1  0.55483262  0.24976729  0.93653449  1
  O  O304  1  0.55629144  0.58296461  0.18728754  1
  O  O305  1  0.55851720  0.58275322  0.43804885  1
  O  O306  1  0.55632209  0.58310823  0.68602734  1
  O  O307  1  0.55567607  0.58329024  0.93653534  1
  O  O308  1  0.56030792  0.91664604  0.18796277  1
  O  O309  1  0.55976327  0.91679107  0.43727610  1
  O  O310  1  0.55705484  0.91693089  0.68623863  1
  O  O311  1  0.55744265  0.91704334  0.93767602  1
  O  O312  1  0.44185603  0.08299789  0.06219304  1
  O  O313  1  0.44314449  0.08272052  0.31365665  1
  O  O314  1  0.44166335  0.08271827  0.56174570  1
  O  O315  1  0.44359564  0.08286885  0.81351269  1
  O  O316  1  0.44114467  0.41636578  0.06286683  1
  O  O317  1  0.44195139  0.41655554  0.31242859  1
  O  O318  1  0.44354724  0.41676164  0.56312289  1
  O  O319  1  0.44093298  0.41606851  0.81216452  1
  O  O320  1  0.44477894  0.75066479  0.06348650  1
  O  O321  1  0.44336816  0.75041969  0.31384033  1
  O  O322  1  0.44130360  0.75033612  0.56167702  1
  O  O323  1  0.44444233  0.75081408  0.81320642  1
  O  O324  1  0.94292044  0.08320047  0.06388282  1
  O  O325  1  0.94037351  0.08317743  0.31219159  1
  O  O326  1  0.94320984  0.08350874  0.56384730  1
  O  O327  1  0.94150271  0.08322404  0.81238554  1
  O  O328  1  0.94254309  0.41604795  0.06424247  1
  O  O329  1  0.94005467  0.41618826  0.31296477  1
  O  O330  1  0.94146807  0.41610486  0.56170309  1
  O  O331  1  0.94410985  0.41644943  0.81332782  1
  O  O332  1  0.94279549  0.75106337  0.06426191  1
  O  O333  1  0.94020561  0.75057268  0.31211894  1
  O  O334  1  0.94352010  0.75047720  0.56270654  1
  O  O335  1  0.94422212  0.75064839  0.81311088  1
  O  O336  1  0.19475728  0.08350048  0.06187442  1
  O  O337  1  0.19432437  0.08388710  0.31192408  1
  O  O338  1  0.19355778  0.08324361  0.56186251  1
  O  O339  1  0.19417602  0.08342978  0.81163444  1
  O  O340  1  0.19504022  0.41673971  0.06214964  1
  O  O341  1  0.19171883  0.41690056  0.31360005  1
  O  O342  1  0.18953095  0.41698549  0.56232964  1
  O  O343  1  0.19402445  0.41703716  0.81030596  1
  O  O344  1  0.19326339  0.74939759  0.06091771  1
  O  O345  1  0.19413065  0.74942632  0.31176160  1
  O  O346  1  0.19394113  0.74918381  0.56221315  1
  O  O347  1  0.19067249  0.74983911  0.81292422  1
  O  O348  1  0.68997208  0.08400566  0.06171050  1
  O  O349  1  0.69354213  0.08409314  0.31126620  1
  O  O350  1  0.69201277  0.08381895  0.56352621  1
  O  O351  1  0.69062458  0.08311166  0.81245975  1
  O  O352  1  0.68970675  0.41640150  0.06186845  1
  O  O353  1  0.69092417  0.41666568  0.31251231  1
  O  O354  1  0.69099860  0.41718143  0.56279398  1
  O  O355  1  0.68968646  0.41688499  0.81217767  1
  O  O356  1  0.69107219  0.74968306  0.06155987  1
  O  O357  1  0.69407961  0.74936432  0.31156638  1
  O  O358  1  0.69135652  0.74891178  0.56368917  1
  O  O359  1  0.69029110  0.75003097  0.81211546  1
  O  O360  1  0.30949012  0.25019718  0.18809712  1
  O  O361  1  0.30892981  0.25037904  0.43688800  1
  O  O362  1  0.30619059  0.25034568  0.68718021  1
  O  O363  1  0.30682488  0.24981610  0.93861694  1
  O  O364  1  0.30769128  0.58298131  0.18925124  1
  O  O365  1  0.30898250  0.58312013  0.43789592  1
  O  O366  1  0.30927411  0.58311923  0.68626283  1
  O  O367  1  0.30651446  0.58351442  0.93807696  1
  O  O368  1  0.30666853  0.91634323  0.18796287  1
  O  O369  1  0.30593913  0.91640280  0.43830342  1
  O  O370  1  0.30738779  0.91621049  0.68884584  1
  O  O371  1  0.30926642  0.91660233  0.93689924  1
  O  O372  1  0.80562636  0.25015378  0.18811340  1
  O  O373  1  0.80635902  0.25071887  0.43911723  1
  O  O374  1  0.80880609  0.25044860  0.68749310  1
  O  O375  1  0.80602376  0.25014407  0.93822556  1
  O  O376  1  0.80564982  0.58298290  0.18898674  1
  O  O377  1  0.80831360  0.58265572  0.43799031  1
  O  O378  1  0.80969339  0.58317248  0.68771941  1
  O  O379  1  0.80881803  0.58366239  0.93674213  1
  O  O380  1  0.80488101  0.91686186  0.18792208  1
  O  O381  1  0.80631065  0.91669749  0.43932046  1
  O  O382  1  0.80939596  0.91642401  0.68797576  1
  O  O383  1  0.80860845  0.91632822  0.93678969  1
  O  O384  1  0.23385044  0.24985588  0.04046236  1
  O  O385  1  0.23465250  0.25004004  0.28862918  1
  O  O386  1  0.23457694  0.24979043  0.53751799  1
  O  O387  1  0.23221733  0.25037171  0.78852662  1
  O  O388  1  0.23403766  0.58247282  0.04054793  1
  O  O389  1  0.23497179  0.58320519  0.29110273  1
  O  O390  1  0.23364317  0.58354460  0.53804403  1
  O  O391  1  0.23480973  0.58242998  0.78712364  1
  O  O392  1  0.23358364  0.91682698  0.03673000  1
  O  O393  1  0.23230406  0.91687074  0.28891327  1
  O  O394  1  0.23223775  0.91598160  0.53980144  1
  O  O395  1  0.23292488  0.91727015  0.78937016  1
  O  O396  1  0.73256288  0.24993914  0.03971188  1
  O  O397  1  0.73315788  0.24985845  0.29045962  1
  O  O398  1  0.73255789  0.25074508  0.54018732  1
  O  O399  1  0.73461147  0.24962853  0.78832707  1
  O  O400  1  0.73413141  0.58333417  0.03742034  1
  O  O401  1  0.73411397  0.58321689  0.29171613  1
  O  O402  1  0.73317143  0.58230147  0.53827745  1
  O  O403  1  0.73498811  0.58326108  0.78798129  1
  O  O404  1  0.73252746  0.91672879  0.03636488  1
  O  O405  1  0.73186380  0.91697165  0.28999369  1
  O  O406  1  0.73238166  0.91685740  0.54025591  1
  O  O407  1  0.73528253  0.91699588  0.78861195  1
  O  O408  1  0.26660319  0.08325939  0.20961658  1
  O  O409  1  0.26763308  0.08265924  0.46057581  1
  O  O410  1  0.26623827  0.08305989  0.70921863  1
  O  O411  1  0.26818076  0.08385054  0.96020099  1
  O  O412  1  0.26742507  0.41602026  0.21353854  1
  O  O413  1  0.26422406  0.41686578  0.46218873  1
  O  O414  1  0.26686526  0.41644761  0.70832121  1
  O  O415  1  0.26873975  0.41558395  0.96065266  1
  O  O416  1  0.26672263  0.74998938  0.20937407  1
  O  O417  1  0.26749350  0.75017180  0.46070775  1
  O  O418  1  0.26516240  0.75031590  0.71226320  1
  O  O419  1  0.26578185  0.75014117  0.95882078  1
  O  O420  1  0.76695377  0.08303755  0.20962173  1
  O  O421  1  0.76524305  0.08358407  0.46191789  1
  O  O422  1  0.76624070  0.08311540  0.71261878  1
  O  O423  1  0.76416106  0.08333927  0.96094619  1
  O  O424  1  0.76627385  0.41697799  0.21242418  1
  O  O425  1  0.76576892  0.41651277  0.46235050  1
  O  O426  1  0.76481360  0.41668449  0.71216570  1
  O  O427  1  0.76405162  0.41635827  0.96095918  1
  O  O428  1  0.76762334  0.75008023  0.20991154  1
  O  O429  1  0.76490484  0.74993582  0.46230413  1
  O  O430  1  0.76486979  0.75000304  0.71176425  1
  O  O431  1  0.76465937  0.75028710  0.96025258  1
  O  O432  1  0.01604858  0.08335164  0.16534605  1
  O  O433  1  0.01522896  0.08384704  0.41282585  1
  O  O434  1  0.01511447  0.08349058  0.66638099  1
  O  O435  1  0.01580444  0.08269123  0.91330340  1
  O  O436  1  0.01567001  0.41681417  0.16576368  1
  O  O437  1  0.01537785  0.41634821  0.41293262  1
  O  O438  1  0.01637385  0.41711776  0.66249789  1
  O  O439  1  0.01688694  0.41715786  0.91537303  1
  O  O440  1  0.01555418  0.74988027  0.16613821  1
  O  O441  1  0.01469246  0.74974099  0.41290359  1
  O  O442  1  0.01590752  0.74983299  0.66489482  1
  O  O443  1  0.01759597  0.75038026  0.91486422  1
  O  O444  1  0.51724390  0.08347049  0.16263623  1
  O  O445  1  0.51580853  0.08381741  0.41516038  1
  O  O446  1  0.51772022  0.08309964  0.66147436  1
  O  O447  1  0.51697215  0.08332071  0.91498212  1
  O  O448  1  0.51597977  0.41652848  0.16346166  1
  O  O449  1  0.51647172  0.41681458  0.41319939  1
  O  O450  1  0.51768218  0.41702184  0.66382335  1
  O  O451  1  0.51608178  0.41652186  0.91239959  1
  O  O452  1  0.51927881  0.75004743  0.16447116  1
  O  O453  1  0.51587607  0.74944066  0.41541357  1
  O  O454  1  0.51699058  0.74977430  0.66159203  1
  O  O455  1  0.51837992  0.75071732  0.91438434  1
  O  O456  1  0.48174795  0.25052702  0.08518395  1
  O  O457  1  0.48314918  0.25037331  0.33774032  1
  O  O458  1  0.48473187  0.25075929  0.58399986  1
  O  O459  1  0.48331179  0.24934578  0.83362485  1
  O  O460  1  0.48428007  0.58314089  0.08457917  1
  O  O461  1  0.48315484  0.58286098  0.33784111  1
  O  O462  1  0.48298492  0.58301306  0.58461750  1
  O  O463  1  0.48371952  0.58379176  0.83400530  1
  O  O464  1  0.48643747  0.91693421  0.08684957  1
  O  O465  1  0.48540591  0.91661991  0.33657430  1
  O  O466  1  0.48491711  0.91653510  0.58401331  1
  O  O467  1  0.48329650  0.91690757  0.83616207  1
  O  O468  1  0.98543794  0.24991515  0.08650996  1
  O  O469  1  0.98422385  0.25056425  0.33421137  1
  O  O470  1  0.98251946  0.25003928  0.58737039  1
  O  O471  1  0.98584971  0.25058312  0.83731250  1
  O  O472  1  0.98315112  0.58353288  0.08565616  1
  O  O473  1  0.98257955  0.58248933  0.33794378  1
  O  O474  1  0.98222644  0.58290551  0.58467705  1
  O  O475  1  0.98228871  0.58387290  0.83498003  1
  O  O476  1  0.98518134  0.91692040  0.08659355  1
  O  O477  1  0.98513301  0.91655444  0.33704937  1
  O  O478  1  0.98282328  0.91718313  0.58693108  1
  O  O479  1  0.98417307  0.91628937  0.83721775  1
  O  O480  1  0.08912258  0.31531072  0.07735988  1
  O  O481  1  0.08798316  0.31638093  0.32742212  1
  O  O482  1  0.08609103  0.31550312  0.57782022  1
  O  O483  1  0.08971203  0.31513907  0.82734386  1
  O  O484  1  0.08707306  0.64806949  0.07793944  1
  O  O485  1  0.08620380  0.64722341  0.32750344  1
  O  O486  1  0.08632406  0.64764775  0.57577707  1
  O  O487  1  0.08598945  0.64929205  0.82736064  1
  O  O488  1  0.08894828  0.98189835  0.07699980  1
  O  O489  1  0.08878924  0.98163954  0.32732109  1
  O  O490  1  0.08680850  0.98185910  0.57697953  1
  O  O491  1  0.08798050  0.98078818  0.82663869  1
  O  O492  1  0.58559130  0.31542012  0.07808938  1
  O  O493  1  0.58643300  0.31621125  0.32799103  1
  O  O494  1  0.58879116  0.31540697  0.57729821  1
  O  O495  1  0.58712075  0.31456862  0.82771855  1
  O  O496  1  0.58828516  0.64784635  0.07842678  1
  O  O497  1  0.58698954  0.64709377  0.32796870  1
  O  O498  1  0.58713509  0.64795959  0.57658373  1
  O  O499  1  0.58760148  0.64856190  0.82769560  1
  O  O500  1  0.59007370  0.98186759  0.07813940  1
  O  O501  1  0.58904647  0.98177897  0.32740990  1
  O  O502  1  0.58894263  0.98159112  0.57707918  1
  O  O503  1  0.58672999  0.98242239  0.82806577  1
  O  O504  1  0.41373079  0.01875662  0.17251461  1
  O  O505  1  0.41192389  0.01882915  0.42334439  1
  O  O506  1  0.41411707  0.01818386  0.67205370  1
  O  O507  1  0.41355768  0.01704112  0.92305276  1
  O  O508  1  0.41243398  0.35070231  0.17274720  1
  O  O509  1  0.41295341  0.35158056  0.42244264  1
  O  O510  1  0.41339936  0.35285747  0.67304940  1
  O  O511  1  0.41245824  0.35140824  0.92237057  1
  O  O512  1  0.41523208  0.68540974  0.17267857  1
  O  O513  1  0.41185831  0.68431416  0.42271114  1
  O  O514  1  0.41356583  0.68416617  0.67143237  1
  O  O515  1  0.41445622  0.68624997  0.92272479  1
  O  O516  1  0.91211865  0.01831069  0.17334621  1
  O  O517  1  0.91189051  0.01839054  0.42229265  1
  O  O518  1  0.91115859  0.01841537  0.67275846  1
  O  O519  1  0.91237280  0.01706238  0.92180352  1
  O  O520  1  0.91200644  0.35118424  0.17372835  1
  O  O521  1  0.91136950  0.35217384  0.42339128  1
  O  O522  1  0.91307121  0.35154699  0.67211846  1
  O  O523  1  0.91303925  0.35257298  0.92292621  1
  O  O524  1  0.91106366  0.68585934  0.17318362  1
  O  O525  1  0.91112909  0.68427768  0.42152879  1
  O  O526  1  0.91200587  0.68497536  0.67136133  1
  O  O527  1  0.91367974  0.68530247  0.92216660  1
  O  O528  1  0.16257959  0.01882958  0.20300125  1
  O  O529  1  0.16374984  0.01731506  0.45289917  1
  O  O530  1  0.16226220  0.01814515  0.70299616  1
  O  O531  1  0.16416781  0.01888489  0.95236269  1
  O  O532  1  0.16395347  0.35072181  0.20380987  1
  O  O533  1  0.16000241  0.35304090  0.45218457  1
  O  O534  1  0.16287418  0.35069811  0.70147903  1
  O  O535  1  0.16480038  0.35067177  0.95323673  1
  O  O536  1  0.16297189  0.68508551  0.20270949  1
  O  O537  1  0.16399583  0.68431128  0.45252693  1
  O  O538  1  0.16148603  0.68594627  0.70267813  1
  O  O539  1  0.16170726  0.68531883  0.95144043  1
  O  O540  1  0.66293451  0.01784453  0.20240396  1
  O  O541  1  0.66164665  0.01871343  0.45406906  1
  O  O542  1  0.66247181  0.01821579  0.70233737  1
  O  O543  1  0.66081338  0.01747614  0.95210420  1
  O  O544  1  0.66238038  0.35199133  0.20227328  1
  O  O545  1  0.66194449  0.35157209  0.45291033  1
  O  O546  1  0.66109491  0.35182159  0.70217455  1
  O  O547  1  0.66016448  0.35154946  0.95196650  1
  O  O548  1  0.66364100  0.68543818  0.20180295  1
  O  O549  1  0.66191245  0.68407864  0.45364296  1
  O  O550  1  0.66110951  0.68512165  0.70204582  1
  O  O551  1  0.66066184  0.68592762  0.95155391  1
  O  O552  1  0.33795362  0.31458624  0.04807527  1
  O  O553  1  0.33814924  0.31588909  0.29819662  1
  O  O554  1  0.33811455  0.31436757  0.54696864  1
  O  O555  1  0.33569221  0.31629189  0.79634160  1
  O  O556  1  0.33758350  0.64787310  0.04734572  1
  O  O557  1  0.33953512  0.64709776  0.29835781  1
  O  O558  1  0.33730336  0.64938972  0.54757105  1
  O  O559  1  0.33844098  0.64693317  0.79661255  1
  O  O560  1  0.33697755  0.98255962  0.04682962  1
  O  O561  1  0.33633415  0.98131918  0.29751215  1
  O  O562  1  0.33593979  0.98152824  0.54769845  1
  O  O563  1  0.33729830  0.98175800  0.79800847  1
  O  O564  1  0.83627952  0.31500197  0.04762459  1
  O  O565  1  0.83674819  0.31495458  0.29742122  1
  O  O566  1  0.83633216  0.31650440  0.54849083  1
  O  O567  1  0.83813646  0.31436217  0.79758322  1
  O  O568  1  0.83749930  0.64849868  0.04668507  1
  O  O569  1  0.83804859  0.64836783  0.29779602  1
  O  O570  1  0.83715349  0.64676701  0.54825889  1
  O  O571  1  0.83860578  0.64842288  0.79770308  1
  O  O572  1  0.83599286  0.98163437  0.04703312  1
  O  O573  1  0.83569433  0.98203308  0.29718166  1
  O  O574  1  0.83658655  0.98157262  0.54879548  1
  O  O575  1  0.83883008  0.98263194  0.79749999  1
  O  O576  1  0.41367721  0.14897425  0.17171584  1
  O  O577  1  0.41181590  0.14894100  0.42245017  1
  O  O578  1  0.41426685  0.14826364  0.67181473  1
  O  O579  1  0.41235919  0.14700582  0.92287442  1
  O  O580  1  0.41191150  0.48070911  0.17305352  1
  O  O581  1  0.41270918  0.48159038  0.42232610  1
  O  O582  1  0.41383629  0.48280777  0.67223540  1
  O  O583  1  0.41241069  0.48141954  0.92228044  1
  O  O584  1  0.41569957  0.81551397  0.17316796  1
  O  O585  1  0.41194016  0.81436975  0.42347221  1
  O  O586  1  0.41335724  0.81431225  0.67220783  1
  O  O587  1  0.41485101  0.81632246  0.92279225  1
  O  O588  1  0.91198644  0.14819393  0.17319087  1
  O  O589  1  0.91154255  0.14850579  0.42197200  1
  O  O590  1  0.91109325  0.14857565  0.67280952  1
  O  O591  1  0.91223088  0.14737811  0.92244786  1
  O  O592  1  0.91128608  0.48107392  0.17348326  1
  O  O593  1  0.91171649  0.48204973  0.42296049  1
  O  O594  1  0.91250788  0.48170001  0.67119327  1
  O  O595  1  0.91310040  0.48277946  0.92183699  1
  O  O596  1  0.91203708  0.81578206  0.17372729  1
  O  O597  1  0.91110916  0.81446453  0.42230733  1
  O  O598  1  0.91242485  0.81528393  0.67205150  1
  O  O599  1  0.91386138  0.81551466  0.92262378  1
  O  O600  1  0.08930168  0.18536506  0.07702770  1
  O  O601  1  0.08862843  0.18639458  0.32654407  1
  O  O602  1  0.08617212  0.18544503  0.57736192  1
  O  O603  1  0.08922040  0.18512768  0.82714251  1
  O  O604  1  0.08667202  0.51802071  0.07748751  1
  O  O605  1  0.08608733  0.51709427  0.32819411  1
  O  O606  1  0.08640952  0.51771978  0.57644156  1
  O  O607  1  0.08623062  0.51922313  0.82678412  1
  O  O608  1  0.08901557  0.85197158  0.07737903  1
  O  O609  1  0.08890577  0.85162737  0.32745754  1
  O  O610  1  0.08654778  0.85191012  0.57689971  1
  O  O611  1  0.08772834  0.85076646  0.82769984  1
  O  O612  1  0.58549905  0.18529427  0.07774220  1
  O  O613  1  0.58680710  0.18608953  0.32763237  1
  O  O614  1  0.58856661  0.18525636  0.57684977  1
  O  O615  1  0.58714903  0.18434272  0.82792272  1
  O  O616  1  0.58760910  0.51756045  0.07833189  1
  O  O617  1  0.58647044  0.51703525  0.32814525  1
  O  O618  1  0.58702311  0.51797874  0.57664687  1
  O  O619  1  0.58723437  0.51831558  0.82749575  1
  O  O620  1  0.59006319  0.85164648  0.07809537  1
  O  O621  1  0.58934999  0.85178996  0.32761936  1
  O  O622  1  0.58884298  0.85150994  0.57731265  1
  O  O623  1  0.58726591  0.85232859  0.82791927  1
  O  O624  1  0.33778731  0.18452156  0.04784482  1
  O  O625  1  0.33892581  0.18593707  0.29791568  1
  O  O626  1  0.33800134  0.18402993  0.54630049  1
  O  O627  1  0.33627337  0.18616230  0.79682117  1
  O  O628  1  0.33797349  0.51755469  0.04668084  1
  O  O629  1  0.33844275  0.51706322  0.29848100  1
  O  O630  1  0.33775190  0.51928759  0.54809418  1
  O  O631  1  0.33809701  0.51656886  0.79533260  1
  O  O632  1  0.33734370  0.85238062  0.04730554  1
  O  O633  1  0.33593173  0.85139420  0.29763161  1
  O  O634  1  0.33623922  0.85132212  0.54766380  1
  O  O635  1  0.33675970  0.85178172  0.79881226  1
  O  O636  1  0.83641463  0.18500930  0.04740559  1
  O  O637  1  0.83681009  0.18456405  0.29695330  1
  O  O638  1  0.83693448  0.18655957  0.54871406  1
  O  O639  1  0.83803569  0.18409000  0.79685966  1
  O  O640  1  0.83747916  0.51837188  0.04670328  1
  O  O641  1  0.83804728  0.51816652  0.29810732  1
  O  O642  1  0.83686477  0.51678053  0.54774063  1
  O  O643  1  0.83877473  0.51843742  0.79778164  1
  O  O644  1  0.83598807  0.85168354  0.04717430  1
  O  O645  1  0.83552804  0.85180253  0.29733252  1
  O  O646  1  0.83629677  0.85173319  0.54893109  1
  O  O647  1  0.83914161  0.85256449  0.79820677  1
  O  O648  1  0.16333030  0.14919608  0.20297693  1
  O  O649  1  0.16381243  0.14745629  0.45216297  1
  O  O650  1  0.16258619  0.14844850  0.70247887  1
  O  O651  1  0.16434241  0.14897481  0.95285905  1
  O  O652  1  0.16399819  0.48090452  0.20307203  1
  O  O653  1  0.16101062  0.48318305  0.45264155  1
  O  O654  1  0.16233739  0.48067560  0.70083246  1
  O  O655  1  0.16508968  0.48073372  0.95208329  1
  O  O656  1  0.16300762  0.81540868  0.20304648  1
  O  O657  1  0.16311505  0.81441493  0.45327292  1
  O  O658  1  0.16190983  0.81631397  0.70361051  1
  O  O659  1  0.16174603  0.81540449  0.95221720  1
  O  O660  1  0.66276728  0.14772259  0.20139651  1
  O  O661  1  0.66203164  0.14911990  0.45381468  1
  O  O662  1  0.66241987  0.14804860  0.70224822  1
  O  O663  1  0.66007447  0.14747076  0.95154412  1
  O  O664  1  0.66247468  0.48187794  0.20250865  1
  O  O665  1  0.66203521  0.48168478  0.45245404  1
  O  O666  1  0.66128480  0.48167438  0.70181076  1
  O  O667  1  0.66044330  0.48144731  0.95184073  1
  O  O668  1  0.66372263  0.81542378  0.20253280  1
  O  O669  1  0.66125149  0.81452630  0.45440049  1
  O  O670  1  0.66110168  0.81504464  0.70240180  1
  O  O671  1  0.66111848  0.81595747  0.95211562  1
