# generated using pymatgen
data_Na2MnFe(PO4)2
_symmetry_space_group_name_H-M   'P 1'
_cell_length_a   21.08029668
_cell_length_b   18.93139521
_cell_length_c   20.03959731
_cell_angle_alpha   90.00061977
_cell_angle_beta   90.00038993
_cell_angle_gamma   89.99827280
_symmetry_Int_Tables_number   1
_chemical_formula_structural   Na2MnFe(PO4)2
_chemical_formula_sum   'Na96 Mn48 Fe48 P96 O384'
_cell_volume   7997.39101863
_cell_formula_units_Z   48
loop_
 _symmetry_equiv_pos_site_id
 _symmetry_equiv_pos_as_xyz
  1  'x, y, z'
loop_
 _atom_site_type_symbol
 _atom_site_label
 _atom_site_symmetry_multiplicity
 _atom_site_fract_x
 _atom_site_fract_y
 _atom_site_fract_z
 _atom_site_occupancy
  Na  Na0  1  -0.00143593  -0.00006506  -0.00060574  1
  Na  Na1  1  -0.00298719  -0.00037719  0.25043139  1
  Na  Na2  1  -0.00186996  0.00025320  0.50020192  1
  Na  Na3  1  -0.00092942  0.00031606  0.74979355  1
  Na  Na4  1  0.00138894  0.33336642  0.00051476  1
  Na  Na5  1  0.00153126  0.33337897  0.24915120  1
  Na  Na6  1  -0.00218538  0.33230150  0.49989243  1
  Na  Na7  1  0.00014935  0.33385528  0.75015558  1
  Na  Na8  1  0.00039274  0.66619855  0.00142376  1
  Na  Na9  1  0.00174911  0.66753987  0.24937612  1
  Na  Na10  1  -0.00004628  0.66656081  0.49982662  1
  Na  Na11  1  0.00080495  0.66680598  0.74921766  1
  Na  Na12  1  0.49577465  -0.00130343  0.00048618  1
  Na  Na13  1  0.49927305  0.00009981  0.25038005  1
  Na  Na14  1  0.50336171  0.00119626  0.49836708  1
  Na  Na15  1  0.50042990  0.00003219  0.75014059  1
  Na  Na16  1  0.50107253  0.33353859  0.00054304  1
  Na  Na17  1  0.50117228  0.33411952  0.24996239  1
  Na  Na18  1  0.50077603  0.33339984  0.50007605  1
  Na  Na19  1  0.50102276  0.33304781  0.75000928  1
  Na  Na20  1  0.49791031  0.66575848  0.00085783  1
  Na  Na21  1  0.49871792  0.66593076  0.25042340  1
  Na  Na22  1  0.50007411  0.66625546  0.49988540  1
  Na  Na23  1  0.50034076  0.66670752  0.74949816  1
  Na  Na24  1  0.25327048  0.00153373  0.12481762  1
  Na  Na25  1  0.25067099  0.00050109  0.37536656  1
  Na  Na26  1  0.24778712  -0.00074079  0.62446689  1
  Na  Na27  1  0.25019345  -0.00007642  0.87496593  1
  Na  Na28  1  0.24883723  0.33248196  0.12410455  1
  Na  Na29  1  0.25215603  0.33402342  0.37504752  1
  Na  Na30  1  0.25147192  0.33397081  0.62568518  1
  Na  Na31  1  0.24871552  0.33306242  0.87494405  1
  Na  Na32  1  0.24915326  0.66653936  0.12454097  1
  Na  Na33  1  0.24797122  0.66604064  0.37474778  1
  Na  Na34  1  0.24759905  0.66656621  0.62529217  1
  Na  Na35  1  0.24930925  0.66707089  0.87604685  1
  Na  Na36  1  0.75184441  0.00061980  0.12569030  1
  Na  Na37  1  0.75049880  0.00004889  0.37437535  1
  Na  Na38  1  0.75035448  0.00033118  0.62517882  1
  Na  Na39  1  0.75119173  0.00077754  0.87486387  1
  Na  Na40  1  0.74788170  0.33297633  0.12619046  1
  Na  Na41  1  0.74959444  0.33386133  0.37445225  1
  Na  Na42  1  0.74881804  0.33281484  0.62513163  1
  Na  Na43  1  0.74921551  0.33323524  0.87493787  1
  Na  Na44  1  0.75165835  0.66669131  0.12343186  1
  Na  Na45  1  0.75133142  0.66685838  0.37526002  1
  Na  Na46  1  0.75188345  0.66673448  0.62536713  1
  Na  Na47  1  0.75094518  0.66594137  0.87501525  1
  Na  Na48  1  0.00023034  0.16686157  0.00000563  1
  Na  Na49  1  -0.00066619  0.16725449  0.24988601  1
  Na  Na50  1  -0.00157705  0.16657055  0.49930707  1
  Na  Na51  1  -0.00089985  0.16714093  0.75024860  1
  Na  Na52  1  -0.00010008  0.50012764  0.00132749  1
  Na  Na53  1  0.00208573  0.49846714  0.24936740  1
  Na  Na54  1  -0.00224031  0.50066394  0.50065119  1
  Na  Na55  1  -0.00066438  0.49951142  0.74936628  1
  Na  Na56  1  0.00029265  0.83290780  0.00005755  1
  Na  Na57  1  -0.00023940  0.83263423  0.24976475  1
  Na  Na58  1  -0.00006268  0.83308617  0.50011311  1
  Na  Na59  1  0.00169014  0.83224676  0.74943918  1
  Na  Na60  1  0.49995879  0.16712944  0.00082866  1
  Na  Na61  1  0.49986282  0.16694784  0.24889793  1
  Na  Na62  1  0.50172518  0.16665409  0.49995951  1
  Na  Na63  1  0.50106627  0.16665804  0.75098979  1
  Na  Na64  1  0.49784242  0.50119519  0.00061597  1
  Na  Na65  1  0.50117910  0.49929355  0.25036179  1
  Na  Na66  1  0.50138937  0.49943696  0.49945420  1
  Na  Na67  1  0.50162950  0.49953968  0.74917457  1
  Na  Na68  1  0.49703938  0.83375581  0.00031308  1
  Na  Na69  1  0.49779938  0.83404697  0.25149366  1
  Na  Na70  1  0.50145715  0.83287721  0.49876507  1
  Na  Na71  1  0.49909642  0.83386512  0.74964534  1
  Na  Na72  1  0.25058168  0.16732765  0.12465546  1
  Na  Na73  1  0.25052128  0.16711853  0.37631157  1
  Na  Na74  1  0.24944388  0.16710452  0.62380160  1
  Na  Na75  1  0.25180455  0.16604336  0.87446003  1
  Na  Na76  1  0.24984566  0.49983288  0.12397800  1
  Na  Na77  1  0.25060889  0.49980077  0.37405975  1
  Na  Na78  1  0.24988363  0.49990624  0.62609088  1
  Na  Na79  1  0.24891566  0.50022008  0.87602471  1
  Na  Na80  1  0.25023211  0.83303974  0.12489766  1
  Na  Na81  1  0.24950673  0.83279308  0.37486304  1
  Na  Na82  1  0.24768664  0.83310087  0.62548265  1
  Na  Na83  1  0.24788950  0.83350585  0.87534437  1
  Na  Na84  1  0.75058879  0.16650049  0.12554214  1
  Na  Na85  1  0.74996948  0.16682286  0.37509882  1
  Na  Na86  1  0.75087505  0.16596848  0.62454396  1
  Na  Na87  1  0.74842020  0.16793145  0.87504915  1
  Na  Na88  1  0.74905851  0.50014192  0.12469365  1
  Na  Na89  1  0.74920803  0.50003215  0.37534805  1
  Na  Na90  1  0.75053478  0.49971697  0.62506086  1
  Na  Na91  1  0.75080064  0.49955196  0.87559838  1
  Na  Na92  1  0.75269426  0.83221969  0.12487941  1
  Na  Na93  1  0.75153531  0.83328518  0.37386217  1
  Na  Na94  1  0.75087383  0.83343711  0.62587429  1
  Na  Na95  1  0.75138482  0.83332282  0.87435675  1
  Mn  Mn96  1  0.39232471  0.25056281  0.12766099  1
  Mn  Mn97  1  0.60865109  0.75034160  0.62239106  1
  Mn  Mn98  1  0.60779700  0.41734394  0.87345387  1
  Mn  Mn99  1  0.64196680  0.91673170  0.99825970  1
  Mn  Mn100  1  0.60742528  0.74993203  0.12295114  1
  Mn  Mn101  1  0.64233733  0.58348427  0.99764686  1
  Mn  Mn102  1  0.14192903  0.58273924  0.99728869  1
  Mn  Mn103  1  0.89174806  0.25057754  0.37643635  1
  Mn  Mn104  1  0.39268230  0.91690635  0.62661690  1
  Mn  Mn105  1  0.89250365  0.58294400  0.37615266  1
  Mn  Mn106  1  0.14256519  0.91753523  0.24720092  1
  Mn  Mn107  1  0.14140685  0.58230817  0.49791101  1
  Mn  Mn108  1  0.60877036  0.74974549  0.37217085  1
  Mn  Mn109  1  0.85852848  0.75003534  0.75274195  1
  Mn  Mn110  1  0.39209043  0.58257744  0.37713737  1
  Mn  Mn111  1  0.35699996  0.74957959  0.50230034  1
  Mn  Mn112  1  0.10724413  0.41591482  0.62220028  1
  Mn  Mn113  1  0.64190598  0.91675870  0.74787915  1
  Mn  Mn114  1  0.60750977  0.75010820  0.87366792  1
  Mn  Mn115  1  0.10842668  0.41669793  0.37301989  1
  Mn  Mn116  1  0.14213568  0.24967393  0.74740465  1
  Mn  Mn117  1  0.64335911  0.58441741  0.49796863  1
  Mn  Mn118  1  0.39226113  0.58352183  0.62764203  1
  Mn  Mn119  1  0.35655508  0.75005193  0.75197733  1
  Mn  Mn120  1  0.14218070  0.25064863  0.49798835  1
  Mn  Mn121  1  0.14212316  0.91788471  0.99823317  1
  Mn  Mn122  1  0.35861475  0.08327688  0.50271031  1
  Mn  Mn123  1  0.14093982  0.91689973  0.49764313  1
  Mn  Mn124  1  0.35734312  0.75036321  0.00234114  1
  Mn  Mn125  1  0.60705868  0.08251175  0.87356076  1
  Mn  Mn126  1  0.39269930  0.91732365  0.37780743  1
  Mn  Mn127  1  0.35797949  0.41729257  0.75259618  1
  Mn  Mn128  1  0.89284042  0.58287203  0.12800756  1
  Mn  Mn129  1  0.64285536  0.24945600  0.49722072  1
  Mn  Mn130  1  0.35795584  0.08284696  0.75115810  1
  Mn  Mn131  1  0.39345019  0.24944482  0.62723120  1
  Mn  Mn132  1  0.64288714  0.91577703  0.24675624  1
  Mn  Mn133  1  0.85728477  0.41682311  0.25188485  1
  Mn  Mn134  1  0.85732068  0.41602346  0.75247597  1
  Mn  Mn135  1  0.60719352  0.08294614  0.12268566  1
  Mn  Mn136  1  0.85803363  0.08393373  0.00252226  1
  Mn  Mn137  1  0.89191122  0.25109089  0.87776979  1
  Mn  Mn138  1  0.35736984  0.41611715  0.00199799  1
  Mn  Mn139  1  0.10787126  0.08308612  0.12348276  1
  Mn  Mn140  1  0.10731031  0.08317408  0.37227558  1
  Mn  Mn141  1  0.10819251  0.08325267  0.87212114  1
  Mn  Mn142  1  0.89270303  0.91575301  0.87728967  1
  Mn  Mn143  1  0.89180302  0.91633656  0.37757186  1
  Fe  Fe144  1  0.10663123  0.41730289  0.87346608  1
  Fe  Fe145  1  0.60695658  0.41739743  0.12346197  1
  Fe  Fe146  1  0.39198582  0.58333462  0.87581348  1
  Fe  Fe147  1  0.14348951  0.25015951  0.24859421  1
  Fe  Fe148  1  0.60759725  0.41631720  0.37316555  1
  Fe  Fe149  1  0.10708270  0.75044043  0.12371647  1
  Fe  Fe150  1  0.10574383  0.08349000  0.62345139  1
  Fe  Fe151  1  0.89298799  0.58300133  0.87613691  1
  Fe  Fe152  1  0.64312156  0.24999192  0.99893615  1
  Fe  Fe153  1  0.14328603  0.58250851  0.24821089  1
  Fe  Fe154  1  0.64237656  0.25027586  0.24813286  1
  Fe  Fe155  1  0.10693059  0.74915923  0.87343207  1
  Fe  Fe156  1  0.89248851  0.91701180  0.62682809  1
  Fe  Fe157  1  0.39226256  0.58349810  0.12756916  1
  Fe  Fe158  1  0.85697150  0.41663854  0.50182307  1
  Fe  Fe159  1  0.35761411  0.08411982  0.25246801  1
  Fe  Fe160  1  0.89187324  0.24987550  0.62695466  1
  Fe  Fe161  1  0.35739820  0.41649508  0.25134219  1
  Fe  Fe162  1  0.39172700  0.91581499  0.12777307  1
  Fe  Fe163  1  0.10807091  0.41604354  0.12340437  1
  Fe  Fe164  1  0.85681785  0.08341086  0.50223204  1
  Fe  Fe165  1  0.64270317  0.58318427  0.74853780  1
  Fe  Fe166  1  0.64248491  0.58375944  0.24812867  1
  Fe  Fe167  1  0.35745661  0.08390160  0.00127092  1
  Fe  Fe168  1  0.39341562  0.25016299  0.37596544  1
  Fe  Fe169  1  0.14267435  0.24929722  0.99817769  1
  Fe  Fe170  1  0.85830193  0.75008167  0.50173313  1
  Fe  Fe171  1  0.35855016  0.41703556  0.50174394  1
  Fe  Fe172  1  0.85691412  0.08389020  0.75125010  1
  Fe  Fe173  1  0.39306553  0.25023115  0.87672499  1
  Fe  Fe174  1  0.64413117  0.91632614  0.49885388  1
  Fe  Fe175  1  0.35627767  0.74968066  0.25178211  1
  Fe  Fe176  1  0.85699271  0.08364174  0.25151119  1
  Fe  Fe177  1  0.85807167  0.74950663  0.25150164  1
  Fe  Fe178  1  0.60886950  0.08334271  0.62324072  1
  Fe  Fe179  1  0.64235513  0.25015409  0.74841008  1
  Fe  Fe180  1  0.39094989  0.91649270  0.87623906  1
  Fe  Fe181  1  0.89256643  0.91709348  0.12618439  1
  Fe  Fe182  1  0.10604707  0.75032198  0.62309720  1
  Fe  Fe183  1  0.85772041  0.41629117  0.00230995  1
  Fe  Fe184  1  0.60817582  0.08404714  0.37258412  1
  Fe  Fe185  1  0.89296448  0.24991845  0.12670433  1
  Fe  Fe186  1  0.14163280  0.58345558  0.74874413  1
  Fe  Fe187  1  0.14183687  0.91684441  0.74789061  1
  Fe  Fe188  1  0.60788721  0.41664752  0.62305055  1
  Fe  Fe189  1  0.10695175  0.75000894  0.37283776  1
  Fe  Fe190  1  0.89261280  0.58318985  0.62718895  1
  Fe  Fe191  1  0.85856909  0.74962494  0.00168718  1
  P  P192  1  0.05470818  0.25003814  0.11078007  1
  P  P193  1  0.05389214  0.25018977  0.35900541  1
  P  P194  1  0.05145477  0.24905996  0.60991232  1
  P  P195  1  0.05433732  0.25089936  0.86108360  1
  P  P196  1  0.05560220  0.58298710  0.11182164  1
  P  P197  1  0.05405165  0.58366219  0.35901295  1
  P  P198  1  0.05279238  0.58356299  0.61120148  1
  P  P199  1  0.05233326  0.58290290  0.85979481  1
  P  P200  1  0.05192139  0.91676530  0.11028458  1
  P  P201  1  0.05287311  0.91599799  0.35959910  1
  P  P202  1  0.05263714  0.91731088  0.61127692  1
  P  P203  1  0.05391929  0.91588783  0.85940651  1
  P  P204  1  0.55526175  0.25104540  0.11080957  1
  P  P205  1  0.55360116  0.25009125  0.35933634  1
  P  P206  1  0.55577274  0.24989617  0.61110381  1
  P  P207  1  0.55419784  0.24997179  0.86122682  1
  P  P208  1  0.55315886  0.58296537  0.11139312  1
  P  P209  1  0.55447390  0.58261191  0.35951803  1
  P  P210  1  0.55493842  0.58265660  0.61072177  1
  P  P211  1  0.55234506  0.58361109  0.85963048  1
  P  P212  1  0.55125133  0.91623323  0.11024647  1
  P  P213  1  0.55584686  0.91750766  0.36098059  1
  P  P214  1  0.55455995  0.91753496  0.60869663  1
  P  P215  1  0.55114590  0.91639868  0.86043250  1
  P  P216  1  0.44433351  0.08289211  0.13958963  1
  P  P217  1  0.44713476  0.08491175  0.38871440  1
  P  P218  1  0.44936303  0.08317034  0.63996204  1
  P  P219  1  0.44545583  0.08357707  0.89043389  1
  P  P220  1  0.44680225  0.41731136  0.14060727  1
  P  P221  1  0.44642015  0.41559284  0.38899063  1
  P  P222  1  0.44733281  0.41656381  0.63909173  1
  P  P223  1  0.44664918  0.41674943  0.88995702  1
  P  P224  1  0.44540997  0.74974612  0.14117052  1
  P  P225  1  0.44562277  0.74949341  0.38909258  1
  P  P226  1  0.44688788  0.75024557  0.63993537  1
  P  P227  1  0.44581958  0.74961375  0.88978430  1
  P  P228  1  0.94588342  0.08399405  0.14051760  1
  P  P229  1  0.94423427  0.08371554  0.38954263  1
  P  P230  1  0.94495102  0.08363135  0.63926875  1
  P  P231  1  0.94567211  0.08379813  0.88879029  1
  P  P232  1  0.94704286  0.41532861  0.13895599  1
  P  P233  1  0.94626712  0.41667362  0.39036311  1
  P  P234  1  0.94473749  0.41616366  0.63883556  1
  P  P235  1  0.94701501  0.41748814  0.89092173  1
  P  P236  1  0.94623717  0.75051535  0.13941546  1
  P  P237  1  0.94619425  0.74942063  0.38936225  1
  P  P238  1  0.94594099  0.75015856  0.63864799  1
  P  P239  1  0.94775841  0.74860163  0.89049389  1
  P  P240  1  0.19850282  0.08447994  0.23527503  1
  P  P241  1  0.19518967  0.08361297  0.48597108  1
  P  P242  1  0.19591203  0.08267533  0.73364440  1
  P  P243  1  0.19779099  0.08421229  0.98507290  1
  P  P244  1  0.19758600  0.41620192  0.23445131  1
  P  P245  1  0.19855883  0.41656207  0.48484758  1
  P  P246  1  0.19496688  0.41766007  0.73628334  1
  P  P247  1  0.19442064  0.41551202  0.98543601  1
  P  P248  1  0.19568427  0.74942281  0.23551952  1
  P  P249  1  0.19376731  0.74973348  0.48530226  1
  P  P250  1  0.19337968  0.74961459  0.73599633  1
  P  P251  1  0.19423116  0.75035287  0.98583892  1
  P  P252  1  0.69642349  0.08403279  0.23596172  1
  P  P253  1  0.69661073  0.08228589  0.48541059  1
  P  P254  1  0.69685518  0.08406002  0.73482822  1
  P  P255  1  0.69673292  0.08405240  0.98540350  1
  P  P256  1  0.69425769  0.41712268  0.23574630  1
  P  P257  1  0.69630189  0.41669599  0.48558837  1
  P  P258  1  0.69559601  0.41688152  0.73495032  1
  P  P259  1  0.69682357  0.41603941  0.98664173  1
  P  P260  1  0.69857813  0.74882862  0.23433400  1
  P  P261  1  0.69907293  0.75106291  0.48501153  1
  P  P262  1  0.69688295  0.74906711  0.73550053  1
  P  P263  1  0.69860260  0.75015282  0.98494358  1
  P  P264  1  0.30367237  0.24961566  0.01358864  1
  P  P265  1  0.30330101  0.25051435  0.26538938  1
  P  P266  1  0.30543237  0.25114861  0.51396763  1
  P  P267  1  0.30433403  0.24997901  0.76542697  1
  P  P268  1  0.30506346  0.58326001  0.01455711  1
  P  P269  1  0.30341287  0.58311550  0.26335456  1
  P  P270  1  0.30310144  0.58248255  0.51528347  1
  P  P271  1  0.30164017  0.58375008  0.76592737  1
  P  P272  1  0.30488550  0.91744069  0.01455163  1
  P  P273  1  0.30457053  0.91654964  0.26426941  1
  P  P274  1  0.30269660  0.91638101  0.51535194  1
  P  P275  1  0.30171158  0.91644650  0.76496905  1
  P  P276  1  0.80301501  0.25128873  0.01608392  1
  P  P277  1  0.80298752  0.24989406  0.26360913  1
  P  P278  1  0.80394938  0.25021784  0.51512198  1
  P  P279  1  0.80292168  0.24925983  0.76392042  1
  P  P280  1  0.80563556  0.58273837  0.01360537  1
  P  P281  1  0.80213135  0.58350648  0.26470468  1
  P  P282  1  0.80481914  0.58329009  0.51530802  1
  P  P283  1  0.80407992  0.58287210  0.76478733  1
  P  P284  1  0.80421791  0.91596912  0.01550993  1
  P  P285  1  0.80537877  0.91655571  0.26335094  1
  P  P286  1  0.80345539  0.91669338  0.51549573  1
  P  P287  1  0.80471398  0.91787935  0.76389562  1
  O  O288  1  0.05978401  0.24960211  0.18746524  1
  O  O289  1  0.05680660  0.25010413  0.43580899  1
  O  O290  1  0.05562224  0.24991805  0.68661188  1
  O  O291  1  0.05854166  0.24951745  0.93784685  1
  O  O292  1  0.05984141  0.58265639  0.18854983  1
  O  O293  1  0.05600892  0.58261297  0.43587865  1
  O  O294  1  0.05738363  0.58274405  0.68784043  1
  O  O295  1  0.05567514  0.58291665  0.93666081  1
  O  O296  1  0.05580210  0.91747838  0.18697950  1
  O  O297  1  0.05549315  0.91699390  0.43641834  1
  O  O298  1  0.05714102  0.91732234  0.68793576  1
  O  O299  1  0.05661281  0.91727976  0.93624175  1
  O  O300  1  0.55919140  0.24997807  0.18758415  1
  O  O301  1  0.55715026  0.24989819  0.43611792  1
  O  O302  1  0.55918724  0.24974842  0.68794315  1
  O  O303  1  0.55898060  0.25017104  0.93793760  1
  O  O304  1  0.55830879  0.58383309  0.18799002  1
  O  O305  1  0.55793072  0.58366638  0.43631616  1
  O  O306  1  0.55910742  0.58344568  0.68747756  1
  O  O307  1  0.55615491  0.58351969  0.93644211  1
  O  O308  1  0.55594554  0.91632087  0.18694274  1
  O  O309  1  0.56071798  0.91648020  0.43766293  1
  O  O310  1  0.55690721  0.91669151  0.68559676  1
  O  O311  1  0.55524064  0.91637561  0.93710985  1
  O  O312  1  0.44041598  0.08408630  0.06281598  1
  O  O313  1  0.44179208  0.08417251  0.31203957  1
  O  O314  1  0.44544099  0.08324668  0.56322374  1
  O  O315  1  0.44338943  0.08356047  0.81360407  1
  O  O316  1  0.44290191  0.41641668  0.06391537  1
  O  O317  1  0.44130765  0.41655881  0.31232843  1
  O  O318  1  0.44273618  0.41694654  0.56237624  1
  O  O319  1  0.44429776  0.41651535  0.81313846  1
  O  O320  1  0.44268453  0.74970291  0.06433635  1
  O  O321  1  0.44041448  0.74940264  0.31241351  1
  O  O322  1  0.44344346  0.74996126  0.56315408  1
  O  O323  1  0.44318829  0.74975150  0.81303248  1
  O  O324  1  0.94347685  0.08411936  0.06365840  1
  O  O325  1  0.93979402  0.08398161  0.31276149  1
  O  O326  1  0.94063908  0.08349598  0.56248533  1
  O  O327  1  0.94112046  0.08429654  0.81206341  1
  O  O328  1  0.94215250  0.41590616  0.06233916  1
  O  O329  1  0.94323535  0.41651057  0.31351859  1
  O  O330  1  0.94074505  0.41616578  0.56209821  1
  O  O331  1  0.94303429  0.41637426  0.81416114  1
  O  O332  1  0.94186645  0.74962667  0.06270155  1
  O  O333  1  0.94136717  0.74935088  0.31261954  1
  O  O334  1  0.94177703  0.75019749  0.56190445  1
  O  O335  1  0.94430113  0.74936539  0.81370644  1
  O  O336  1  0.19401244  0.08367162  0.06176263  1
  O  O337  1  0.19434008  0.08358182  0.31193250  1
  O  O338  1  0.18980949  0.08350325  0.56265474  1
  O  O339  1  0.19340048  0.08346210  0.81049903  1
  O  O340  1  0.19072290  0.41628804  0.06224405  1
  O  O341  1  0.19437236  0.41651489  0.31116436  1
  O  O342  1  0.19401962  0.41629822  0.56156436  1
  O  O343  1  0.19057873  0.41728240  0.81302222  1
  O  O344  1  0.19001346  0.75044223  0.06263142  1
  O  O345  1  0.19117709  0.75014236  0.31225589  1
  O  O346  1  0.18905232  0.75002799  0.56214554  1
  O  O347  1  0.19001444  0.74936655  0.81288094  1
  O  O348  1  0.69354196  0.08293014  0.06217952  1
  O  O349  1  0.69201126  0.08377467  0.31271457  1
  O  O350  1  0.69228135  0.08326298  0.56211660  1
  O  O351  1  0.69305584  0.08349717  0.81155584  1
  O  O352  1  0.69175350  0.41720675  0.06326748  1
  O  O353  1  0.69077383  0.41684135  0.31262022  1
  O  O354  1  0.69173275  0.41654143  0.56228189  1
  O  O355  1  0.69295709  0.41698954  0.81182231  1
  O  O356  1  0.69422401  0.75005064  0.06161961  1
  O  O357  1  0.69479205  0.74959233  0.31106396  1
  O  O358  1  0.69517770  0.75035833  0.56169317  1
  O  O359  1  0.69361084  0.74956600  0.81227302  1
  O  O360  1  0.30641755  0.25046780  0.18859883  1
  O  O361  1  0.30969220  0.25025824  0.43724069  1
  O  O362  1  0.30772556  0.25020164  0.68859167  1
  O  O363  1  0.30860429  0.25054779  0.93697228  1
  O  O364  1  0.30772398  0.58324022  0.18663114  1
  O  O365  1  0.30623559  0.58319678  0.43844477  1
  O  O366  1  0.30587205  0.58363565  0.68920710  1
  O  O367  1  0.30926997  0.58327397  0.93781624  1
  O  O368  1  0.30796909  0.91640354  0.18740345  1
  O  O369  1  0.30662151  0.91660585  0.43854815  1
  O  O370  1  0.30601256  0.91633640  0.68829976  1
  O  O371  1  0.30831022  0.91616603  0.93769665  1
  O  O372  1  0.80802761  0.25044559  0.18701861  1
  O  O373  1  0.80632726  0.25052339  0.43829709  1
  O  O374  1  0.80775718  0.24984379  0.68728310  1
  O  O375  1  0.80631332  0.25104681  0.93926784  1
  O  O376  1  0.80615430  0.58278275  0.18796988  1
  O  O377  1  0.80722327  0.58322688  0.43850184  1
  O  O378  1  0.80911483  0.58309150  0.68808979  1
  O  O379  1  0.80968050  0.58268261  0.93684119  1
  O  O380  1  0.80940283  0.91659221  0.18659933  1
  O  O381  1  0.80637098  0.91651805  0.43868591  1
  O  O382  1  0.80893568  0.91696239  0.68714639  1
  O  O383  1  0.80704013  0.91670223  0.93866099  1
  O  O384  1  0.23337533  0.24984766  0.03743576  1
  O  O385  1  0.23328992  0.25060868  0.29030500  1
  O  O386  1  0.23543791  0.25076610  0.53844825  1
  O  O387  1  0.23442423  0.24972642  0.78986321  1
  O  O388  1  0.23474437  0.58300736  0.03804648  1
  O  O389  1  0.23311724  0.58271501  0.28750476  1
  O  O390  1  0.23342395  0.58270763  0.54045571  1
  O  O391  1  0.23150457  0.58381488  0.79017704  1
  O  O392  1  0.23493118  0.91715526  0.03923948  1
  O  O393  1  0.23469085  0.91674837  0.28913536  1
  O  O394  1  0.23281197  0.91634047  0.53968587  1
  O  O395  1  0.23149849  0.91657357  0.78905692  1
  O  O396  1  0.73300417  0.25013041  0.04073073  1
  O  O397  1  0.73268398  0.25058504  0.28757160  1
  O  O398  1  0.73423816  0.24961672  0.54031556  1
  O  O399  1  0.73257992  0.25030267  0.78771909  1
  O  O400  1  0.73558589  0.58300709  0.03788649  1
  O  O401  1  0.73225603  0.58333395  0.28952361  1
  O  O402  1  0.73515198  0.58339548  0.54072972  1
  O  O403  1  0.73368145  0.58264317  0.78826757  1
  O  O404  1  0.73461543  0.91661410  0.04105870  1
  O  O405  1  0.73544868  0.91666417  0.28784629  1
  O  O406  1  0.73355128  0.91681171  0.54062200  1
  O  O407  1  0.73473772  0.91733102  0.78834688  1
  O  O408  1  0.26862087  0.08440885  0.21096766  1
  O  O409  1  0.26547749  0.08360007  0.46265837  1
  O  O410  1  0.26558104  0.08323531  0.70825462  1
  O  O411  1  0.26774074  0.08351317  0.96033530  1
  O  O412  1  0.26765204  0.41614746  0.20951004  1
  O  O413  1  0.26853971  0.41691526  0.46042586  1
  O  O414  1  0.26507690  0.41697682  0.71227006  1
  O  O415  1  0.26446301  0.41647419  0.96132072  1
  O  O416  1  0.26605595  0.74981630  0.21169521  1
  O  O417  1  0.26390825  0.74958491  0.46160376  1
  O  O418  1  0.26330975  0.74982961  0.71123091  1
  O  O419  1  0.26435235  0.75027976  0.96207458  1
  O  O420  1  0.76676765  0.08349336  0.21214908  1
  O  O421  1  0.76704531  0.08343012  0.46178669  1
  O  O422  1  0.76691976  0.08339866  0.71025991  1
  O  O423  1  0.76638324  0.08437624  0.96019141  1
  O  O424  1  0.76427311  0.41694994  0.21126554  1
  O  O425  1  0.76672338  0.41682109  0.46198603  1
  O  O426  1  0.76532977  0.41643542  0.70987205  1
  O  O427  1  0.76707890  0.41627943  0.96262769  1
  O  O428  1  0.76869159  0.74917689  0.20993855  1
  O  O429  1  0.76919923  0.75038215  0.46055937  1
  O  O430  1  0.76669206  0.74967176  0.71065151  1
  O  O431  1  0.76874811  0.74967676  0.96065279  1
  O  O432  1  0.01549724  0.08376325  0.16610922  1
  O  O433  1  0.01437155  0.08354171  0.41324819  1
  O  O434  1  0.01525474  0.08374266  0.66334987  1
  O  O435  1  0.01572099  0.08328317  0.91289065  1
  O  O436  1  0.01746687  0.41575753  0.16252517  1
  O  O437  1  0.01595099  0.41656607  0.41554732  1
  O  O438  1  0.01467098  0.41627233  0.66334415  1
  O  O439  1  0.01715760  0.41707908  0.91514418  1
  O  O440  1  0.01671156  0.74994752  0.16302819  1
  O  O441  1  0.01650602  0.74966920  0.41296053  1
  O  O442  1  0.01621564  0.75002058  0.66273348  1
  O  O443  1  0.01781050  0.74917435  0.91510344  1
  O  O444  1  0.51447332  0.08341724  0.16366782  1
  O  O445  1  0.51766626  0.08445469  0.41188492  1
  O  O446  1  0.51926463  0.08328837  0.66472238  1
  O  O447  1  0.51494900  0.08302499  0.91649997  1
  O  O448  1  0.51698482  0.41688915  0.16470332  1
  O  O449  1  0.51698194  0.41622948  0.41233127  1
  O  O450  1  0.51759647  0.41624975  0.66295008  1
  O  O451  1  0.51611300  0.41728543  0.91593595  1
  O  O452  1  0.51510424  0.74999691  0.16656345  1
  O  O453  1  0.51594774  0.74939250  0.41243508  1
  O  O454  1  0.51665726  0.75045355  0.66473605  1
  O  O455  1  0.51522209  0.74968249  0.91607740  1
  O  O456  1  0.48507975  0.25056489  0.08694435  1
  O  O457  1  0.48357864  0.25029246  0.33456917  1
  O  O458  1  0.48603617  0.25001450  0.58603884  1
  O  O459  1  0.48381410  0.24985931  0.83752479  1
  O  O460  1  0.48267580  0.58318429  0.08809034  1
  O  O461  1  0.48451492  0.58266001  0.33515584  1
  O  O462  1  0.48501954  0.58293914  0.58615977  1
  O  O463  1  0.48225483  0.58314460  0.83509003  1
  O  O464  1  0.48095646  0.91605973  0.08669345  1
  O  O465  1  0.48558315  0.91751584  0.33750819  1
  O  O466  1  0.48507354  0.91691090  0.58286004  1
  O  O467  1  0.48104429  0.91689764  0.83594768  1
  O  O468  1  0.98421164  0.24968320  0.08733771  1
  O  O469  1  0.98410085  0.25047421  0.33415373  1
  O  O470  1  0.98133426  0.24930129  0.58566667  1
  O  O471  1  0.98431271  0.25097903  0.83680652  1
  O  O472  1  0.98548820  0.58317698  0.08780326  1
  O  O473  1  0.98460358  0.58293666  0.33300607  1
  O  O474  1  0.98249604  0.58356001  0.58725873  1
  O  O475  1  0.98234978  0.58299539  0.83485190  1
  O  O476  1  0.98192589  0.91684127  0.08553763  1
  O  O477  1  0.98321555  0.91592307  0.33449912  1
  O  O478  1  0.98237668  0.91705272  0.58702347  1
  O  O479  1  0.98421059  0.91616124  0.83417398  1
  O  O480  1  0.08808310  0.31507901  0.07749264  1
  O  O481  1  0.08831320  0.31513832  0.32664516  1
  O  O482  1  0.08527319  0.31409684  0.57678552  1
  O  O483  1  0.08777599  0.31631338  0.82861335  1
  O  O484  1  0.08895672  0.64818924  0.07886028  1
  O  O485  1  0.08822175  0.64907233  0.32738990  1
  O  O486  1  0.08616043  0.64869370  0.57825636  1
  O  O487  1  0.08643713  0.64791626  0.82729150  1
  O  O488  1  0.08562125  0.98190940  0.07732815  1
  O  O489  1  0.08688470  0.98104686  0.32687699  1
  O  O490  1  0.08567996  0.98253997  0.57791956  1
  O  O491  1  0.08840357  0.98056183  0.82642482  1
  O  O492  1  0.58854717  0.31647986  0.07818140  1
  O  O493  1  0.58771079  0.31521373  0.32699456  1
  O  O494  1  0.58952559  0.31503533  0.57832212  1
  O  O495  1  0.58764106  0.31495013  0.82779846  1
  O  O496  1  0.58638096  0.64785283  0.07747007  1
  O  O497  1  0.58862016  0.64742401  0.32632972  1
  O  O498  1  0.58866975  0.64767748  0.57742065  1
  O  O499  1  0.58627951  0.64864046  0.82699160  1
  O  O500  1  0.58459164  0.98139991  0.07717021  1
  O  O501  1  0.58902485  0.98282528  0.32802274  1
  O  O502  1  0.58888551  0.98289947  0.57705438  1
  O  O503  1  0.58530045  0.98132877  0.82770775  1
  O  O504  1  0.41094188  0.01765390  0.17232784  1
  O  O505  1  0.41382429  0.02006223  0.42260778  1
  O  O506  1  0.41528292  0.01810920  0.67248713  1
  O  O507  1  0.41044120  0.01870581  0.92224230  1
  O  O508  1  0.41291179  0.35235241  0.17375720  1
  O  O509  1  0.41366672  0.35021033  0.42217124  1
  O  O510  1  0.41380587  0.35159331  0.67225960  1
  O  O511  1  0.41275276  0.35142913  0.92235605  1
  O  O512  1  0.41118852  0.68453084  0.17343532  1
  O  O513  1  0.41236298  0.68432213  0.42231931  1
  O  O514  1  0.41286138  0.68523893  0.67264229  1
  O  O515  1  0.41159213  0.68438570  0.92191143  1
  O  O516  1  0.91134431  0.01897326  0.17254246  1
  O  O517  1  0.91065845  0.01869042  0.42276174  1
  O  O518  1  0.91154990  0.01853910  0.67247998  1
  O  O519  1  0.91195293  0.01873211  0.92156932  1
  O  O520  1  0.91387071  0.35020543  0.17222746  1
  O  O521  1  0.91166215  0.35183827  0.42270988  1
  O  O522  1  0.91130406  0.35091888  0.67197187  1
  O  O523  1  0.91290868  0.35273169  0.92423414  1
  O  O524  1  0.91277364  0.68561500  0.17322464  1
  O  O525  1  0.91291187  0.68434514  0.42260607  1
  O  O526  1  0.91264585  0.68505990  0.67191685  1
  O  O527  1  0.91404288  0.68345197  0.92294560  1
  O  O528  1  0.16485562  0.01948989  0.20189342  1
  O  O529  1  0.16193464  0.01857057  0.45239684  1
  O  O530  1  0.16159668  0.01738562  0.70186115  1
  O  O531  1  0.16364691  0.01926410  0.95234543  1
  O  O532  1  0.16351051  0.35097478  0.20205771  1
  O  O533  1  0.16483895  0.35160487  0.45182682  1
  O  O534  1  0.16133469  0.35268166  0.70284753  1
  O  O535  1  0.16105551  0.35032338  0.95272898  1
  O  O536  1  0.16240962  0.68421338  0.20252822  1
  O  O537  1  0.16020375  0.68466543  0.45223306  1
  O  O538  1  0.15964455  0.68444712  0.70311702  1
  O  O539  1  0.16072987  0.68518619  0.95264255  1
  O  O540  1  0.66297964  0.01906696  0.20250652  1
  O  O541  1  0.66384603  0.01689468  0.45242589  1
  O  O542  1  0.66268016  0.01919898  0.70186257  1
  O  O543  1  0.66289147  0.01893911  0.95256545  1
  O  O544  1  0.66031313  0.35214975  0.20289386  1
  O  O545  1  0.66295784  0.35165767  0.45208060  1
  O  O546  1  0.66117099  0.35189926  0.70268513  1
  O  O547  1  0.66353590  0.35066512  0.95386238  1
  O  O548  1  0.66481139  0.68368240  0.20181837  1
  O  O549  1  0.66504276  0.68613428  0.45206379  1
  O  O550  1  0.66332840  0.68377327  0.70300377  1
  O  O551  1  0.66456565  0.68512989  0.95230135  1
  O  O552  1  0.33695171  0.31451148  0.04750118  1
  O  O553  1  0.33753427  0.31567435  0.29763931  1
  O  O554  1  0.33889482  0.31652488  0.54658095  1
  O  O555  1  0.33834225  0.31491818  0.79833573  1
  O  O556  1  0.33825446  0.64832735  0.04798161  1
  O  O557  1  0.33639106  0.64818464  0.29693653  1
  O  O558  1  0.33703822  0.64755185  0.54800625  1
  O  O559  1  0.33559068  0.64873166  0.79869389  1
  O  O560  1  0.33866326  0.98271635  0.04671310  1
  O  O561  1  0.33843422  0.98181960  0.29682382  1
  O  O562  1  0.33661053  0.98154873  0.54792714  1
  O  O563  1  0.33571273  0.98147986  0.79767830  1
  O  O564  1  0.83667911  0.31642286  0.04889566  1
  O  O565  1  0.83649013  0.31485070  0.29707771  1
  O  O566  1  0.83780515  0.31533411  0.54772474  1
  O  O567  1  0.83656863  0.31408220  0.79755798  1
  O  O568  1  0.83938977  0.64787642  0.04643510  1
  O  O569  1  0.83632216  0.64854200  0.29699285  1
  O  O570  1  0.83911367  0.64835722  0.54766352  1
  O  O571  1  0.83766299  0.64778438  0.79820999  1
  O  O572  1  0.83893883  0.98079512  0.04801209  1
  O  O573  1  0.83885637  0.98166688  0.29639316  1
  O  O574  1  0.83748709  0.98191755  0.54782922  1
  O  O575  1  0.83805766  0.98319642  0.79646805  1
  O  O576  1  0.41065703  0.14789602  0.17299401  1
  O  O577  1  0.41429997  0.15022068  0.42190675  1
  O  O578  1  0.41533244  0.14806867  0.67271257  1
  O  O579  1  0.41148601  0.14897465  0.92272966  1
  O  O580  1  0.41297793  0.48230877  0.17341726  1
  O  O581  1  0.41285807  0.48035256  0.42289800  1
  O  O582  1  0.41392491  0.48154632  0.67260140  1
  O  O583  1  0.41193779  0.48177023  0.92171343  1
  O  O584  1  0.41082275  0.81468143  0.17340981  1
  O  O585  1  0.41247391  0.81465421  0.42239482  1
  O  O586  1  0.41269541  0.81529030  0.67230956  1
  O  O587  1  0.41129579  0.81473987  0.92184453  1
  O  O588  1  0.91157250  0.14919438  0.17276238  1
  O  O589  1  0.91064353  0.14868562  0.42268638  1
  O  O590  1  0.91130966  0.14866719  0.67251537  1
  O  O591  1  0.91246241  0.14887173  0.92227016  1
  O  O592  1  0.91370643  0.48031495  0.17260175  1
  O  O593  1  0.91199745  0.48174046  0.42257692  1
  O  O594  1  0.91119407  0.48134036  0.67182247  1
  O  O595  1  0.91338628  0.48274355  0.92327887  1
  O  O596  1  0.91311665  0.81571318  0.17240576  1
  O  O597  1  0.91258277  0.81428793  0.42286985  1
  O  O598  1  0.91282657  0.81530321  0.67195013  1
  O  O599  1  0.91353362  0.81347148  0.92330314  1
  O  O600  1  0.08813453  0.18505160  0.07708270  1
  O  O601  1  0.08798380  0.18521963  0.32629933  1
  O  O602  1  0.08511596  0.18394967  0.57730317  1
  O  O603  1  0.08783481  0.18603426  0.82744944  1
  O  O604  1  0.08881762  0.51784973  0.07850253  1
  O  O605  1  0.08917360  0.51896501  0.32675963  1
  O  O606  1  0.08595090  0.51851450  0.57744676  1
  O  O607  1  0.08628793  0.51783137  0.82715791  1
  O  O608  1  0.08593153  0.85172376  0.07797625  1
  O  O609  1  0.08710454  0.85084034  0.32768065  1
  O  O610  1  0.08615226  0.85221170  0.57818696  1
  O  O611  1  0.08778049  0.85039542  0.82770811  1
  O  O612  1  0.58911129  0.18631194  0.07732745  1
  O  O613  1  0.58771413  0.18520443  0.32645082  1
  O  O614  1  0.58944791  0.18468141  0.57827682  1
  O  O615  1  0.58774277  0.18496098  0.82796693  1
  O  O616  1  0.58625112  0.51767527  0.07811198  1
  O  O617  1  0.58834554  0.51736639  0.32737269  1
  O  O618  1  0.58848854  0.51735829  0.57807662  1
  O  O619  1  0.58671349  0.51872376  0.82706118  1
  O  O620  1  0.58488707  0.85122638  0.07723770  1
  O  O621  1  0.58894619  0.85237070  0.32727144  1
  O  O622  1  0.58957599  0.85278296  0.57628597  1
  O  O623  1  0.58487905  0.85137760  0.82753623  1
  O  O624  1  0.33698925  0.18453692  0.04673695  1
  O  O625  1  0.33748416  0.18562248  0.29821519  1
  O  O626  1  0.33912033  0.18613728  0.54730868  1
  O  O627  1  0.33858769  0.18488032  0.79758929  1
  O  O628  1  0.33867986  0.51835123  0.04784760  1
  O  O629  1  0.33695786  0.51790362  0.29627207  1
  O  O630  1  0.33733239  0.51726681  0.54731315  1
  O  O631  1  0.33570039  0.51880806  0.79881141  1
  O  O632  1  0.33873591  0.85256194  0.04796985  1
  O  O633  1  0.33811099  0.85128006  0.29695883  1
  O  O634  1  0.33638392  0.85124440  0.54793927  1
  O  O635  1  0.33535873  0.85151581  0.79827580  1
  O  O636  1  0.83772170  0.18652808  0.04859639  1
  O  O637  1  0.83604098  0.18472140  0.29688988  1
  O  O638  1  0.83834783  0.18518317  0.54737211  1
  O  O639  1  0.83577914  0.18398784  0.79715229  1
  O  O640  1  0.83896091  0.51756523  0.04696771  1
  O  O641  1  0.83599162  0.51844794  0.29751100  1
  O  O642  1  0.83888825  0.51810694  0.54766399  1
  O  O643  1  0.83760358  0.51790725  0.79812929  1
  O  O644  1  0.83849303  0.85064571  0.04728355  1
  O  O645  1  0.83878713  0.85118161  0.29618851  1
  O  O646  1  0.83772189  0.85176169  0.54804620  1
  O  O647  1  0.83855204  0.85288947  0.79704956  1
  O  O648  1  0.16481150  0.14965884  0.20276310  1
  O  O649  1  0.16204653  0.14874461  0.45261379  1
  O  O650  1  0.16120295  0.14748918  0.70111791  1
  O  O651  1  0.16414976  0.14931711  0.95228947  1
  O  O652  1  0.16338938  0.48104745  0.20156343  1
  O  O653  1  0.16453720  0.48154770  0.45215357  1
  O  O654  1  0.16174112  0.48299345  0.70331732  1
  O  O655  1  0.16031060  0.48038544  0.95223378  1
  O  O656  1  0.16207395  0.81434164  0.20186941  1
  O  O657  1  0.16015565  0.81464578  0.45190773  1
  O  O658  1  0.15940328  0.81474078  0.70321698  1
  O  O659  1  0.16057898  0.81518896  0.95271448  1
  O  O660  1  0.66325050  0.14919855  0.20292094  1
  O  O661  1  0.66257678  0.14695508  0.45173538  1
  O  O662  1  0.66335548  0.14926576  0.70202714  1
  O  O663  1  0.66252579  0.14937020  0.95367486  1
  O  O664  1  0.66069941  0.48233923  0.20278064  1
  O  O665  1  0.66268519  0.48157815  0.45238524  1
  O  O666  1  0.66170497  0.48208739  0.70250404  1
  O  O667  1  0.66336468  0.48089226  0.95284373  1
  O  O668  1  0.66475408  0.81386255  0.20134956  1
  O  O669  1  0.66561326  0.81622411  0.45227543  1
  O  O670  1  0.66276232  0.81415958  0.70302061  1
  O  O671  1  0.66500190  0.81537152  0.95223414  1
