# generated using pymatgen
data_Na2MnFe(PO4)2
_symmetry_space_group_name_H-M   'P 1'
_cell_length_a   21.09585095
_cell_length_b   18.94964985
_cell_length_c   20.05334684
_cell_angle_alpha   90.00089347
_cell_angle_beta   90.00467387
_cell_angle_gamma   89.99822710
_symmetry_Int_Tables_number   1
_chemical_formula_structural   Na2MnFe(PO4)2
_chemical_formula_sum   'Na96 Mn48 Fe48 P96 O384'
_cell_volume   8016.50561919
_cell_formula_units_Z   48
loop_
 _symmetry_equiv_pos_site_id
 _symmetry_equiv_pos_as_xyz
  1  'x, y, z'
loop_
 _atom_site_type_symbol
 _atom_site_label
 _atom_site_symmetry_multiplicity
 _atom_site_fract_x
 _atom_site_fract_y
 _atom_site_fract_z
 _atom_site_occupancy
  Na  Na0  1  0.00117712  0.00068510  -0.00015367  1
  Na  Na1  1  0.00011780  0.00068692  0.24918030  1
  Na  Na2  1  0.00077095  0.00059884  0.50062387  1
  Na  Na3  1  0.00117633  0.00045636  0.75026087  1
  Na  Na4  1  -0.00161022  0.33282884  -0.00007572  1
  Na  Na5  1  -0.00116789  0.33298004  0.25073721  1
  Na  Na6  1  -0.00009026  0.33356685  0.49969211  1
  Na  Na7  1  0.00117892  0.33459984  0.74896369  1
  Na  Na8  1  -0.00265122  0.66540355  0.00112264  1
  Na  Na9  1  0.00100584  0.66698489  0.25013334  1
  Na  Na10  1  0.00016669  0.66651662  0.49943715  1
  Na  Na11  1  -0.00031147  0.66672364  0.74955495  1
  Na  Na12  1  0.49859684  -0.00038205  0.00036171  1
  Na  Na13  1  0.49927675  -0.00033160  0.25029499  1
  Na  Na14  1  0.49921791  0.00019191  0.49884992  1
  Na  Na15  1  0.49943583  0.00067934  0.75034654  1
  Na  Na16  1  0.50273489  0.33383965  0.00049821  1
  Na  Na17  1  0.50075419  0.33322420  0.25098857  1
  Na  Na18  1  0.50025296  0.33243876  0.50087895  1
  Na  Na19  1  0.50388655  0.33439375  0.74879068  1
  Na  Na20  1  0.49744470  0.66568665  -0.00117262  1
  Na  Na21  1  0.49903814  0.66614560  0.25144047  1
  Na  Na22  1  0.50020640  0.66651049  0.50086029  1
  Na  Na23  1  0.49934860  0.66697589  0.74865496  1
  Na  Na24  1  0.25098348  0.00080473  0.12483791  1
  Na  Na25  1  0.24984623  0.00043036  0.37511316  1
  Na  Na26  1  0.24982459  0.00026424  0.62530154  1
  Na  Na27  1  0.24976197  -0.00021315  0.87405478  1
  Na  Na28  1  0.25002260  0.33352503  0.12534810  1
  Na  Na29  1  0.25098968  0.33382566  0.37492535  1
  Na  Na30  1  0.25056659  0.33363390  0.62514537  1
  Na  Na31  1  0.24837470  0.33258287  0.87433597  1
  Na  Na32  1  0.25085131  0.66609910  0.12434111  1
  Na  Na33  1  0.24961317  0.66623296  0.37492547  1
  Na  Na34  1  0.25061467  0.66673772  0.62562993  1
  Na  Na35  1  0.25315751  0.66755947  0.87561353  1
  Na  Na36  1  0.75011223  0.00054614  0.12461824  1
  Na  Na37  1  0.74922258  0.00008894  0.37600419  1
  Na  Na38  1  0.74963220  0.00044720  0.62551882  1
  Na  Na39  1  0.74928538  -0.00000309  0.87442572  1
  Na  Na40  1  0.74919085  0.33309377  0.12410223  1
  Na  Na41  1  0.75006753  0.33370182  0.37492771  1
  Na  Na42  1  0.74722284  0.33246317  0.62589350  1
  Na  Na43  1  0.74707084  0.33241246  0.87535367  1
  Na  Na44  1  0.75138621  0.66752210  0.12435827  1
  Na  Na45  1  0.75131783  0.66693675  0.37519923  1
  Na  Na46  1  0.75037800  0.66606421  0.62540258  1
  Na  Na47  1  0.75044036  0.66633535  0.87461697  1
  Na  Na48  1  -0.00251960  0.16628720  -0.00010333  1
  Na  Na49  1  -0.00202377  0.16628229  0.24992956  1
  Na  Na50  1  -0.00025780  0.16548859  0.49976850  1
  Na  Na51  1  -0.00003297  0.16549478  0.74971607  1
  Na  Na52  1  0.00036107  0.49941055  0.00112284  1
  Na  Na53  1  0.00023783  0.49975627  0.25078692  1
  Na  Na54  1  0.00048287  0.49972749  0.49909826  1
  Na  Na55  1  -0.00136096  0.50081864  0.74856718  1
  Na  Na56  1  0.00092076  0.83391088  0.00022862  1
  Na  Na57  1  0.00165804  0.83352468  0.24903522  1
  Na  Na58  1  0.00065011  0.83392155  0.50081488  1
  Na  Na59  1  0.00254257  0.83266254  0.75019789  1
  Na  Na60  1  0.49934236  0.16627431  0.00087388  1
  Na  Na61  1  0.49815390  0.16709258  0.25023068  1
  Na  Na62  1  0.50045333  0.16627826  0.50019483  1
  Na  Na63  1  0.50056127  0.16585314  0.74935475  1
  Na  Na64  1  0.50118960  0.49975495  -0.00032456  1
  Na  Na65  1  0.50043386  0.50023115  0.25165138  1
  Na  Na66  1  0.50126925  0.49983028  0.50053405  1
  Na  Na67  1  0.50244328  0.49943883  0.74831681  1
  Na  Na68  1  0.49963559  0.83373333  -0.00051950  1
  Na  Na69  1  0.50067620  0.83371435  0.25070132  1
  Na  Na70  1  0.49882260  0.83409432  0.50008924  1
  Na  Na71  1  0.49735069  0.83515588  0.74967447  1
  Na  Na72  1  0.25189915  0.16562857  0.12570278  1
  Na  Na73  1  0.25165791  0.16569228  0.37578056  1
  Na  Na74  1  0.25078617  0.16579569  0.62454196  1
  Na  Na75  1  0.25084095  0.16568464  0.87456344  1
  Na  Na76  1  0.24979133  0.50002136  0.12462683  1
  Na  Na77  1  0.24771084  0.50074432  0.37382361  1
  Na  Na78  1  0.24950602  0.49972374  0.62604767  1
  Na  Na79  1  0.25045770  0.50002892  0.87515654  1
  Na  Na80  1  0.24931597  0.83482069  0.12436759  1
  Na  Na81  1  0.25066915  0.83335057  0.37545677  1
  Na  Na82  1  0.25176454  0.83302735  0.62514507  1
  Na  Na83  1  0.25009630  0.83454451  0.87434645  1
  Na  Na84  1  0.75092563  0.16575255  0.12459636  1
  Na  Na85  1  0.74998406  0.16641739  0.37528951  1
  Na  Na86  1  0.74845847  0.16608538  0.62513193  1
  Na  Na87  1  0.74902082  0.16568346  0.87475512  1
  Na  Na88  1  0.74984521  0.49999336  0.12372718  1
  Na  Na89  1  0.75042446  0.49968221  0.37595487  1
  Na  Na90  1  0.75011248  0.49989340  0.62616396  1
  Na  Na91  1  0.74904671  0.50011558  0.87489343  1
  Na  Na92  1  0.74865042  0.83452463  0.12496862  1
  Na  Na93  1  0.74924626  0.83388167  0.37511084  1
  Na  Na94  1  0.75002103  0.83342674  0.62529886  1
  Na  Na95  1  0.75065943  0.83334732  0.87429671  1
  Mn  Mn96  1  0.10762861  0.41684299  0.62214930  1
  Mn  Mn97  1  0.10724660  0.41565071  0.12291453  1
  Mn  Mn98  1  0.39255715  0.58333078  0.62708959  1
  Mn  Mn99  1  0.14228239  0.24969138  0.24781562  1
  Mn  Mn100  1  0.35833557  0.75075995  0.00269171  1
  Mn  Mn101  1  0.89181743  0.25041742  0.87648368  1
  Mn  Mn102  1  0.64137795  0.91640071  0.74749825  1
  Mn  Mn103  1  0.85843698  0.75032017  0.75231482  1
  Mn  Mn104  1  0.85728603  0.41639697  0.00187290  1
  Mn  Mn105  1  0.35815855  0.41636134  0.25251175  1
  Mn  Mn106  1  0.39164899  0.58257099  0.37839053  1
  Mn  Mn107  1  0.60829270  0.41647356  0.37334492  1
  Mn  Mn108  1  0.85662931  0.41557973  0.75237445  1
  Mn  Mn109  1  0.14262897  0.58369759  0.99702291  1
  Mn  Mn110  1  0.60760382  0.74946146  0.12258497  1
  Mn  Mn111  1  0.60756264  0.08347626  0.37291057  1
  Mn  Mn112  1  0.39299532  0.25059300  0.87710573  1
  Mn  Mn113  1  0.64201685  0.24875738  0.99777329  1
  Mn  Mn114  1  0.89272137  0.91617627  0.62721311  1
  Mn  Mn115  1  0.35765460  0.75038995  0.25215534  1
  Mn  Mn116  1  0.10749743  0.08414729  0.12280792  1
  Mn  Mn117  1  0.14297193  0.91645532  0.49779483  1
  Mn  Mn118  1  0.64177892  0.58473686  0.99746486  1
  Mn  Mn119  1  0.60716960  0.08320228  0.12321294  1
  Mn  Mn120  1  0.85770927  0.75054591  0.25275027  1
  Mn  Mn121  1  0.60740365  0.75080825  0.62240823  1
  Mn  Mn122  1  0.39238160  0.25070240  0.12754188  1
  Mn  Mn123  1  0.89200196  0.91702519  0.12698028  1
  Mn  Mn124  1  0.89147011  0.25009858  0.62726730  1
  Mn  Mn125  1  0.60817941  0.74990397  0.37380774  1
  Mn  Mn126  1  0.10852877  0.75050338  0.37275069  1
  Mn  Mn127  1  0.14282074  0.25057646  0.49748166  1
  Mn  Mn128  1  0.64233945  0.58338587  0.24741466  1
  Mn  Mn129  1  0.35868202  0.41579470  0.00181547  1
  Mn  Mn130  1  0.14196288  0.24924602  0.74746227  1
  Mn  Mn131  1  0.89158546  0.24970547  0.37756706  1
  Mn  Mn132  1  0.39208357  0.91691639  0.37736880  1
  Mn  Mn133  1  0.35856489  0.41653224  0.75268667  1
  Mn  Mn134  1  0.10790476  0.74927981  0.87299991  1
  Mn  Mn135  1  0.89288844  0.58350038  0.37723387  1
  Mn  Mn136  1  0.10809364  0.74998797  0.12241940  1
  Mn  Mn137  1  0.89307724  0.91629254  0.87722254  1
  Mn  Mn138  1  0.14214028  0.58410706  0.74837224  1
  Mn  Mn139  1  0.39334862  0.24975877  0.62719282  1
  Mn  Mn140  1  0.89195014  0.58251514  0.12770340  1
  Mn  Mn141  1  0.89221749  0.91665194  0.37694214  1
  Mn  Mn142  1  0.60721369  0.75011480  0.87239577  1
  Mn  Mn143  1  0.14139156  0.24932680  0.99787291  1
  Fe  Fe144  1  0.35690543  0.41699480  0.50153528  1
  Fe  Fe145  1  0.64265853  0.91637930  0.49893105  1
  Fe  Fe146  1  0.14318205  0.91687389  0.24815671  1
  Fe  Fe147  1  0.39287571  0.58311414  0.12675549  1
  Fe  Fe148  1  0.39239331  0.91707066  0.87703986  1
  Fe  Fe149  1  0.14390166  0.91662778  0.74836679  1
  Fe  Fe150  1  0.14298316  0.58373816  0.24791425  1
  Fe  Fe151  1  0.85667891  0.41611566  0.25155516  1
  Fe  Fe152  1  0.10756767  0.08408128  0.87306635  1
  Fe  Fe153  1  0.89211312  0.58316855  0.87616893  1
  Fe  Fe154  1  0.39287606  0.25048720  0.37716290  1
  Fe  Fe155  1  0.60771931  0.41731179  0.12420062  1
  Fe  Fe156  1  0.10737702  0.08368942  0.37314722  1
  Fe  Fe157  1  0.64274296  0.58355060  0.74803240  1
  Fe  Fe158  1  0.35719386  0.08347486  0.50230750  1
  Fe  Fe159  1  0.10727011  0.41578481  0.37321163  1
  Fe  Fe160  1  0.64280026  0.24972719  0.24847639  1
  Fe  Fe161  1  0.14355048  0.91733394  0.99823927  1
  Fe  Fe162  1  0.35726076  0.08369163  0.00111748  1
  Fe  Fe163  1  0.35745494  0.08303822  0.75180008  1
  Fe  Fe164  1  0.60681965  0.08322194  0.87340506  1
  Fe  Fe165  1  0.64253814  0.91717727  0.24787293  1
  Fe  Fe166  1  0.10707059  0.41660645  0.87384689  1
  Fe  Fe167  1  0.64202258  0.24928098  0.74848856  1
  Fe  Fe168  1  0.85659579  0.08339394  0.25201822  1
  Fe  Fe169  1  0.64312145  0.24977808  0.49800860  1
  Fe  Fe170  1  0.39251967  0.91610787  0.12702100  1
  Fe  Fe171  1  0.10730263  0.08338289  0.62320438  1
  Fe  Fe172  1  0.85782878  0.75024233  0.50176881  1
  Fe  Fe173  1  0.89122374  0.25001077  0.12701208  1
  Fe  Fe174  1  0.64213213  0.91678890  0.99836571  1
  Fe  Fe175  1  0.14269717  0.58330947  0.49889893  1
  Fe  Fe176  1  0.39250903  0.91733669  0.62627352  1
  Fe  Fe177  1  0.60701904  0.08296448  0.62301737  1
  Fe  Fe178  1  0.85666522  0.08327123  0.75158238  1
  Fe  Fe179  1  0.64398099  0.58374127  0.49898311  1
  Fe  Fe180  1  0.85684592  0.08301363  0.50214398  1
  Fe  Fe181  1  0.85698113  0.08229718  0.00083582  1
  Fe  Fe182  1  0.85719456  0.41681431  0.50179262  1
  Fe  Fe183  1  0.60775972  0.41676160  0.87309770  1
  Fe  Fe184  1  0.89280622  0.58374667  0.62602666  1
  Fe  Fe185  1  0.35719207  0.75029029  0.75158565  1
  Fe  Fe186  1  0.39363046  0.58281385  0.87595476  1
  Fe  Fe187  1  0.35703773  0.08327796  0.25206238  1
  Fe  Fe188  1  0.10821826  0.74983465  0.62312185  1
  Fe  Fe189  1  0.85720664  0.75112990  0.00125423  1
  Fe  Fe190  1  0.60798107  0.41661670  0.62225482  1
  Fe  Fe191  1  0.35733378  0.74956413  0.50214589  1
  P  P192  1  0.05094604  0.24956440  0.11002095  1
  P  P193  1  0.05328321  0.24939236  0.36021304  1
  P  P194  1  0.05309642  0.24888551  0.60955910  1
  P  P195  1  0.05293056  0.24982377  0.85979590  1
  P  P196  1  0.05467771  0.58304550  0.11110720  1
  P  P197  1  0.05589707  0.58262259  0.36075289  1
  P  P198  1  0.05314047  0.58419635  0.60919195  1
  P  P199  1  0.05164361  0.58262033  0.86004087  1
  P  P200  1  0.05540173  0.91738207  0.11012694  1
  P  P201  1  0.05432876  0.91790866  0.35938665  1
  P  P202  1  0.05556323  0.91681205  0.61170128  1
  P  P203  1  0.05613434  0.91764645  0.86062967  1
  P  P204  1  0.55476933  0.25041395  0.11176126  1
  P  P205  1  0.55421701  0.24978802  0.36086024  1
  P  P206  1  0.55608230  0.24930660  0.61054673  1
  P  P207  1  0.55415900  0.24914187  0.85954755  1
  P  P208  1  0.55209512  0.58307047  0.11011896  1
  P  P209  1  0.55483113  0.58341297  0.36186200  1
  P  P210  1  0.55563290  0.58312941  0.61030873  1
  P  P211  1  0.55293836  0.58319585  0.85884141  1
  P  P212  1  0.55353880  0.91674143  0.11046969  1
  P  P213  1  0.55530643  0.91674294  0.36070428  1
  P  P214  1  0.55229059  0.91790175  0.60934961  1
  P  P215  1  0.55288690  0.91756197  0.86122007  1
  P  P216  1  0.44432721  0.08231981  0.13960809  1
  P  P217  1  0.44453578  0.08428939  0.38944601  1
  P  P218  1  0.44600375  0.08260786  0.63917122  1
  P  P219  1  0.44591166  0.08301167  0.88939862  1
  P  P220  1  0.44839003  0.41747263  0.14038666  1
  P  P221  1  0.44636346  0.41565944  0.39136491  1
  P  P222  1  0.44712075  0.41660645  0.63845969  1
  P  P223  1  0.44899693  0.41697300  0.88943625  1
  P  P224  1  0.44663586  0.75012882  0.14017275  1
  P  P225  1  0.44581784  0.74999640  0.39121001  1
  P  P226  1  0.44446567  0.75107700  0.63915905  1
  P  P227  1  0.44500712  0.75029852  0.88812128  1
  P  P228  1  0.94398596  0.08377417  0.13928698  1
  P  P229  1  0.94573799  0.08291072  0.38963051  1
  P  P230  1  0.94559838  0.08302706  0.63957780  1
  P  P231  1  0.94608261  0.08313252  0.88904408  1
  P  P232  1  0.94534532  0.41553909  0.14101695  1
  P  P233  1  0.94582479  0.41642445  0.38939451  1
  P  P234  1  0.94477476  0.41759997  0.63836407  1
  P  P235  1  0.94727958  0.41739830  0.88949981  1
  P  P236  1  0.94546778  0.75049141  0.13916727  1
  P  P237  1  0.94674051  0.75059812  0.39080123  1
  P  P238  1  0.94711241  0.74935234  0.63860248  1
  P  P239  1  0.94638381  0.74943920  0.89078777  1
  P  P240  1  0.19655953  0.08291787  0.23626824  1
  P  P241  1  0.19623297  0.08344027  0.48572468  1
  P  P242  1  0.19616378  0.08249566  0.73549787  1
  P  P243  1  0.19724199  0.08287924  0.98448800  1
  P  P244  1  0.19548138  0.41691613  0.23599051  1
  P  P245  1  0.19713256  0.41750617  0.48447818  1
  P  P246  1  0.19537897  0.41682534  0.73617228  1
  P  P247  1  0.19630068  0.41630217  0.98427124  1
  P  P248  1  0.19665684  0.75033609  0.23485559  1
  P  P249  1  0.19706465  0.74921819  0.48658731  1
  P  P250  1  0.19737336  0.75085963  0.73495053  1
  P  P251  1  0.19728555  0.75108860  0.98478573  1
  P  P252  1  0.69716429  0.08356060  0.23537436  1
  P  P253  1  0.69605053  0.08305411  0.48660973  1
  P  P254  1  0.69503747  0.08351958  0.73562082  1
  P  P255  1  0.69655945  0.08212522  0.98456262  1
  P  P256  1  0.69718696  0.41587213  0.23466311  1
  P  P257  1  0.69682159  0.41666573  0.48670645  1
  P  P258  1  0.69389077  0.41668402  0.73592540  1
  P  P259  1  0.69433971  0.41692453  0.98548901  1
  P  P260  1  0.69661444  0.75076086  0.23504095  1
  P  P261  1  0.69818188  0.74995632  0.48577027  1
  P  P262  1  0.69658544  0.74935190  0.73491849  1
  P  P263  1  0.69748636  0.75121301  0.98461310  1
  P  P264  1  0.30324510  0.24924820  0.01488528  1
  P  P265  1  0.30425145  0.24923628  0.26594676  1
  P  P266  1  0.30500538  0.25037324  0.51390408  1
  P  P267  1  0.30383489  0.24890369  0.76465149  1
  P  P268  1  0.30593499  0.58268819  0.01429673  1
  P  P269  1  0.30367954  0.58329439  0.26386810  1
  P  P270  1  0.30202432  0.58253287  0.51521204  1
  P  P271  1  0.30427976  0.58407087  0.76556450  1
  P  P272  1  0.30449997  0.91811185  0.01406216  1
  P  P273  1  0.30343773  0.91737981  0.26394488  1
  P  P274  1  0.30430428  0.91710689  0.51550116  1
  P  P275  1  0.30486519  0.91708788  0.76373131  1
  P  P276  1  0.80378167  0.24880447  0.01487200  1
  P  P277  1  0.80303221  0.24994794  0.26376532  1
  P  P278  1  0.80210284  0.24983631  0.51507560  1
  P  P279  1  0.80124988  0.24887911  0.76477985  1
  P  P280  1  0.80460264  0.58425153  0.01335531  1
  P  P281  1  0.80333185  0.58213651  0.26513651  1
  P  P282  1  0.80358137  0.58330927  0.51545723  1
  P  P283  1  0.80383530  0.58298209  0.76420575  1
  P  P284  1  0.80223262  0.91671397  0.01427658  1
  P  P285  1  0.80190797  0.91793370  0.26501146  1
  P  P286  1  0.80244676  0.91677326  0.51502195  1
  P  P287  1  0.80345771  0.91768438  0.76476155  1
  O  O288  1  0.05550480  0.24915988  0.18663448  1
  O  O289  1  0.05665652  0.24942373  0.43691322  1
  O  O290  1  0.05621149  0.24943609  0.68630469  1
  O  O291  1  0.05526716  0.24933604  0.93655416  1
  O  O292  1  0.05928405  0.58361208  0.18784913  1
  O  O293  1  0.05978340  0.58339829  0.43750854  1
  O  O294  1  0.05675463  0.58382962  0.68588069  1
  O  O295  1  0.05559194  0.58328962  0.93670873  1
  O  O296  1  0.05988992  0.91741501  0.18685873  1
  O  O297  1  0.05732422  0.91724430  0.43621022  1
  O  O298  1  0.05960975  0.91653759  0.68839666  1
  O  O299  1  0.06001625  0.91720552  0.93739847  1
  O  O300  1  0.55881618  0.24937728  0.18850531  1
  O  O301  1  0.55951194  0.24957118  0.43754666  1
  O  O302  1  0.55960469  0.24918350  0.68732244  1
  O  O303  1  0.55650148  0.24869269  0.93640236  1
  O  O304  1  0.55579858  0.58387366  0.18683121  1
  O  O305  1  0.56022001  0.58368306  0.43851465  1
  O  O306  1  0.55951365  0.58399722  0.68702085  1
  O  O307  1  0.55620685  0.58417689  0.93559485  1
  O  O308  1  0.55874812  0.91715315  0.18716478  1
  O  O309  1  0.55993386  0.91681731  0.43743672  1
  O  O310  1  0.55573977  0.91728961  0.68608168  1
  O  O311  1  0.55797501  0.91681211  0.93783460  1
  O  O312  1  0.44066579  0.08318792  0.06285041  1
  O  O313  1  0.44059859  0.08321174  0.31269857  1
  O  O314  1  0.44127896  0.08330237  0.56249588  1
  O  O315  1  0.44141452  0.08340352  0.81269226  1
  O  O316  1  0.44492506  0.41654662  0.06372107  1
  O  O317  1  0.44334999  0.41661055  0.31458888  1
  O  O318  1  0.44135883  0.41680420  0.56196193  1
  O  O319  1  0.44530845  0.41623713  0.81275520  1
  O  O320  1  0.44402165  0.75051887  0.06335134  1
  O  O321  1  0.44268312  0.75005392  0.31443893  1
  O  O322  1  0.44034856  0.74977021  0.56240579  1
  O  O323  1  0.44138963  0.75080650  0.81137361  1
  O  O324  1  0.93976423  0.08247062  0.06253669  1
  O  O325  1  0.94035753  0.08297267  0.31297433  1
  O  O326  1  0.94026746  0.08298963  0.56287775  1
  O  O327  1  0.94093415  0.08296004  0.81240605  1
  O  O328  1  0.94233730  0.41640107  0.06422416  1
  O  O329  1  0.94059095  0.41628049  0.31282115  1
  O  O330  1  0.94039812  0.41644670  0.56161719  1
  O  O331  1  0.94332290  0.41682868  0.81279959  1
  O  O332  1  0.94078033  0.75107792  0.06247083  1
  O  O333  1  0.94341086  0.75074167  0.31402409  1
  O  O334  1  0.94167686  0.75039840  0.56199880  1
  O  O335  1  0.94373784  0.75060358  0.81392550  1
  O  O336  1  0.19359143  0.08380351  0.06118899  1
  O  O337  1  0.19180178  0.08366035  0.31288690  1
  O  O338  1  0.19124655  0.08363060  0.56235815  1
  O  O339  1  0.19143628  0.08363204  0.81212555  1
  O  O340  1  0.19299174  0.41632372  0.06106174  1
  O  O341  1  0.19108585  0.41594269  0.31269302  1
  O  O342  1  0.19361739  0.41638756  0.56124569  1
  O  O343  1  0.19038065  0.41689668  0.81282471  1
  O  O344  1  0.19405149  0.75010487  0.06148836  1
  O  O345  1  0.19425816  0.75026026  0.31168862  1
  O  O346  1  0.19226123  0.74977806  0.56321430  1
  O  O347  1  0.19373935  0.74996735  0.81161296  1
  O  O348  1  0.69271457  0.08283819  0.06120414  1
  O  O349  1  0.69370804  0.08369109  0.31206872  1
  O  O350  1  0.69144898  0.08277029  0.56323379  1
  O  O351  1  0.69039069  0.08269228  0.81226561  1
  O  O352  1  0.69031985  0.41737041  0.06222279  1
  O  O353  1  0.69382052  0.41659069  0.31141485  1
  O  O354  1  0.69239598  0.41663987  0.56339022  1
  O  O355  1  0.69027122  0.41697548  0.81279579  1
  O  O356  1  0.69363826  0.75038716  0.06128949  1
  O  O357  1  0.69368841  0.74978894  0.31176570  1
  O  O358  1  0.69426541  0.75001214  0.56240421  1
  O  O359  1  0.69315380  0.74992442  0.81162858  1
  O  O360  1  0.30709524  0.25032531  0.18911631  1
  O  O361  1  0.30862023  0.25029335  0.43722048  1
  O  O362  1  0.30731414  0.24971004  0.68791180  1
  O  O363  1  0.30663655  0.25016603  0.93817317  1
  O  O364  1  0.30894854  0.58284227  0.18724360  1
  O  O365  1  0.30507361  0.58260832  0.43848397  1
  O  O366  1  0.30713054  0.58281182  0.68878404  1
  O  O367  1  0.31073852  0.58239766  0.93759000  1
  O  O368  1  0.30790747  0.91674286  0.18729826  1
  O  O369  1  0.30666268  0.91716585  0.43870549  1
  O  O370  1  0.30906578  0.91750448  0.68708231  1
  O  O371  1  0.30901629  0.91722087  0.93732913  1
  O  O372  1  0.80708998  0.24998434  0.18711441  1
  O  O373  1  0.80564546  0.24998271  0.43833475  1
  O  O374  1  0.80502202  0.24965250  0.68814918  1
  O  O375  1  0.80654200  0.24971995  0.93809508  1
  O  O376  1  0.80603551  0.58275105  0.18835008  1
  O  O377  1  0.80713090  0.58323714  0.43873925  1
  O  O378  1  0.80891367  0.58332729  0.68760162  1
  O  O379  1  0.80862756  0.58303038  0.93659621  1
  O  O380  1  0.80575307  0.91730902  0.18838390  1
  O  O381  1  0.80596963  0.91682258  0.43839943  1
  O  O382  1  0.80685661  0.91704667  0.68806303  1
  O  O383  1  0.80624274  0.91672555  0.93766797  1
  O  O384  1  0.23368431  0.24935671  0.04031533  1
  O  O385  1  0.23458851  0.24957256  0.29102309  1
  O  O386  1  0.23517703  0.25010864  0.53878254  1
  O  O387  1  0.23412398  0.24890229  0.78944354  1
  O  O388  1  0.23570061  0.58303248  0.03769798  1
  O  O389  1  0.23330918  0.58364882  0.28725266  1
  O  O390  1  0.23222751  0.58284977  0.54056116  1
  O  O391  1  0.23458968  0.58400461  0.79069992  1
  O  O392  1  0.23413862  0.91779224  0.03765434  1
  O  O393  1  0.23335239  0.91703665  0.28833650  1
  O  O394  1  0.23468917  0.91695927  0.54080148  1
  O  O395  1  0.23451990  0.91709082  0.78760229  1
  O  O396  1  0.73400465  0.24919696  0.03981181  1
  O  O397  1  0.73296012  0.24985575  0.28843157  1
  O  O398  1  0.73210220  0.24953068  0.53970906  1
  O  O399  1  0.73126287  0.24916726  0.78935706  1
  O  O400  1  0.73463068  0.58414393  0.03775203  1
  O  O401  1  0.73383774  0.58289198  0.29070505  1
  O  O402  1  0.73345069  0.58317734  0.53992640  1
  O  O403  1  0.73334773  0.58300718  0.78748997  1
  O  O404  1  0.73220808  0.91731318  0.03894942  1
  O  O405  1  0.73191872  0.91743739  0.28965181  1
  O  O406  1  0.73240898  0.91671927  0.53989910  1
  O  O407  1  0.73367787  0.91698489  0.78943509  1
  O  O408  1  0.26683758  0.08330262  0.21248195  1
  O  O409  1  0.26678593  0.08312763  0.46272174  1
  O  O410  1  0.26663857  0.08266848  0.71209287  1
  O  O411  1  0.26732044  0.08286349  0.96001672  1
  O  O412  1  0.26551641  0.41656015  0.21184739  1
  O  O413  1  0.26711717  0.41717469  0.45982766  1
  O  O414  1  0.26557733  0.41674911  0.71261494  1
  O  O415  1  0.26610634  0.41614414  0.95952345  1
  O  O416  1  0.26606452  0.75039819  0.20896144  1
  O  O417  1  0.26735119  0.74988418  0.46269445  1
  O  O418  1  0.26754633  0.75036786  0.71077608  1
  O  O419  1  0.26700265  0.75123813  0.95990825  1
  O  O420  1  0.76703381  0.08350798  0.21043476  1
  O  O421  1  0.76632782  0.08323273  0.46259939  1
  O  O422  1  0.76540795  0.08309296  0.71195690  1
  O  O423  1  0.76673707  0.08268978  0.96035744  1
  O  O424  1  0.76707574  0.41617250  0.20977001  1
  O  O425  1  0.76704955  0.41676330  0.46255374  1
  O  O426  1  0.76391811  0.41623269  0.71171757  1
  O  O427  1  0.76437403  0.41622054  0.96131843  1
  O  O428  1  0.76620479  0.75084515  0.20969695  1
  O  O429  1  0.76821948  0.75022874  0.46109672  1
  O  O430  1  0.76634127  0.74995095  0.71014488  1
  O  O431  1  0.76740282  0.75063877  0.95985962  1
  O  O432  1  0.01413302  0.08344606  0.16313336  1
  O  O433  1  0.01623288  0.08314545  0.41271853  1
  O  O434  1  0.01613733  0.08291498  0.66252425  1
  O  O435  1  0.01650607  0.08335434  0.91246556  1
  O  O436  1  0.01503740  0.41620685  0.16600281  1
  O  O437  1  0.01636702  0.41630674  0.41251650  1
  O  O438  1  0.01484015  0.41743262  0.66222720  1
  O  O439  1  0.01715443  0.41645766  0.91443451  1
  O  O440  1  0.01553300  0.75027364  0.16299656  1
  O  O441  1  0.01659802  0.75042994  0.41531252  1
  O  O442  1  0.01748687  0.74953975  0.66215607  1
  O  O443  1  0.01599892  0.74964640  0.91608926  1
  O  O444  1  0.51431219  0.08312409  0.16410056  1
  O  O445  1  0.51465462  0.08352785  0.41342414  1
  O  O446  1  0.51642629  0.08331460  0.66258295  1
  O  O447  1  0.51619065  0.08317006  0.91338610  1
  O  O448  1  0.51823967  0.41712336  0.16560775  1
  O  O449  1  0.51613187  0.41601511  0.41618025  1
  O  O450  1  0.51775654  0.41654949  0.66097625  1
  O  O451  1  0.51902250  0.41655112  0.91403501  1
  O  O452  1  0.51600903  0.75017043  0.16609292  1
  O  O453  1  0.51554640  0.75015416  0.41609781  1
  O  O454  1  0.51455615  0.75087294  0.66313465  1
  O  O455  1  0.51479269  0.74998809  0.91313516  1
  O  O456  1  0.48487247  0.25003091  0.08718522  1
  O  O457  1  0.48378236  0.25008054  0.33774182  1
  O  O458  1  0.48604220  0.24934480  0.58637867  1
  O  O459  1  0.48473529  0.25002585  0.83360535  1
  O  O460  1  0.48224099  0.58294135  0.08518038  1
  O  O461  1  0.48455748  0.58296222  0.33868937  1
  O  O462  1  0.48547772  0.58330790  0.58637980  1
  O  O463  1  0.48296915  0.58336894  0.83396605  1
  O  O464  1  0.48309956  0.91661504  0.08725907  1
  O  O465  1  0.48506166  0.91685807  0.33726987  1
  O  O466  1  0.48225816  0.91729491  0.58487134  1
  O  O467  1  0.48253566  0.91765323  0.83760567  1
  O  O468  1  0.98089240  0.24954295  0.08585489  1
  O  O469  1  0.98349545  0.24940372  0.33538217  1
  O  O470  1  0.98346538  0.24933040  0.58435757  1
  O  O471  1  0.98349019  0.24999297  0.83370703  1
  O  O472  1  0.98453343  0.58245940  0.08757328  1
  O  O473  1  0.98578427  0.58345812  0.33662031  1
  O  O474  1  0.98310964  0.58345422  0.58458576  1
  O  O475  1  0.98169794  0.58350776  0.83520421  1
  O  O476  1  0.98522699  0.91747277  0.08647985  1
  O  O477  1  0.98467667  0.91708699  0.33418255  1
  O  O478  1  0.98563525  0.91713231  0.58709804  1
  O  O479  1  0.98608980  0.91661656  0.83637511  1
  O  O480  1  0.08467858  0.31458397  0.07731996  1
  O  O481  1  0.08716558  0.31454389  0.32780501  1
  O  O482  1  0.08737201  0.31391553  0.57720955  1
  O  O483  1  0.08732116  0.31491869  0.82795257  1
  O  O484  1  0.08770790  0.64802552  0.07739849  1
  O  O485  1  0.08985255  0.64743727  0.32753159  1
  O  O486  1  0.08704206  0.64925117  0.57662030  1
  O  O487  1  0.08578887  0.64759286  0.82724112  1
  O  O488  1  0.08893405  0.98236913  0.07695446  1
  O  O489  1  0.08817658  0.98320788  0.32722693  1
  O  O490  1  0.08911833  0.98198701  0.57886512  1
  O  O491  1  0.08932568  0.98298888  0.82779599  1
  O  O492  1  0.58830249  0.31560650  0.07938726  1
  O  O493  1  0.58782226  0.31466305  0.32767978  1
  O  O494  1  0.58979651  0.31434282  0.57760164  1
  O  O495  1  0.58922643  0.31385933  0.82772618  1
  O  O496  1  0.58560948  0.64817172  0.07690738  1
  O  O497  1  0.58765713  0.64848113  0.32823252  1
  O  O498  1  0.58917434  0.64807789  0.57698752  1
  O  O499  1  0.58703657  0.64803974  0.82592183  1
  O  O500  1  0.58669437  0.98174902  0.07687176  1
  O  O501  1  0.58856712  0.98178088  0.32725822  1
  O  O502  1  0.58608254  0.98295515  0.57680061  1
  O  O503  1  0.58615937  0.98262903  0.82810307  1
  O  O504  1  0.41107248  0.01687543  0.17223567  1
  O  O505  1  0.41058358  0.01960290  0.42281484  1
  O  O506  1  0.41299389  0.01744173  0.67245968  1
  O  O507  1  0.41227268  0.01808274  0.92249687  1
  O  O508  1  0.41432127  0.35249581  0.17315457  1
  O  O509  1  0.41241592  0.35042480  0.42335571  1
  O  O510  1  0.41438338  0.35159898  0.67232856  1
  O  O511  1  0.41526777  0.35207686  0.92262640  1
  O  O512  1  0.41244007  0.68487176  0.17197720  1
  O  O513  1  0.41158430  0.68506386  0.42373429  1
  O  O514  1  0.41070736  0.68627911  0.67253825  1
  O  O515  1  0.41126044  0.68509663  0.92047278  1
  O  O516  1  0.91038036  0.01905399  0.17307023  1
  O  O517  1  0.91271130  0.01791322  0.42325873  1
  O  O518  1  0.91239327  0.01815415  0.67319333  1
  O  O519  1  0.91303042  0.01811764  0.92280124  1
  O  O520  1  0.91144550  0.35018419  0.17304927  1
  O  O521  1  0.91235824  0.35158973  0.42298375  1
  O  O522  1  0.91134919  0.35270959  0.67200578  1
  O  O523  1  0.91289293  0.35251276  0.92202839  1
  O  O524  1  0.91202348  0.68539600  0.17210991  1
  O  O525  1  0.91250239  0.68561547  0.42319418  1
  O  O526  1  0.91388590  0.68407735  0.67147596  1
  O  O527  1  0.91190538  0.68439676  0.92235168  1
  O  O528  1  0.16344015  0.01783109  0.20307099  1
  O  O529  1  0.16287910  0.01852551  0.45232947  1
  O  O530  1  0.16293903  0.01728439  0.70254270  1
  O  O531  1  0.16331180  0.01791197  0.95193901  1
  O  O532  1  0.16202012  0.35183351  0.20269502  1
  O  O533  1  0.16296760  0.35271279  0.45140439  1
  O  O534  1  0.16203529  0.35185125  0.70274499  1
  O  O535  1  0.16192914  0.35135067  0.95200789  1
  O  O536  1  0.16244097  0.68522393  0.20269770  1
  O  O537  1  0.16398357  0.68412969  0.45346623  1
  O  O538  1  0.16323139  0.68609529  0.70190712  1
  O  O539  1  0.16355998  0.68597983  0.95191135  1
  O  O540  1  0.66317112  0.01853033  0.20280345  1
  O  O541  1  0.66270481  0.01805176  0.45338696  1
  O  O542  1  0.66136455  0.01878715  0.70191186  1
  O  O543  1  0.66276776  0.01715050  0.95180515  1
  O  O544  1  0.66312529  0.35078384  0.20248161  1
  O  O545  1  0.66358068  0.35151001  0.45351879  1
  O  O546  1  0.66001898  0.35164197  0.70329240  1
  O  O547  1  0.66031498  0.35194499  0.95288128  1
  O  O548  1  0.66273970  0.68570216  0.20219704  1
  O  O549  1  0.66470713  0.68475676  0.45298827  1
  O  O550  1  0.66282840  0.68425002  0.70259050  1
  O  O551  1  0.66335309  0.68635272  0.95179474  1
  O  O552  1  0.33752763  0.31414731  0.04763032  1
  O  O553  1  0.33886067  0.31399308  0.29849580  1
  O  O554  1  0.33850439  0.31560678  0.54671644  1
  O  O555  1  0.33776935  0.31387680  0.79749800  1
  O  O556  1  0.33947951  0.64776660  0.04741679  1
  O  O557  1  0.33693559  0.64827308  0.29722942  1
  O  O558  1  0.33640899  0.64742824  0.54753203  1
  O  O559  1  0.33842281  0.64940008  0.79713703  1
  O  O560  1  0.33777657  0.98316827  0.04702917  1
  O  O561  1  0.33687266  0.98245443  0.29697849  1
  O  O562  1  0.33844749  0.98225077  0.54784454  1
  O  O563  1  0.33823828  0.98204504  0.79727753  1
  O  O564  1  0.83802486  0.31364564  0.04766474  1
  O  O565  1  0.83650881  0.31499536  0.29691608  1
  O  O566  1  0.83566471  0.31494169  0.54780409  1
  O  O567  1  0.83497941  0.31384852  0.79778356  1
  O  O568  1  0.83819020  0.64947701  0.04577622  1
  O  O569  1  0.83807925  0.64695800  0.29736669  1
  O  O570  1  0.83741020  0.64841325  0.54812777  1
  O  O571  1  0.83733820  0.64782685  0.79763534  1
  O  O572  1  0.83629135  0.98165779  0.04693518  1
  O  O573  1  0.83541146  0.98314232  0.29766085  1
  O  O574  1  0.83618439  0.98187993  0.54767585  1
  O  O575  1  0.83707225  0.98293872  0.79712400  1
  O  O576  1  0.41013349  0.14694583  0.17283610  1
  O  O577  1  0.41146547  0.14956777  0.42234972  1
  O  O578  1  0.41234387  0.14725961  0.67287600  1
  O  O579  1  0.41246436  0.14797380  0.92282048  1
  O  O580  1  0.41448536  0.48252902  0.17283207  1
  O  O581  1  0.41194524  0.48040865  0.42418855  1
  O  O582  1  0.41425151  0.48157519  0.67227671  1
  O  O583  1  0.41537281  0.48210621  0.92179131  1
  O  O584  1  0.41232996  0.81531651  0.17227941  1
  O  O585  1  0.41146589  0.81497005  0.42339548  1
  O  O586  1  0.41104824  0.81638529  0.67165565  1
  O  O587  1  0.41154859  0.81541660  0.92129081  1
  O  O588  1  0.91052964  0.14900226  0.17206702  1
  O  O589  1  0.91221068  0.14780054  0.42309499  1
  O  O590  1  0.91231215  0.14802096  0.67303598  1
  O  O591  1  0.91234972  0.14795758  0.92217417  1
  O  O592  1  0.91084950  0.48020013  0.17383888  1
  O  O593  1  0.91274782  0.48149142  0.42287948  1
  O  O594  1  0.91145097  0.48293460  0.67081264  1
  O  O595  1  0.91374154  0.48250588  0.92218575  1
  O  O596  1  0.91234192  0.81562853  0.17253821  1
  O  O597  1  0.91276068  0.81552447  0.42352781  1
  O  O598  1  0.91401253  0.81419025  0.67258691  1
  O  O599  1  0.91209920  0.81443005  0.92342509  1
  O  O600  1  0.08471167  0.18471868  0.07682379  1
  O  O601  1  0.08707773  0.18422829  0.32760816  1
  O  O602  1  0.08710143  0.18366991  0.57756271  1
  O  O603  1  0.08715335  0.18459863  0.82762073  1
  O  O604  1  0.08825519  0.51806172  0.07820545  1
  O  O605  1  0.08902846  0.51721775  0.32814526  1
  O  O606  1  0.08740212  0.51937720  0.57636163  1
  O  O607  1  0.08515561  0.51751503  0.82738430  1
  O  O608  1  0.08907954  0.85254898  0.07686425  1
  O  O609  1  0.08906826  0.85312346  0.32699739  1
  O  O610  1  0.08892969  0.85168105  0.57855121  1
  O  O611  1  0.09037025  0.85293201  0.82751565  1
  O  O612  1  0.58826121  0.18545602  0.07832612  1
  O  O613  1  0.58728985  0.18480314  0.32718917  1
  O  O614  1  0.58947049  0.18417075  0.57750595  1
  O  O615  1  0.58794252  0.18374356  0.82727275  1
  O  O616  1  0.58640661  0.51815121  0.07800952  1
  O  O617  1  0.58812055  0.51835624  0.32860072  1
  O  O618  1  0.58927629  0.51807573  0.57751858  1
  O  O619  1  0.58702637  0.51808098  0.82681910  1
  O  O620  1  0.58694139  0.85184236  0.07699704  1
  O  O621  1  0.58866201  0.85176962  0.32755343  1
  O  O622  1  0.58661456  0.85309016  0.57656695  1
  O  O623  1  0.58583923  0.85260688  0.82731385  1
  O  O624  1  0.33739960  0.18399513  0.04673994  1
  O  O625  1  0.33839612  0.18404437  0.29781266  1
  O  O626  1  0.33881133  0.18521301  0.54664254  1
  O  O627  1  0.33784482  0.18366882  0.79664080  1
  O  O628  1  0.33917502  0.51770601  0.04782893  1
  O  O629  1  0.33666446  0.51832884  0.29766133  1
  O  O630  1  0.33593565  0.51736990  0.54767374  1
  O  O631  1  0.33872481  0.51930647  0.79835683  1
  O  O632  1  0.33804004  0.85333370  0.04783374  1
  O  O633  1  0.33707466  0.85255345  0.29733772  1
  O  O634  1  0.33869702  0.85218367  0.54769037  1
  O  O635  1  0.33813239  0.85195058  0.79687752  1
  O  O636  1  0.83763190  0.18354013  0.04684163  1
  O  O637  1  0.83662005  0.18486529  0.29684502  1
  O  O638  1  0.83595253  0.18470679  0.54752684  1
  O  O639  1  0.83512258  0.18377124  0.79701985  1
  O  O640  1  0.83802733  0.51916321  0.04660997  1
  O  O641  1  0.83710273  0.51680351  0.29723015  1
  O  O642  1  0.83737218  0.51832229  0.54822909  1
  O  O643  1  0.83690753  0.51789081  0.79768916  1
  O  O644  1  0.83573056  0.85158611  0.04722212  1
  O  O645  1  0.83600647  0.85312554  0.29793467  1
  O  O646  1  0.83649688  0.85179077  0.54767374  1
  O  O647  1  0.83786877  0.85284790  0.79723366  1
  O  O648  1  0.16325249  0.14784110  0.20253301  1
  O  O649  1  0.16317282  0.14835048  0.45197867  1
  O  O650  1  0.16267441  0.14712641  0.70148527  1
  O  O651  1  0.16326715  0.14772095  0.95137368  1
  O  O652  1  0.16217129  0.48215526  0.20333120  1
  O  O653  1  0.16307671  0.48262511  0.45249648  1
  O  O654  1  0.16212193  0.48196656  0.70298264  1
  O  O655  1  0.16219347  0.48130043  0.95164183  1
  O  O656  1  0.16239356  0.81558618  0.20306405  1
  O  O657  1  0.16364179  0.81413909  0.45307596  1
  O  O658  1  0.16386606  0.81604890  0.70230269  1
  O  O659  1  0.16327135  0.81622036  0.95284246  1
  O  O660  1  0.66334231  0.14857151  0.20268062  1
  O  O661  1  0.66276998  0.14816322  0.45330657  1
  O  O662  1  0.66184777  0.14865987  0.70253982  1
  O  O663  1  0.66245728  0.14693513  0.95155548  1
  O  O664  1  0.66299432  0.48076289  0.20180670  1
  O  O665  1  0.66348691  0.48168760  0.45359136  1
  O  O666  1  0.66060399  0.48182530  0.70279854  1
  O  O667  1  0.66103254  0.48193893  0.95213464  1
  O  O668  1  0.66237731  0.81596730  0.20321357  1
  O  O669  1  0.66405457  0.81493932  0.45330851  1
  O  O670  1  0.66230642  0.81431122  0.70238712  1
  O  O671  1  0.66370413  0.81641719  0.95225443  1
