# generated using pymatgen
data_Na2MnFe(PO4)2
_symmetry_space_group_name_H-M   'P 1'
_cell_length_a   21.08451813
_cell_length_b   18.93738447
_cell_length_c   20.04414954
_cell_angle_alpha   89.99949447
_cell_angle_beta   90.00054017
_cell_angle_gamma   89.99926528
_symmetry_Int_Tables_number   1
_chemical_formula_structural   Na2MnFe(PO4)2
_chemical_formula_sum   'Na96 Mn48 Fe48 P96 O384'
_cell_volume   8003.34079710
_cell_formula_units_Z   48
loop_
 _symmetry_equiv_pos_site_id
 _symmetry_equiv_pos_as_xyz
  1  'x, y, z'
loop_
 _atom_site_type_symbol
 _atom_site_label
 _atom_site_symmetry_multiplicity
 _atom_site_fract_x
 _atom_site_fract_y
 _atom_site_fract_z
 _atom_site_occupancy
  Na  Na0  1  0.00028814  0.00002113  0.00100407  1
  Na  Na1  1  0.00140051  0.00025401  0.25054914  1
  Na  Na2  1  0.00037592  -0.00080478  0.49946884  1
  Na  Na3  1  0.00113820  0.00075946  0.74938409  1
  Na  Na4  1  0.00002687  0.33346995  0.00040306  1
  Na  Na5  1  -0.00069405  0.33333031  0.25153098  1
  Na  Na6  1  -0.00092174  0.33324307  0.49953907  1
  Na  Na7  1  -0.00036333  0.33331566  0.74836724  1
  Na  Na8  1  -0.00086573  0.66622322  -0.00016334  1
  Na  Na9  1  -0.00038430  0.66653827  0.25058508  1
  Na  Na10  1  0.00067673  0.66728525  0.49972266  1
  Na  Na11  1  -0.00068661  0.66634636  0.74939518  1
  Na  Na12  1  0.49970042  -0.00078247  0.00000314  1
  Na  Na13  1  0.50125254  0.00041954  0.25078549  1
  Na  Na14  1  0.50083911  0.00031971  0.49948086  1
  Na  Na15  1  0.50130586  0.00037928  0.74937871  1
  Na  Na16  1  0.49989029  0.33342860  0.00075640  1
  Na  Na17  1  0.50116004  0.33396702  0.25083595  1
  Na  Na18  1  0.49997637  0.33382274  0.49974362  1
  Na  Na19  1  0.49875035  0.33343001  0.74873172  1
  Na  Na20  1  0.50064119  0.66670224  -0.00013703  1
  Na  Na21  1  0.49949814  0.66579827  0.25146348  1
  Na  Na22  1  0.49810321  0.66594603  0.50009043  1
  Na  Na23  1  0.49909201  0.66695269  0.74888759  1
  Na  Na24  1  0.24756789  -0.00049985  0.12422778  1
  Na  Na25  1  0.24883971  -0.00033792  0.37507120  1
  Na  Na26  1  0.25066830  0.00035009  0.62618311  1
  Na  Na27  1  0.24868374  -0.00035865  0.87435150  1
  Na  Na28  1  0.25041938  0.33353532  0.12433074  1
  Na  Na29  1  0.25217134  0.33428033  0.37603566  1
  Na  Na30  1  0.24939033  0.33303755  0.62440557  1
  Na  Na31  1  0.25089040  0.33463221  0.87590010  1
  Na  Na32  1  0.24969324  0.66652268  0.12647909  1
  Na  Na33  1  0.25109404  0.66684022  0.37506969  1
  Na  Na34  1  0.25016211  0.66700969  0.62429252  1
  Na  Na35  1  0.24757018  0.66596624  0.87403462  1
  Na  Na36  1  0.75056612  0.00033061  0.12637937  1
  Na  Na37  1  0.74848995  -0.00042594  0.37570431  1
  Na  Na38  1  0.74815444  -0.00110460  0.62366119  1
  Na  Na39  1  0.75106540  0.00027497  0.87410488  1
  Na  Na40  1  0.74731611  0.33240474  0.12497147  1
  Na  Na41  1  0.74916695  0.33386116  0.37503406  1
  Na  Na42  1  0.75028202  0.33299690  0.62467323  1
  Na  Na43  1  0.75187448  0.33356636  0.87556708  1
  Na  Na44  1  0.75188518  0.66718843  0.12392419  1
  Na  Na45  1  0.74898536  0.66568075  0.37433880  1
  Na  Na46  1  0.75227533  0.66690437  0.62596112  1
  Na  Na47  1  0.75263414  0.66728562  0.87510884  1
  Na  Na48  1  0.00033836  0.16633013  0.00092694  1
  Na  Na49  1  0.00023694  0.16706548  0.25035612  1
  Na  Na50  1  -0.00094302  0.16740926  0.49966064  1
  Na  Na51  1  -0.00159321  0.16739947  0.74922673  1
  Na  Na52  1  0.00070885  0.50060667  -0.00050432  1
  Na  Na53  1  0.00044186  0.50053926  0.25177776  1
  Na  Na54  1  0.00002605  0.50052578  0.49997895  1
  Na  Na55  1  0.00101820  0.50019310  0.74912244  1
  Na  Na56  1  -0.00045458  0.83249790  0.00093186  1
  Na  Na57  1  -0.00137646  0.83321170  0.25033077  1
  Na  Na58  1  0.00083745  0.83232756  0.49920699  1
  Na  Na59  1  0.00064658  0.83214770  0.74881815  1
  Na  Na60  1  0.49918657  0.16755948  0.00127388  1
  Na  Na61  1  0.50011841  0.16739647  0.25071516  1
  Na  Na62  1  0.50151676  0.16621591  0.50002409  1
  Na  Na63  1  0.50065645  0.16638970  0.74851055  1
  Na  Na64  1  0.49993534  0.50051745  0.00021950  1
  Na  Na65  1  0.49995770  0.50051960  0.25129950  1
  Na  Na66  1  0.49941634  0.50057836  0.49918403  1
  Na  Na67  1  0.50031202  0.50013707  0.74918939  1
  Na  Na68  1  0.50168870  0.83162613  -0.00064775  1
  Na  Na69  1  0.50080380  0.83305918  0.25086328  1
  Na  Na70  1  0.49828076  0.83322820  0.50032259  1
  Na  Na71  1  0.49735027  0.83342064  0.74900253  1
  Na  Na72  1  0.24871329  0.16725692  0.12420552  1
  Na  Na73  1  0.25205483  0.16606735  0.37492629  1
  Na  Na74  1  0.25043712  0.16710247  0.62561136  1
  Na  Na75  1  0.24985242  0.16656711  0.87561242  1
  Na  Na76  1  0.25107153  0.49998402  0.12562218  1
  Na  Na77  1  0.25178699  0.49952997  0.37521128  1
  Na  Na78  1  0.24884725  0.50107987  0.62404181  1
  Na  Na79  1  0.24773770  0.50148346  0.87481162  1
  Na  Na80  1  0.24818953  0.83295364  0.12521012  1
  Na  Na81  1  0.24839144  0.83350890  0.37594301  1
  Na  Na82  1  0.24999277  0.83258499  0.62549142  1
  Na  Na83  1  0.24862799  0.83280290  0.87389998  1
  Na  Na84  1  0.75069049  0.16649425  0.12554417  1
  Na  Na85  1  0.74753309  0.16770384  0.37616557  1
  Na  Na86  1  0.74919040  0.16752840  0.62407976  1
  Na  Na87  1  0.75233097  0.16633118  0.87400048  1
  Na  Na88  1  0.74886680  0.50065192  0.12482318  1
  Na  Na89  1  0.74806575  0.50078915  0.37393847  1
  Na  Na90  1  0.75149466  0.49989783  0.62550030  1
  Na  Na91  1  0.75198665  0.50022901  0.87543573  1
  Na  Na92  1  0.75079410  0.83243008  0.12485211  1
  Na  Na93  1  0.75179633  0.83158250  0.37501102  1
  Na  Na94  1  0.75077213  0.83251095  0.62472299  1
  Na  Na95  1  0.75064291  0.83255368  0.87531710  1
  Mn  Mn96  1  0.64283757  0.91688013  0.99780921  1
  Mn  Mn97  1  0.35791515  0.75036499  0.25226086  1
  Mn  Mn98  1  0.64262378  0.91589533  0.24784039  1
  Mn  Mn99  1  0.10714010  0.74912476  0.12301388  1
  Mn  Mn100  1  0.64209121  0.91613841  0.74743427  1
  Mn  Mn101  1  0.60795491  0.41679731  0.87261633  1
  Mn  Mn102  1  0.14104964  0.91565445  0.99715132  1
  Mn  Mn103  1  0.89238566  0.91645077  0.12797865  1
  Mn  Mn104  1  0.10815501  0.08364948  0.62169783  1
  Mn  Mn105  1  0.60841656  0.08326256  0.87292843  1
  Mn  Mn106  1  0.35828638  0.08333129  0.75280869  1
  Mn  Mn107  1  0.14305434  0.58282199  0.24804556  1
  Mn  Mn108  1  0.64250147  0.24928943  0.99707612  1
  Mn  Mn109  1  0.39156444  0.91710324  0.37777175  1
  Mn  Mn110  1  0.85654220  0.08331909  0.50202285  1
  Mn  Mn111  1  0.39231352  0.91689586  0.87754524  1
  Mn  Mn112  1  0.89242824  0.25108658  0.12804067  1
  Mn  Mn113  1  0.10793195  0.41675007  0.37313892  1
  Mn  Mn114  1  0.10812013  0.08309959  0.37338751  1
  Mn  Mn115  1  0.60843856  0.08298164  0.12217455  1
  Mn  Mn116  1  0.89230814  0.91662790  0.62650810  1
  Mn  Mn117  1  0.85792306  0.08259304  0.75141032  1
  Mn  Mn118  1  0.89151210  0.58341886  0.37783800  1
  Mn  Mn119  1  0.35761269  0.74985667  0.00183281  1
  Mn  Mn120  1  0.35738876  0.08327367  0.25178407  1
  Mn  Mn121  1  0.39230505  0.24988651  0.62700884  1
  Mn  Mn122  1  0.39256325  0.25050944  0.12783908  1
  Mn  Mn123  1  0.85880153  0.41660937  0.00334342  1
  Mn  Mn124  1  0.64254602  0.25021973  0.74822278  1
  Mn  Mn125  1  0.35694804  0.41730895  0.75197719  1
  Mn  Mn126  1  0.64286196  0.58358596  0.99773601  1
  Mn  Mn127  1  0.85766253  0.08321889  0.25333159  1
  Mn  Mn128  1  0.60721219  0.75001464  0.62270243  1
  Mn  Mn129  1  0.89253013  0.91691028  0.87740044  1
  Mn  Mn130  1  0.85911907  0.41704670  0.75200016  1
  Mn  Mn131  1  0.60793004  0.41710971  0.62226084  1
  Mn  Mn132  1  0.14166221  0.25070171  0.74800151  1
  Mn  Mn133  1  0.85681761  0.41693990  0.25188349  1
  Mn  Mn134  1  0.35723486  0.08276518  0.00211352  1
  Mn  Mn135  1  0.14166410  0.25068880  0.99745189  1
  Mn  Mn136  1  0.64331665  0.58340036  0.74787892  1
  Mn  Mn137  1  0.39143636  0.58296984  0.87702415  1
  Mn  Mn138  1  0.39201162  0.91597307  0.12740352  1
  Mn  Mn139  1  0.60768920  0.74980048  0.37350003  1
  Mn  Mn140  1  0.10757181  0.41634540  0.87223203  1
  Mn  Mn141  1  0.14194997  0.91622189  0.74737896  1
  Mn  Mn142  1  0.14279036  0.24997338  0.24880685  1
  Mn  Mn143  1  0.35779013  0.41760858  0.00241317  1
  Fe  Fe144  1  0.14166122  0.58358005  0.74728799  1
  Fe  Fe145  1  0.89402369  0.58301458  0.87667995  1
  Fe  Fe146  1  0.64234934  0.25047659  0.24869207  1
  Fe  Fe147  1  0.60672729  0.08380163  0.37367633  1
  Fe  Fe148  1  0.39290844  0.58365072  0.12657617  1
  Fe  Fe149  1  0.10648669  0.75014675  0.87307199  1
  Fe  Fe150  1  0.14188405  0.91661163  0.24865559  1
  Fe  Fe151  1  0.39194320  0.58384736  0.62662459  1
  Fe  Fe152  1  0.39317013  0.58290334  0.37734908  1
  Fe  Fe153  1  0.60724848  0.08306569  0.62278125  1
  Fe  Fe154  1  0.85742529  0.74919806  0.50146141  1
  Fe  Fe155  1  0.89151148  0.24984156  0.37719897  1
  Fe  Fe156  1  0.85769535  0.75053400  0.00167765  1
  Fe  Fe157  1  0.85668240  0.41737279  0.50101999  1
  Fe  Fe158  1  0.10703214  0.41679805  0.62227218  1
  Fe  Fe159  1  0.85835832  0.75031660  0.75192739  1
  Fe  Fe160  1  0.35597933  0.74941642  0.75196647  1
  Fe  Fe161  1  0.39249890  0.25001987  0.87633950  1
  Fe  Fe162  1  0.35853117  0.41643745  0.25178826  1
  Fe  Fe163  1  0.85699278  0.74957140  0.25177113  1
  Fe  Fe164  1  0.64270293  0.58343037  0.49926760  1
  Fe  Fe165  1  0.60676841  0.41758043  0.12343546  1
  Fe  Fe166  1  0.10719432  0.74947011  0.62246329  1
  Fe  Fe167  1  0.14304754  0.24988279  0.49807270  1
  Fe  Fe168  1  0.14207773  0.58364847  0.99887599  1
  Fe  Fe169  1  0.85864295  0.08302432  0.00179791  1
  Fe  Fe170  1  0.89303120  0.91698481  0.37714887  1
  Fe  Fe171  1  0.60785412  0.74935288  0.12336664  1
  Fe  Fe172  1  0.39236216  0.91637796  0.62592852  1
  Fe  Fe173  1  0.89310911  0.58251951  0.12673906  1
  Fe  Fe174  1  0.89267475  0.25053722  0.62577339  1
  Fe  Fe175  1  0.10707692  0.75011042  0.37372714  1
  Fe  Fe176  1  0.14334010  0.58342479  0.49818627  1
  Fe  Fe177  1  0.35621915  0.75037355  0.50185935  1
  Fe  Fe178  1  0.10660923  0.08329610  0.87357866  1
  Fe  Fe179  1  0.10709658  0.08406793  0.12330680  1
  Fe  Fe180  1  0.64208227  0.58349189  0.24760454  1
  Fe  Fe181  1  0.60787411  0.74961888  0.87255699  1
  Fe  Fe182  1  0.35728678  0.41676371  0.50198877  1
  Fe  Fe183  1  0.64264549  0.25092183  0.49798984  1
  Fe  Fe184  1  0.39345575  0.25028240  0.37706210  1
  Fe  Fe185  1  0.14312025  0.91676336  0.49862663  1
  Fe  Fe186  1  0.10817311  0.41684773  0.12438867  1
  Fe  Fe187  1  0.60708929  0.41649087  0.37365881  1
  Fe  Fe188  1  0.64215762  0.91559865  0.49800129  1
  Fe  Fe189  1  0.89334494  0.58312266  0.62578322  1
  Fe  Fe190  1  0.89284308  0.25000961  0.87679427  1
  Fe  Fe191  1  0.35774057  0.08312506  0.50158530  1
  P  P192  1  0.05386156  0.25083340  0.11092332  1
  P  P193  1  0.05310250  0.25001804  0.36165517  1
  P  P194  1  0.05296368  0.25099896  0.60891322  1
  P  P195  1  0.05160606  0.24932603  0.85978120  1
  P  P196  1  0.05295555  0.58247688  0.11009856  1
  P  P197  1  0.05478322  0.58426264  0.36170052  1
  P  P198  1  0.05432454  0.58349633  0.61009026  1
  P  P199  1  0.05412658  0.58438700  0.86024137  1
  P  P200  1  0.05434554  0.91689059  0.11161530  1
  P  P201  1  0.05441870  0.91559964  0.36108622  1
  P  P202  1  0.05403077  0.91548931  0.60886384  1
  P  P203  1  0.05299794  0.91624803  0.85979853  1
  P  P204  1  0.55506363  0.25125648  0.11155945  1
  P  P205  1  0.55441141  0.25050916  0.36146013  1
  P  P206  1  0.55427304  0.24981079  0.60918809  1
  P  P207  1  0.55188566  0.25006975  0.85957396  1
  P  P208  1  0.55364964  0.58349427  0.11148295  1
  P  P209  1  0.55468362  0.58262831  0.36146693  1
  P  P210  1  0.55247204  0.58380848  0.60931206  1
  P  P211  1  0.55338848  0.58413055  0.85951723  1
  P  P212  1  0.55361737  0.91519445  0.10998828  1
  P  P213  1  0.55436558  0.91690589  0.36151535  1
  P  P214  1  0.55258450  0.91658474  0.60923191  1
  P  P215  1  0.55360620  0.91549215  0.85957791  1
  P  P216  1  0.44709328  0.08304849  0.14046379  1
  P  P217  1  0.44689028  0.08440949  0.39036163  1
  P  P218  1  0.44632214  0.08228219  0.63828221  1
  P  P219  1  0.44717648  0.08433957  0.89027206  1
  P  P220  1  0.44724601  0.41789280  0.14095057  1
  P  P221  1  0.44592022  0.41656306  0.38938762  1
  P  P222  1  0.44506366  0.41792048  0.63837880  1
  P  P223  1  0.44652634  0.41615576  0.88988534  1
  P  P224  1  0.44819999  0.74904127  0.14022170  1
  P  P225  1  0.44553809  0.74930825  0.39091691  1
  P  P226  1  0.44352965  0.74990584  0.63877499  1
  P  P227  1  0.44666950  0.74940327  0.88866587  1
  P  P228  1  0.94686377  0.08355355  0.13983954  1
  P  P229  1  0.94634944  0.08306748  0.39016698  1
  P  P230  1  0.94662340  0.08395758  0.63899776  1
  P  P231  1  0.94729039  0.08378729  0.89036269  1
  P  P232  1  0.94861009  0.41792570  0.14090601  1
  P  P233  1  0.94533455  0.41641134  0.39072390  1
  P  P234  1  0.94640156  0.41722465  0.63753057  1
  P  P235  1  0.94696738  0.41683356  0.88976063  1
  P  P236  1  0.94455386  0.74854069  0.13979472  1
  P  P237  1  0.94556737  0.75057345  0.38932754  1
  P  P238  1  0.94585489  0.74894141  0.63849344  1
  P  P239  1  0.94628957  0.74939308  0.88922520  1
  P  P240  1  0.19569691  0.08282249  0.23447264  1
  P  P241  1  0.19828958  0.08354137  0.48541048  1
  P  P242  1  0.19529714  0.08377081  0.73607388  1
  P  P243  1  0.19421941  0.08333456  0.98502097  1
  P  P244  1  0.19829905  0.41635628  0.23500959  1
  P  P245  1  0.19647316  0.41682809  0.48630446  1
  P  P246  1  0.19528011  0.41767711  0.73373462  1
  P  P247  1  0.19520309  0.41822894  0.98629449  1
  P  P248  1  0.19515125  0.75044144  0.23678213  1
  P  P249  1  0.19563973  0.74971933  0.48602814  1
  P  P250  1  0.19481289  0.74899646  0.73503018  1
  P  P251  1  0.19546280  0.74850154  0.98419570  1
  P  P252  1  0.69523891  0.08426376  0.23679194  1
  P  P253  1  0.69379356  0.08318490  0.48580865  1
  P  P254  1  0.69620217  0.08331948  0.73356814  1
  P  P255  1  0.69916506  0.08319119  0.98459070  1
  P  P256  1  0.69405051  0.41682969  0.23579069  1
  P  P257  1  0.69693626  0.41734703  0.48466022  1
  P  P258  1  0.69755323  0.41671843  0.73481833  1
  P  P259  1  0.69613931  0.41698595  0.98598556  1
  P  P260  1  0.69704756  0.74885378  0.23446602  1
  P  P261  1  0.69780329  0.74914505  0.48544994  1
  P  P262  1  0.69737546  0.74962397  0.73575314  1
  P  P263  1  0.69660004  0.74975550  0.98531397  1
  P  P264  1  0.30444576  0.25015860  0.01408546  1
  P  P265  1  0.30449826  0.25089394  0.26591154  1
  P  P266  1  0.30397178  0.24993615  0.51364282  1
  P  P267  1  0.30352885  0.25047424  0.76592194  1
  P  P268  1  0.30228437  0.58403127  0.01587079  1
  P  P269  1  0.30605460  0.58251364  0.26479815  1
  P  P270  1  0.30427244  0.58333570  0.51383030  1
  P  P271  1  0.30227737  0.58415603  0.76340320  1
  P  P272  1  0.30238954  0.91598366  0.01504484  1
  P  P273  1  0.30146177  0.91659411  0.26522226  1
  P  P274  1  0.30245796  0.91673564  0.51556656  1
  P  P275  1  0.30457723  0.91553960  0.76366962  1
  P  P276  1  0.80517324  0.24903992  0.01438125  1
  P  P277  1  0.80227209  0.25040487  0.26598318  1
  P  P278  1  0.80352163  0.25113896  0.51392061  1
  P  P279  1  0.80570558  0.25012248  0.76420416  1
  P  P280  1  0.80606808  0.58409240  0.01438693  1
  P  P281  1  0.80309043  0.58369151  0.26344201  1
  P  P282  1  0.80268790  0.58302470  0.51525066  1
  P  P283  1  0.80650337  0.58416171  0.76445941  1
  P  P284  1  0.80412814  0.91682308  0.01517803  1
  P  P285  1  0.80421213  0.91561701  0.26609435  1
  P  P286  1  0.80304731  0.91570503  0.51337213  1
  P  P287  1  0.80363655  0.91565403  0.76461693  1
  O  O288  1  0.05671723  0.25079988  0.18770071  1
  O  O289  1  0.05891053  0.25005391  0.43824528  1
  O  O290  1  0.05649845  0.25030800  0.68560996  1
  O  O291  1  0.05541229  0.25007884  0.93646462  1
  O  O292  1  0.05674437  0.58332798  0.18685139  1
  O  O293  1  0.05939817  0.58360229  0.43839873  1
  O  O294  1  0.05808229  0.58358898  0.68685964  1
  O  O295  1  0.05828124  0.58390200  0.93690279  1
  O  O296  1  0.05802924  0.91625132  0.18841241  1
  O  O297  1  0.05963494  0.91634834  0.43776715  1
  O  O298  1  0.05681540  0.91625832  0.68566700  1
  O  O299  1  0.05515160  0.91587085  0.93662595  1
  O  O300  1  0.55882373  0.25025785  0.18834681  1
  O  O301  1  0.55892889  0.25092959  0.43816490  1
  O  O302  1  0.55717092  0.25071425  0.68595831  1
  O  O303  1  0.55575825  0.25002837  0.93634427  1
  O  O304  1  0.55784749  0.58375626  0.18823143  1
  O  O305  1  0.55959319  0.58355243  0.43811747  1
  O  O306  1  0.55706551  0.58380310  0.68593820  1
  O  O307  1  0.55685557  0.58375685  0.93631269  1
  O  O308  1  0.55679192  0.91609795  0.18680563  1
  O  O309  1  0.55856000  0.91553681  0.43825213  1
  O  O310  1  0.55622576  0.91568639  0.68595047  1
  O  O311  1  0.55694571  0.91580059  0.93634880  1
  O  O312  1  0.44326236  0.08290852  0.06372391  1
  O  O313  1  0.44319200  0.08353144  0.31370120  1
  O  O314  1  0.44129334  0.08291791  0.56161553  1
  O  O315  1  0.44449714  0.08357184  0.81339891  1
  O  O316  1  0.44351839  0.41733114  0.06422222  1
  O  O317  1  0.44201489  0.41649153  0.31270091  1
  O  O318  1  0.44082868  0.41736308  0.56158544  1
  O  O319  1  0.44326470  0.41715937  0.81309477  1
  O  O320  1  0.44451534  0.74946346  0.06351367  1
  O  O321  1  0.44305803  0.75031345  0.31412687  1
  O  O322  1  0.43935814  0.74988026  0.56198598  1
  O  O323  1  0.44101437  0.74922855  0.81206182  1
  O  O324  1  0.94221590  0.08314609  0.06316390  1
  O  O325  1  0.94387099  0.08324037  0.31336549  1
  O  O326  1  0.94301093  0.08297791  0.56228231  1
  O  O327  1  0.94368420  0.08293102  0.81363268  1
  O  O328  1  0.94506183  0.41738076  0.06420107  1
  O  O329  1  0.94201520  0.41713553  0.31397816  1
  O  O330  1  0.94140199  0.41744459  0.56094751  1
  O  O331  1  0.94470948  0.41685120  0.81293988  1
  O  O332  1  0.94092072  0.74974249  0.06299525  1
  O  O333  1  0.94088887  0.74938822  0.31265849  1
  O  O334  1  0.94082970  0.74961772  0.56177684  1
  O  O335  1  0.94236142  0.75036850  0.81245437  1
  O  O336  1  0.18991105  0.08370632  0.06181993  1
  O  O337  1  0.19314966  0.08366980  0.31134851  1
  O  O338  1  0.19487154  0.08390560  0.56211213  1
  O  O339  1  0.19021678  0.08377435  0.81278131  1
  O  O340  1  0.19132331  0.41720230  0.06303479  1
  O  O341  1  0.19411590  0.41665601  0.31173441  1
  O  O342  1  0.19146286  0.41677714  0.56292390  1
  O  O343  1  0.19258825  0.41700465  0.81061559  1
  O  O344  1  0.19251524  0.74919034  0.06101066  1
  O  O345  1  0.19126662  0.74977454  0.31352856  1
  O  O346  1  0.19137057  0.74947322  0.56273794  1
  O  O347  1  0.19005749  0.74964983  0.81169255  1
  O  O348  1  0.69493569  0.08337639  0.06133756  1
  O  O349  1  0.69073810  0.08378659  0.31352709  1
  O  O350  1  0.69033337  0.08302760  0.56263752  1
  O  O351  1  0.69364761  0.08342828  0.81041010  1
  O  O352  1  0.69115520  0.41733761  0.06270974  1
  O  O353  1  0.69038761  0.41699309  0.31260266  1
  O  O354  1  0.69394179  0.41704141  0.56140782  1
  O  O355  1  0.69428109  0.41680120  0.81159900  1
  O  O356  1  0.69157180  0.74935559  0.06198740  1
  O  O357  1  0.69306364  0.74917652  0.31114343  1
  O  O358  1  0.69414540  0.74941927  0.56212064  1
  O  O359  1  0.69234863  0.74955947  0.81240168  1
  O  O360  1  0.30696863  0.25034439  0.18907457  1
  O  O361  1  0.30899731  0.24997587  0.43701627  1
  O  O362  1  0.30687790  0.25024280  0.68907784  1
  O  O363  1  0.30884896  0.25024165  0.93737204  1
  O  O364  1  0.31001987  0.58350675  0.18802862  1
  O  O365  1  0.30887544  0.58298879  0.43712620  1
  O  O366  1  0.30721931  0.58360827  0.68679369  1
  O  O367  1  0.30580423  0.58388476  0.93908048  1
  O  O368  1  0.30541313  0.91622289  0.18858110  1
  O  O369  1  0.30561505  0.91678033  0.43874836  1
  O  O370  1  0.30876443  0.91651895  0.68696153  1
  O  O371  1  0.30601845  0.91605376  0.93822652  1
  O  O372  1  0.80643277  0.25037978  0.18924365  1
  O  O373  1  0.80809331  0.25023405  0.43722139  1
  O  O374  1  0.80982255  0.25040412  0.68736539  1
  O  O375  1  0.80964773  0.24985867  0.93758559  1
  O  O376  1  0.80826407  0.58269145  0.18687987  1
  O  O377  1  0.80551035  0.58313582  0.43845823  1
  O  O378  1  0.81041131  0.58312270  0.68766973  1
  O  O379  1  0.81037899  0.58310049  0.93763384  1
  O  O380  1  0.80715758  0.91676861  0.18928149  1
  O  O381  1  0.80812810  0.91642536  0.43678712  1
  O  O382  1  0.80659585  0.91614242  0.68782162  1
  O  O383  1  0.80675239  0.91679611  0.93838789  1
  O  O384  1  0.23436338  0.25041702  0.03800561  1
  O  O385  1  0.23487675  0.25040528  0.29140040  1
  O  O386  1  0.23359761  0.25013025  0.53753828  1
  O  O387  1  0.23374244  0.25075944  0.79070605  1
  O  O388  1  0.23232742  0.58356319  0.04061128  1
  O  O389  1  0.23594254  0.58305898  0.28888259  1
  O  O390  1  0.23371783  0.58369830  0.53731027  1
  O  O391  1  0.23192745  0.58379682  0.78703840  1
  O  O392  1  0.23255811  0.91583234  0.03951021  1
  O  O393  1  0.23146400  0.91672733  0.28984016  1
  O  O394  1  0.23238401  0.91658094  0.54034082  1
  O  O395  1  0.23449627  0.91585379  0.78776842  1
  O  O396  1  0.73518071  0.24942418  0.03852777  1
  O  O397  1  0.73206772  0.25085381  0.28992698  1
  O  O398  1  0.73295995  0.25058450  0.53720161  1
  O  O399  1  0.73569571  0.25013642  0.78845159  1
  O  O400  1  0.73589605  0.58374686  0.03818505  1
  O  O401  1  0.73265668  0.58338612  0.28690766  1
  O  O402  1  0.73275983  0.58322515  0.54046061  1
  O  O403  1  0.73653805  0.58371084  0.78890897  1
  O  O404  1  0.73471441  0.91645734  0.04114413  1
  O  O405  1  0.73441276  0.91564162  0.29089621  1
  O  O406  1  0.73264690  0.91586929  0.53706505  1
  O  O407  1  0.73411687  0.91595420  0.79007112  1
  O  O408  1  0.26526536  0.08340212  0.20893424  1
  O  O409  1  0.26826047  0.08294113  0.46041747  1
  O  O410  1  0.26550727  0.08360153  0.71258027  1
  O  O411  1  0.26431019  0.08293395  0.96110923  1
  O  O412  1  0.26845077  0.41656799  0.21090135  1
  O  O413  1  0.26696424  0.41706269  0.46281258  1
  O  O414  1  0.26491778  0.41723338  0.70853508  1
  O  O415  1  0.26507636  0.41832201  0.96163569  1
  O  O416  1  0.26506534  0.74985573  0.21217049  1
  O  O417  1  0.26614005  0.74983041  0.46235115  1
  O  O418  1  0.26519960  0.74950623  0.71150361  1
  O  O419  1  0.26505347  0.74938184  0.95879515  1
  O  O420  1  0.76534840  0.08353994  0.21279049  1
  O  O421  1  0.76384195  0.08352737  0.46141311  1
  O  O422  1  0.76580328  0.08305573  0.70812061  1
  O  O423  1  0.76914050  0.08318240  0.96008704  1
  O  O424  1  0.76404173  0.41672587  0.21113895  1
  O  O425  1  0.76689986  0.41742749  0.45961685  1
  O  O426  1  0.76726927  0.41662391  0.70992344  1
  O  O427  1  0.76632140  0.41714635  0.96244346  1
  O  O428  1  0.76725352  0.74964828  0.21037922  1
  O  O429  1  0.76783472  0.74870734  0.46059383  1
  O  O430  1  0.76774107  0.74966127  0.71224076  1
  O  O431  1  0.76719304  0.74992138  0.96224834  1
  O  O432  1  0.01715822  0.08405609  0.16367282  1
  O  O433  1  0.01595699  0.08319367  0.41568584  1
  O  O434  1  0.01635093  0.08410412  0.66389132  1
  O  O435  1  0.01731964  0.08299410  0.91505009  1
  O  O436  1  0.01841115  0.41727976  0.16617655  1
  O  O437  1  0.01526421  0.41692498  0.41517611  1
  O  O438  1  0.01669987  0.41705474  0.66150224  1
  O  O439  1  0.01648471  0.41682290  0.91541830  1
  O  O440  1  0.01454311  0.74932507  0.16412619  1
  O  O441  1  0.01598920  0.75004760  0.41292089  1
  O  O442  1  0.01640995  0.74925653  0.66162097  1
  O  O443  1  0.01646512  0.74967510  0.91356923  1
  O  O444  1  0.51689066  0.08352634  0.16511636  1
  O  O445  1  0.51708337  0.08383858  0.41452215  1
  O  O446  1  0.51677090  0.08297556  0.66174692  1
  O  O447  1  0.51665857  0.08363561  0.91607059  1
  O  O448  1  0.51725156  0.41756210  0.16551782  1
  O  O449  1  0.51634997  0.41679491  0.41327700  1
  O  O450  1  0.51509555  0.41723897  0.66248900  1
  O  O451  1  0.51609113  0.41684583  0.91532916  1
  O  O452  1  0.51807813  0.74912387  0.16537595  1
  O  O453  1  0.51524606  0.74957628  0.41608121  1
  O  O454  1  0.51373587  0.74987237  0.66267749  1
  O  O455  1  0.51707126  0.74919029  0.91204881  1
  O  O456  1  0.48507332  0.25089760  0.08727203  1
  O  O457  1  0.48399552  0.25072112  0.33773744  1
  O  O458  1  0.48444007  0.25011841  0.58431688  1
  O  O459  1  0.48208600  0.25003329  0.83446123  1
  O  O460  1  0.48350331  0.58330403  0.08701980  1
  O  O461  1  0.48404208  0.58295022  0.33852797  1
  O  O462  1  0.48218367  0.58382846  0.58558372  1
  O  O463  1  0.48364842  0.58369937  0.83453169  1
  O  O464  1  0.48407109  0.91541036  0.08452324  1
  O  O465  1  0.48429247  0.91676696  0.33729731  1
  O  O466  1  0.48240319  0.91628637  0.58490914  1
  O  O467  1  0.48395444  0.91643031  0.83440398  1
  O  O468  1  0.98424422  0.25050410  0.08552510  1
  O  O469  1  0.98255474  0.25013775  0.33864688  1
  O  O470  1  0.98268043  0.25054328  0.58474723  1
  O  O471  1  0.98167887  0.25014943  0.83493554  1
  O  O472  1  0.98296892  0.58329613  0.08546720  1
  O  O473  1  0.98460100  0.58366981  0.33795861  1
  O  O474  1  0.98400009  0.58368245  0.58593140  1
  O  O475  1  0.98384539  0.58338790  0.83618484  1
  O  O476  1  0.98445119  0.91604902  0.08702323  1
  O  O477  1  0.98397841  0.91646539  0.33770680  1
  O  O478  1  0.98429568  0.91566717  0.58384288  1
  O  O479  1  0.98364778  0.91643163  0.83364182  1
  O  O480  1  0.08771170  0.31617237  0.07860603  1
  O  O481  1  0.08627220  0.31502869  0.32814135  1
  O  O482  1  0.08665278  0.31614228  0.57623656  1
  O  O483  1  0.08572280  0.31426064  0.82693068  1
  O  O484  1  0.08711331  0.64722720  0.07687683  1
  O  O485  1  0.08785580  0.64945872  0.32863505  1
  O  O486  1  0.08803736  0.64843514  0.57694742  1
  O  O487  1  0.08695167  0.64974078  0.82690371  1
  O  O488  1  0.08750499  0.98225907  0.07897108  1
  O  O489  1  0.08824126  0.98039483  0.32763998  1
  O  O490  1  0.08841431  0.98041322  0.57625323  1
  O  O491  1  0.08754294  0.98133065  0.82796264  1
  O  O492  1  0.58832315  0.31674727  0.07909533  1
  O  O493  1  0.58788317  0.31552260  0.32817323  1
  O  O494  1  0.58856274  0.31469544  0.57631080  1
  O  O495  1  0.58586647  0.31514479  0.82695547  1
  O  O496  1  0.58719777  0.64849027  0.07824067  1
  O  O497  1  0.58792779  0.64746744  0.32749057  1
  O  O498  1  0.58621021  0.64877189  0.57620430  1
  O  O499  1  0.58740570  0.64923147  0.82703508  1
  O  O500  1  0.58791517  0.98021394  0.07738174  1
  O  O501  1  0.58782751  0.98225363  0.32912237  1
  O  O502  1  0.58660593  0.98156607  0.57685147  1
  O  O503  1  0.58807920  0.98053225  0.82741700  1
  O  O504  1  0.41342944  0.01783384  0.17318784  1
  O  O505  1  0.41275499  0.01958585  0.42350658  1
  O  O506  1  0.41345244  0.01704826  0.67153595  1
  O  O507  1  0.41252464  0.01936020  0.92248714  1
  O  O508  1  0.41317512  0.35300160  0.17397845  1
  O  O509  1  0.41244981  0.35159130  0.42276735  1
  O  O510  1  0.41122954  0.35300845  0.67134949  1
  O  O511  1  0.41270743  0.35084336  0.92200260  1
  O  O512  1  0.41412289  0.68400320  0.17264370  1
  O  O513  1  0.41140947  0.68402406  0.42275111  1
  O  O514  1  0.40995690  0.68474831  0.67190659  1
  O  O515  1  0.41331902  0.68448530  0.92231875  1
  O  O516  1  0.91378928  0.01841826  0.17326203  1
  O  O517  1  0.91228481  0.01776983  0.42225110  1
  O  O518  1  0.91296799  0.01876391  0.67185293  1
  O  O519  1  0.91308818  0.01899622  0.92347166  1
  O  O520  1  0.91407727  0.35309291  0.17343121  1
  O  O521  1  0.91127855  0.35137481  0.42309697  1
  O  O522  1  0.91300600  0.35212649  0.67067835  1
  O  O523  1  0.91266679  0.35185364  0.92205544  1
  O  O524  1  0.91133785  0.68302264  0.17236004  1
  O  O525  1  0.91196773  0.68579039  0.42315838  1
  O  O526  1  0.91283038  0.68375054  0.67167803  1
  O  O527  1  0.91282207  0.68414149  0.92186710  1
  O  O528  1  0.16143320  0.01758987  0.20273499  1
  O  O529  1  0.16399938  0.01844237  0.45325653  1
  O  O530  1  0.16192877  0.01873489  0.70272495  1
  O  O531  1  0.16035376  0.01838802  0.95204665  1
  O  O532  1  0.16445718  0.35134445  0.20230674  1
  O  O533  1  0.16352793  0.35167650  0.45276674  1
  O  O534  1  0.16075050  0.35277149  0.70129295  1
  O  O535  1  0.16166886  0.35328859  0.95273163  1
  O  O536  1  0.16144708  0.68546755  0.20358161  1
  O  O537  1  0.16234321  0.68477128  0.45247832  1
  O  O538  1  0.16161050  0.68390574  0.70160181  1
  O  O539  1  0.16158367  0.68307208  0.95219070  1
  O  O540  1  0.66172632  0.01921065  0.20353385  1
  O  O541  1  0.66022432  0.01808399  0.45290644  1
  O  O542  1  0.66157213  0.01833858  0.70144121  1
  O  O543  1  0.66533017  0.01803399  0.95210167  1
  O  O544  1  0.66031906  0.35170400  0.20314652  1
  O  O545  1  0.66271332  0.35242268  0.45190814  1
  O  O546  1  0.66337846  0.35179390  0.70235208  1
  O  O547  1  0.66297994  0.35176461  0.95280834  1
  O  O548  1  0.66356022  0.68373941  0.20142630  1
  O  O549  1  0.66384429  0.68405689  0.45295518  1
  O  O550  1  0.66410132  0.68469547  0.70219126  1
  O  O551  1  0.66356635  0.68475885  0.95153541  1
  O  O552  1  0.33800965  0.31523649  0.04723188  1
  O  O553  1  0.33873679  0.31604132  0.29802550  1
  O  O554  1  0.33725880  0.31504863  0.54694005  1
  O  O555  1  0.33774962  0.31554220  0.79815975  1
  O  O556  1  0.33612178  0.64914284  0.04854488  1
  O  O557  1  0.34000116  0.64720965  0.29824664  1
  O  O558  1  0.33745652  0.64845266  0.54711594  1
  O  O559  1  0.33544446  0.64927883  0.79676637  1
  O  O560  1  0.33621569  0.98102277  0.04771405  1
  O  O561  1  0.33534252  0.98170865  0.29789213  1
  O  O562  1  0.33664248  0.98166926  0.54810335  1
  O  O563  1  0.33812380  0.98040507  0.79712025  1
  O  O564  1  0.83862678  0.31414789  0.04784067  1
  O  O565  1  0.83634826  0.31533823  0.29862316  1
  O  O566  1  0.83655287  0.31646102  0.54693837  1
  O  O567  1  0.83952064  0.31496110  0.79745879  1
  O  O568  1  0.83941872  0.64943306  0.04696041  1
  O  O569  1  0.83619722  0.64887549  0.29680347  1
  O  O570  1  0.83729782  0.64779452  0.54769199  1
  O  O571  1  0.84013256  0.64945283  0.79696555  1
  O  O572  1  0.83825553  0.98200093  0.04745352  1
  O  O573  1  0.83844327  0.98041725  0.29906254  1
  O  O574  1  0.83617166  0.98073610  0.54709088  1
  O  O575  1  0.83785963  0.98076877  0.79689500  1
  O  O576  1  0.41299788  0.14812182  0.17290779  1
  O  O577  1  0.41344800  0.14965179  0.42309493  1
  O  O578  1  0.41292852  0.14723630  0.67180667  1
  O  O579  1  0.41308474  0.14962481  0.92210548  1
  O  O580  1  0.41338285  0.48297427  0.17346228  1
  O  O581  1  0.41223752  0.48157929  0.42254199  1
  O  O582  1  0.41184424  0.48326926  0.67128494  1
  O  O583  1  0.41211645  0.48113724  0.92248670  1
  O  O584  1  0.41412394  0.81404583  0.17306119  1
  O  O585  1  0.41087031  0.81411620  0.42345529  1
  O  O586  1  0.41004112  0.81501387  0.67172853  1
  O  O587  1  0.41367850  0.81452877  0.92228343  1
  O  O588  1  0.91321538  0.14850981  0.17295943  1
  O  O589  1  0.91181822  0.14800852  0.42226632  1
  O  O590  1  0.91252367  0.14915028  0.67089926  1
  O  O591  1  0.91378524  0.14907343  0.92291889  1
  O  O592  1  0.91466952  0.48312697  0.17323835  1
  O  O593  1  0.91111127  0.48136543  0.42352736  1
  O  O594  1  0.91347673  0.48239902  0.67113019  1
  O  O595  1  0.91293233  0.48205553  0.92192819  1
  O  O596  1  0.91032955  0.81304792  0.17328020  1
  O  O597  1  0.91244951  0.81582301  0.42238848  1
  O  O598  1  0.91249531  0.81379267  0.67229901  1
  O  O599  1  0.91247787  0.81409892  0.92283359  1
  O  O600  1  0.08806774  0.18583553  0.07845717  1
  O  O601  1  0.08619162  0.18493820  0.32826497  1
  O  O602  1  0.08712021  0.18619336  0.57584359  1
  O  O603  1  0.08504991  0.18408632  0.82722969  1
  O  O604  1  0.08666052  0.51722743  0.07775056  1
  O  O605  1  0.08840128  0.51932319  0.32837881  1
  O  O606  1  0.08793023  0.51847058  0.57696657  1
  O  O607  1  0.08816053  0.51973160  0.82673955  1
  O  O608  1  0.08816013  0.85194844  0.07852740  1
  O  O609  1  0.08719485  0.85024916  0.32778356  1
  O  O610  1  0.08816959  0.85032788  0.57681454  1
  O  O611  1  0.08726031  0.85105312  0.82765689  1
  O  O612  1  0.58882584  0.18643872  0.07805999  1
  O  O613  1  0.58757717  0.18529059  0.32828201  1
  O  O614  1  0.58828373  0.18463884  0.57709792  1
  O  O615  1  0.58607494  0.18501740  0.82721055  1
  O  O616  1  0.58722645  0.51835011  0.07852233  1
  O  O617  1  0.58766624  0.51744191  0.32819749  1
  O  O618  1  0.58629497  0.51890994  0.57617733  1
  O  O619  1  0.58755576  0.51906372  0.82703148  1
  O  O620  1  0.58772117  0.84983711  0.07818330  1
  O  O621  1  0.58792189  0.85191869  0.32823459  1
  O  O622  1  0.58658840  0.85160405  0.57619565  1
  O  O623  1  0.58715564  0.85011242  0.82701465  1
  O  O624  1  0.33772915  0.18507897  0.04732993  1
  O  O625  1  0.33914704  0.18601643  0.29825621  1
  O  O626  1  0.33703639  0.18473027  0.54702024  1
  O  O627  1  0.33772627  0.18551371  0.79844595  1
  O  O628  1  0.33696848  0.51936217  0.04851487  1
  O  O629  1  0.33937255  0.51713940  0.29753626  1
  O  O630  1  0.33741710  0.51836797  0.54747512  1
  O  O631  1  0.33551414  0.51921560  0.79712580  1
  O  O632  1  0.33621919  0.85082480  0.04761060  1
  O  O633  1  0.33534804  0.85172020  0.29826565  1
  O  O634  1  0.33642330  0.85157833  0.54793244  1
  O  O635  1  0.33765155  0.84999498  0.79630095  1
  O  O636  1  0.83859830  0.18378761  0.04711514  1
  O  O637  1  0.83590606  0.18541461  0.29909471  1
  O  O638  1  0.83705194  0.18636775  0.54761300  1
  O  O639  1  0.83933658  0.18495737  0.79701284  1
  O  O640  1  0.83976176  0.51940772  0.04832839  1
  O  O641  1  0.83634777  0.51892729  0.29744243  1
  O  O642  1  0.83682484  0.51787413  0.54758556  1
  O  O643  1  0.84050819  0.51939446  0.79779518  1
  O  O644  1  0.83853800  0.85155692  0.04703219  1
  O  O645  1  0.83840043  0.85031052  0.29781759  1
  O  O646  1  0.83635250  0.85057652  0.54645780  1
  O  O647  1  0.83790201  0.85061440  0.79681755  1
  O  O648  1  0.16115312  0.14780787  0.20217777  1
  O  O649  1  0.16459927  0.14859042  0.45246353  1
  O  O650  1  0.16222448  0.14890261  0.70262704  1
  O  O651  1  0.16074850  0.14840503  0.95174613  1
  O  O652  1  0.16420230  0.48121648  0.20206216  1
  O  O653  1  0.16335730  0.48194705  0.45288806  1
  O  O654  1  0.16103893  0.48280887  0.70165303  1
  O  O655  1  0.16147173  0.48348143  0.95385643  1
  O  O656  1  0.16160411  0.81556352  0.20401923  1
  O  O657  1  0.16226755  0.81487922  0.45300220  1
  O  O658  1  0.16120766  0.81380073  0.70139297  1
  O  O659  1  0.16050153  0.81303997  0.95140826  1
  O  O660  1  0.66230763  0.14964992  0.20380166  1
  O  O661  1  0.66004813  0.14835347  0.45307882  1
  O  O662  1  0.66185742  0.14837409  0.70143326  1
  O  O663  1  0.66526500  0.14808707  0.95158018  1
  O  O664  1  0.66039346  0.48197021  0.20281018  1
  O  O665  1  0.66272475  0.48242950  0.45237918  1
  O  O666  1  0.66362988  0.48182061  0.70222852  1
  O  O667  1  0.66281184  0.48202772  0.95262358  1
  O  O668  1  0.66299458  0.81373329  0.20154733  1
  O  O669  1  0.66407473  0.81414031  0.45245809  1
  O  O670  1  0.66394867  0.81453161  0.70224210  1
  O  O671  1  0.66329667  0.81474272  0.95194472  1
