# generated using pymatgen
data_Na2MnFe(PO4)2
_symmetry_space_group_name_H-M   'P 1'
_cell_length_a   21.08944916
_cell_length_b   18.94284675
_cell_length_c   20.04852227
_cell_angle_alpha   90.00060465
_cell_angle_beta   89.99627813
_cell_angle_gamma   90.00131522
_symmetry_Int_Tables_number   1
_chemical_formula_structural   Na2MnFe(PO4)2
_chemical_formula_sum   'Na96 Mn48 Fe48 P96 O384'
_cell_volume   8009.26841830
_cell_formula_units_Z   48
loop_
 _symmetry_equiv_pos_site_id
 _symmetry_equiv_pos_as_xyz
  1  'x, y, z'
loop_
 _atom_site_type_symbol
 _atom_site_label
 _atom_site_symmetry_multiplicity
 _atom_site_fract_x
 _atom_site_fract_y
 _atom_site_fract_z
 _atom_site_occupancy
  Na  Na0  1  0.00070632  -0.00014071  -0.00071996  1
  Na  Na1  1  0.00183602  0.00056367  0.25012424  1
  Na  Na2  1  -0.00110508  -0.00022361  0.50177937  1
  Na  Na3  1  -0.00116914  -0.00085161  0.74977680  1
  Na  Na4  1  -0.00130340  0.33398736  -0.00047113  1
  Na  Na5  1  -0.00098379  0.33325873  0.24941144  1
  Na  Na6  1  -0.00057141  0.33413685  0.50054145  1
  Na  Na7  1  -0.00317156  0.33337958  0.74940356  1
  Na  Na8  1  -0.00146354  0.66690605  -0.00111943  1
  Na  Na9  1  -0.00035763  0.66628493  0.25006207  1
  Na  Na10  1  0.00107030  0.66744884  0.50000422  1
  Na  Na11  1  -0.00304995  0.66580296  0.75039508  1
  Na  Na12  1  0.49971358  0.00021296  0.00008213  1
  Na  Na13  1  0.49826377  0.00009226  0.24931217  1
  Na  Na14  1  0.49989384  0.00066935  0.50056698  1
  Na  Na15  1  0.49966134  -0.00006280  0.74913107  1
  Na  Na16  1  0.50000404  0.33398803  -0.00043044  1
  Na  Na17  1  0.50007351  0.33326967  0.25112422  1
  Na  Na18  1  0.50058743  0.33315008  0.50038334  1
  Na  Na19  1  0.49894298  0.33276619  0.74998511  1
  Na  Na20  1  0.50035547  0.66628668  -0.00067710  1
  Na  Na21  1  0.50016630  0.66608645  0.25146058  1
  Na  Na22  1  0.50287892  0.66697051  0.49972121  1
  Na  Na23  1  0.50184137  0.66640979  0.75028938  1
  Na  Na24  1  0.25001145  0.00036739  0.12474719  1
  Na  Na25  1  0.25023043  0.00031962  0.37476284  1
  Na  Na26  1  0.25292800  0.00071691  0.62545886  1
  Na  Na27  1  0.25128264  -0.00020300  0.87502493  1
  Na  Na28  1  0.24909628  0.33381133  0.12517532  1
  Na  Na29  1  0.24838804  0.33288335  0.37414212  1
  Na  Na30  1  0.25183714  0.33411253  0.62496178  1
  Na  Na31  1  0.25063234  0.33349396  0.87520171  1
  Na  Na32  1  0.25110694  0.66667152  0.12390678  1
  Na  Na33  1  0.24965292  0.66669660  0.37505326  1
  Na  Na34  1  0.24738789  0.66543330  0.62563145  1
  Na  Na35  1  0.25163244  0.66707080  0.87602227  1
  Na  Na36  1  0.75105694  0.00023002  0.12494153  1
  Na  Na37  1  0.74949908  -0.00006823  0.37480788  1
  Na  Na38  1  0.75006327  0.00079107  0.62565589  1
  Na  Na39  1  0.74855472  -0.00101631  0.87458311  1
  Na  Na40  1  0.75228866  0.33412379  0.12500229  1
  Na  Na41  1  0.75069220  0.33306552  0.37523807  1
  Na  Na42  1  0.75148637  0.33421598  0.62519552  1
  Na  Na43  1  0.75147527  0.33425408  0.87555022  1
  Na  Na44  1  0.74997979  0.66620826  0.12450584  1
  Na  Na45  1  0.74923985  0.66611591  0.37458212  1
  Na  Na46  1  0.74881729  0.66628123  0.62484449  1
  Na  Na47  1  0.75114842  0.66744907  0.87507601  1
  Na  Na48  1  -0.00025644  0.16692258  -0.00051935  1
  Na  Na49  1  0.00108372  0.16581685  0.25022252  1
  Na  Na50  1  -0.00106257  0.16721619  0.50110196  1
  Na  Na51  1  -0.00160041  0.16669168  0.74929980  1
  Na  Na52  1  -0.00313977  0.50034528  -0.00068066  1
  Na  Na53  1  0.00029544  0.49907106  0.25031948  1
  Na  Na54  1  -0.00121574  0.50007116  0.49986770  1
  Na  Na55  1  -0.00375102  0.50069178  0.74947620  1
  Na  Na56  1  -0.00083893  0.83395561  -0.00165608  1
  Na  Na57  1  0.00038763  0.83364317  0.24956192  1
  Na  Na58  1  -0.00033691  0.83399861  0.50083802  1
  Na  Na59  1  -0.00038784  0.83330004  0.75106633  1
  Na  Na60  1  0.49799848  0.16654027  -0.00016734  1
  Na  Na61  1  0.49879467  0.16654704  0.25069524  1
  Na  Na62  1  0.50018655  0.16633192  0.49930237  1
  Na  Na63  1  0.50027916  0.16554404  0.74985868  1
  Na  Na64  1  0.50149051  0.50026625  -0.00080929  1
  Na  Na65  1  0.49978956  0.50108739  0.25059322  1
  Na  Na66  1  0.50282765  0.49937770  0.50139680  1
  Na  Na67  1  0.50074009  0.50061287  0.74986813  1
  Na  Na68  1  0.49979318  0.83324194  -0.00029029  1
  Na  Na69  1  0.50005745  0.83250345  0.25078575  1
  Na  Na70  1  0.49935374  0.83398471  0.49979674  1
  Na  Na71  1  0.50038907  0.83343884  0.75003808  1
  Na  Na72  1  0.25149441  0.16573360  0.12564277  1
  Na  Na73  1  0.25114063  0.16603884  0.37425148  1
  Na  Na74  1  0.25224043  0.16607444  0.62536862  1
  Na  Na75  1  0.25273828  0.16571786  0.87506506  1
  Na  Na76  1  0.25000855  0.50016503  0.12501905  1
  Na  Na77  1  0.24705582  0.50105243  0.37349817  1
  Na  Na78  1  0.25040882  0.49956574  0.62542757  1
  Na  Na79  1  0.25214509  0.49927928  0.87631864  1
  Na  Na80  1  0.24845360  0.83376607  0.12330196  1
  Na  Na81  1  0.25038445  0.83243798  0.37627827  1
  Na  Na82  1  0.24944544  0.83351644  0.62532077  1
  Na  Na83  1  0.24926375  0.83367570  0.87474357  1
  Na  Na84  1  0.74951170  0.16698619  0.12482318  1
  Na  Na85  1  0.75010522  0.16585380  0.37513132  1
  Na  Na86  1  0.74736915  0.16692182  0.62514133  1
  Na  Na87  1  0.74873359  0.16616617  0.87464252  1
  Na  Na88  1  0.75219175  0.49944819  0.12517894  1
  Na  Na89  1  0.75056731  0.49985182  0.37414476  1
  Na  Na90  1  0.75095040  0.49974776  0.62591329  1
  Na  Na91  1  0.74962487  0.50099742  0.87441275  1
  Na  Na92  1  0.75099294  0.83364873  0.12445440  1
  Na  Na93  1  0.75080405  0.83323028  0.37495338  1
  Na  Na94  1  0.75058719  0.83376585  0.62498972  1
  Na  Na95  1  0.75249803  0.83269441  0.87609075  1
  Mn  Mn96  1  0.89253058  0.58318037  0.37784567  1
  Mn  Mn97  1  0.14175699  0.24978191  0.24781036  1
  Mn  Mn98  1  0.64277498  0.25001194  0.24767904  1
  Mn  Mn99  1  0.85769775  0.08326221  0.00213341  1
  Mn  Mn100  1  0.85840629  0.74999367  0.25153518  1
  Mn  Mn101  1  0.60820488  0.75049895  0.37248726  1
  Mn  Mn102  1  0.39251879  0.58264046  0.37791482  1
  Mn  Mn103  1  0.85896703  0.08369788  0.25236867  1
  Mn  Mn104  1  0.39246953  0.25019413  0.87760377  1
  Mn  Mn105  1  0.39261903  0.25073909  0.37750197  1
  Mn  Mn106  1  0.35851683  0.41615650  0.00283552  1
  Mn  Mn107  1  0.14246742  0.91706840  0.49892114  1
  Mn  Mn108  1  0.64230807  0.91692132  0.49798945  1
  Mn  Mn109  1  0.35797945  0.74941207  0.75164022  1
  Mn  Mn110  1  0.39268154  0.58337129  0.62718468  1
  Mn  Mn111  1  0.35754935  0.41713677  0.25252697  1
  Mn  Mn112  1  0.85643587  0.08315431  0.75248842  1
  Mn  Mn113  1  0.14259873  0.24980349  0.74797541  1
  Mn  Mn114  1  0.60832547  0.41618383  0.62273194  1
  Mn  Mn115  1  0.14188633  0.58337079  0.99756477  1
  Mn  Mn116  1  0.39201419  0.91662887  0.37725650  1
  Mn  Mn117  1  0.89254100  0.91776526  0.37758624  1
  Mn  Mn118  1  0.89096275  0.24991087  0.62731000  1
  Mn  Mn119  1  0.64189445  0.24993577  0.74771413  1
  Mn  Mn120  1  0.14228083  0.24958233  0.99747763  1
  Mn  Mn121  1  0.60675679  0.08303544  0.12280933  1
  Mn  Mn122  1  0.89261611  0.24920194  0.12739113  1
  Mn  Mn123  1  0.39158139  0.91564367  0.12767619  1
  Mn  Mn124  1  0.35762124  0.74948385  0.50338253  1
  Mn  Mn125  1  0.10798940  0.08313416  0.62293647  1
  Mn  Mn126  1  0.64183937  0.25060734  0.99802169  1
  Mn  Mn127  1  0.64285547  0.58309027  0.24713488  1
  Mn  Mn128  1  0.14161767  0.58317803  0.74851435  1
  Mn  Mn129  1  0.14240464  0.25014851  0.49796206  1
  Mn  Mn130  1  0.10829206  0.75042746  0.37243947  1
  Mn  Mn131  1  0.85786952  0.75001875  0.50285742  1
  Mn  Mn132  1  0.10786038  0.08408821  0.87224463  1
  Mn  Mn133  1  0.10637627  0.74938584  0.87247735  1
  Mn  Mn134  1  0.64254637  0.91620024  0.99776231  1
  Mn  Mn135  1  0.60860405  0.75064421  0.87251083  1
  Mn  Mn136  1  0.10635211  0.41681388  0.87245347  1
  Mn  Mn137  1  0.60813919  0.41707937  0.12287589  1
  Mn  Mn138  1  0.14194402  0.58398528  0.24681482  1
  Mn  Mn139  1  0.14222501  0.91623853  0.24773774  1
  Mn  Mn140  1  0.10716282  0.41743463  0.62336410  1
  Mn  Mn141  1  0.35763947  0.41675713  0.50157716  1
  Mn  Mn142  1  0.64224855  0.91661142  0.24735863  1
  Mn  Mn143  1  0.35811211  0.75029445  0.00246656  1
  Fe  Fe144  1  0.39279437  0.91584384  0.87623585  1
  Fe  Fe145  1  0.39325057  0.91647733  0.62721335  1
  Fe  Fe146  1  0.85823419  0.41638513  0.25224552  1
  Fe  Fe147  1  0.85667697  0.41693636  0.00165651  1
  Fe  Fe148  1  0.39227224  0.25104952  0.12713236  1
  Fe  Fe149  1  0.89243274  0.91724247  0.87668103  1
  Fe  Fe150  1  0.85693643  0.41622871  0.50117275  1
  Fe  Fe151  1  0.14252799  0.91697101  0.99773430  1
  Fe  Fe152  1  0.89231209  0.91609922  0.62762149  1
  Fe  Fe153  1  0.89292743  0.58399842  0.12631706  1
  Fe  Fe154  1  0.10820262  0.08310067  0.12275328  1
  Fe  Fe155  1  0.89409522  0.91673273  0.12619527  1
  Fe  Fe156  1  0.14145771  0.58281413  0.49893942  1
  Fe  Fe157  1  0.35810433  0.08332747  0.75185968  1
  Fe  Fe158  1  0.89077373  0.58342281  0.87728718  1
  Fe  Fe159  1  0.39405614  0.58370842  0.87634650  1
  Fe  Fe160  1  0.39307634  0.24991003  0.62622458  1
  Fe  Fe161  1  0.10754356  0.08417940  0.37453667  1
  Fe  Fe162  1  0.89180270  0.58449619  0.62643599  1
  Fe  Fe163  1  0.60724765  0.08355265  0.37315284  1
  Fe  Fe164  1  0.64240351  0.91593299  0.74842959  1
  Fe  Fe165  1  0.85656898  0.41705546  0.75223281  1
  Fe  Fe166  1  0.10630243  0.74970866  0.62456103  1
  Fe  Fe167  1  0.60730154  0.74985793  0.12353690  1
  Fe  Fe168  1  0.85736137  0.74964118  0.00274765  1
  Fe  Fe169  1  0.10731671  0.74986351  0.12288816  1
  Fe  Fe170  1  0.64362959  0.58415825  0.74837759  1
  Fe  Fe171  1  0.35750069  0.75013968  0.25092281  1
  Fe  Fe172  1  0.35814112  0.41688301  0.75194152  1
  Fe  Fe173  1  0.85694577  0.75027810  0.75089876  1
  Fe  Fe174  1  0.10628077  0.41583544  0.37357912  1
  Fe  Fe175  1  0.35666515  0.08269132  0.25199434  1
  Fe  Fe176  1  0.64367666  0.58258150  0.49885577  1
  Fe  Fe177  1  0.35804199  0.08345054  0.50152993  1
  Fe  Fe178  1  0.85677608  0.08374275  0.50160989  1
  Fe  Fe179  1  0.89273125  0.24936686  0.37707211  1
  Fe  Fe180  1  0.10613859  0.41692590  0.12290297  1
  Fe  Fe181  1  0.35736143  0.08300543  0.00190462  1
  Fe  Fe182  1  0.64270959  0.25040392  0.49837349  1
  Fe  Fe183  1  0.14309563  0.91683506  0.74830708  1
  Fe  Fe184  1  0.60631117  0.08289075  0.62272948  1
  Fe  Fe185  1  0.64335989  0.58347852  0.99861484  1
  Fe  Fe186  1  0.60871889  0.41609276  0.37326878  1
  Fe  Fe187  1  0.39349578  0.58319481  0.12627807  1
  Fe  Fe188  1  0.60825854  0.75089745  0.62365619  1
  Fe  Fe189  1  0.89158977  0.24940535  0.87685452  1
  Fe  Fe190  1  0.60793282  0.41641427  0.87322758  1
  Fe  Fe191  1  0.60633082  0.08320348  0.87372551  1
  P  P192  1  0.05348789  0.25005824  0.10975652  1
  P  P193  1  0.05217035  0.24996488  0.36064707  1
  P  P194  1  0.05289847  0.25043998  0.61027961  1
  P  P195  1  0.05129668  0.25040001  0.85949208  1
  P  P196  1  0.05180006  0.58326449  0.10958474  1
  P  P197  1  0.05458453  0.58235520  0.36107675  1
  P  P198  1  0.05180387  0.58415988  0.61020796  1
  P  P199  1  0.05043203  0.58296598  0.85999692  1
  P  P200  1  0.05372204  0.91637095  0.10903696  1
  P  P201  1  0.05373561  0.91813962  0.36065223  1
  P  P202  1  0.05328888  0.91572968  0.61213322  1
  P  P203  1  0.05392476  0.91688897  0.86025888  1
  P  P204  1  0.55159248  0.24999835  0.11025855  1
  P  P205  1  0.55547969  0.24989678  0.36149245  1
  P  P206  1  0.55299148  0.24901514  0.60962373  1
  P  P207  1  0.55340625  0.24986228  0.86023899  1
  P  P208  1  0.55340121  0.58418177  0.10945747  1
  P  P209  1  0.55589854  0.58204217  0.36160021  1
  P  P210  1  0.55623724  0.58430157  0.61105581  1
  P  P211  1  0.55548193  0.58286034  0.86067576  1
  P  P212  1  0.55286148  0.91557406  0.10995828  1
  P  P213  1  0.55346276  0.91808270  0.35997004  1
  P  P214  1  0.55360187  0.91653882  0.61146386  1
  P  P215  1  0.55281921  0.91736566  0.85953984  1
  P  P216  1  0.44395943  0.08406111  0.13943914  1
  P  P217  1  0.44591119  0.08337664  0.38948152  1
  P  P218  1  0.44572471  0.08359995  0.63889088  1
  P  P219  1  0.44547350  0.08195273  0.88915167  1
  P  P220  1  0.44713170  0.41723017  0.14026456  1
  P  P221  1  0.44882673  0.41692702  0.39058472  1
  P  P222  1  0.44647080  0.41602815  0.64034355  1
  P  P223  1  0.44721488  0.41794205  0.88865281  1
  P  P224  1  0.44766122  0.74864752  0.14052499  1
  P  P225  1  0.44557808  0.74964658  0.38948197  1
  P  P226  1  0.44862745  0.75012647  0.63997910  1
  P  P227  1  0.44693118  0.74992401  0.88948101  1
  P  P228  1  0.94866007  0.08211775  0.13948063  1
  P  P229  1  0.94753085  0.08435684  0.39117408  1
  P  P230  1  0.94472845  0.08261532  0.63914297  1
  P  P231  1  0.94621035  0.08315803  0.88956360  1
  P  P232  1  0.94534786  0.41753452  0.13903605  1
  P  P233  1  0.94570956  0.41543693  0.38950195  1
  P  P234  1  0.94341403  0.41791427  0.63911315  1
  P  P235  1  0.94318919  0.41655862  0.88903484  1
  P  P236  1  0.94701389  0.75036281  0.13813360  1
  P  P237  1  0.94704700  0.75033763  0.39027219  1
  P  P238  1  0.94653476  0.75013160  0.64066284  1
  P  P239  1  0.94320756  0.75036733  0.88886594  1
  P  P240  1  0.19578965  0.08329692  0.23565034  1
  P  P241  1  0.19800777  0.08338733  0.48482410  1
  P  P242  1  0.19832328  0.08252207  0.73528382  1
  P  P243  1  0.19674518  0.08273641  0.98572114  1
  P  P244  1  0.19420430  0.41664352  0.23512226  1
  P  P245  1  0.19565003  0.41730983  0.48428653  1
  P  P246  1  0.19804573  0.41673258  0.73549237  1
  P  P247  1  0.19528372  0.41669955  0.98584729  1
  P  P248  1  0.19747618  0.75002258  0.23358152  1
  P  P249  1  0.19483522  0.74915052  0.48694280  1
  P  P250  1  0.19568264  0.75051987  0.73502496  1
  P  P251  1  0.19495738  0.75052206  0.98560736  1
  P  P252  1  0.69613879  0.08345001  0.23556879  1
  P  P253  1  0.69558329  0.08391950  0.48576762  1
  P  P254  1  0.69352743  0.08201063  0.73570539  1
  P  P255  1  0.69564834  0.08316114  0.98431730  1
  P  P256  1  0.69784495  0.41623855  0.23573761  1
  P  P257  1  0.69755517  0.41657528  0.48492657  1
  P  P258  1  0.69660636  0.41728744  0.73648975  1
  P  P259  1  0.69713989  0.41788593  0.98480447  1
  P  P260  1  0.69651884  0.75007958  0.23366917  1
  P  P261  1  0.69588228  0.74966307  0.48615966  1
  P  P262  1  0.69739088  0.75060715  0.73491074  1
  P  P263  1  0.69691985  0.74914005  0.98644149  1
  P  P264  1  0.30417963  0.24926757  0.01588153  1
  P  P265  1  0.30449974  0.24968229  0.26391004  1
  P  P266  1  0.30417336  0.24943532  0.51537646  1
  P  P267  1  0.30535235  0.25009084  0.76379148  1
  P  P268  1  0.30556521  0.58319228  0.01457368  1
  P  P269  1  0.30479735  0.58449541  0.26359620  1
  P  P270  1  0.30154628  0.58286657  0.51525526  1
  P  P271  1  0.30408708  0.58267037  0.76605374  1
  P  P272  1  0.30349532  0.91717474  0.01350157  1
  P  P273  1  0.30318148  0.91596249  0.26477469  1
  P  P274  1  0.30448049  0.91738505  0.51593097  1
  P  P275  1  0.30466305  0.91676024  0.76432142  1
  P  P276  1  0.80402763  0.25048733  0.01402923  1
  P  P277  1  0.80475632  0.25036723  0.26586117  1
  P  P278  1  0.80299665  0.24953880  0.51366563  1
  P  P279  1  0.80319087  0.25028595  0.76564845  1
  P  P280  1  0.80412712  0.58329386  0.01435279  1
  P  P281  1  0.80550229  0.58294768  0.26366118  1
  P  P282  1  0.80286689  0.58246892  0.51533337  1
  P  P283  1  0.80394541  0.58428705  0.76395238  1
  P  P284  1  0.80550911  0.91621470  0.01452479  1
  P  P285  1  0.80501904  0.91676478  0.26383702  1
  P  P286  1  0.80410549  0.91795443  0.51585939  1
  P  P287  1  0.80349857  0.91581826  0.76449927  1
  O  O288  1  0.05615661  0.24982044  0.18658388  1
  O  O289  1  0.05565506  0.25027110  0.43729937  1
  O  O290  1  0.05642311  0.25024139  0.68703687  1
  O  O291  1  0.05583140  0.25035869  0.93613757  1
  O  O292  1  0.05538538  0.58334041  0.18630932  1
  O  O293  1  0.05821118  0.58306876  0.43782998  1
  O  O294  1  0.05532185  0.58303402  0.68690568  1
  O  O295  1  0.05525977  0.58288714  0.93656934  1
  O  O296  1  0.05698234  0.91633125  0.18580002  1
  O  O297  1  0.05660404  0.91734176  0.43740582  1
  O  O298  1  0.05835949  0.91677600  0.68875577  1
  O  O299  1  0.05900179  0.91710841  0.93691069  1
  O  O300  1  0.55570759  0.24989232  0.18695430  1
  O  O301  1  0.55951239  0.25010550  0.43825022  1
  O  O302  1  0.55642235  0.24982645  0.68634173  1
  O  O303  1  0.55602635  0.25015452  0.93700480  1
  O  O304  1  0.55691364  0.58345360  0.18621137  1
  O  O305  1  0.56036131  0.58232832  0.43834186  1
  O  O306  1  0.56048587  0.58361215  0.68786341  1
  O  O307  1  0.56001757  0.58351263  0.93735558  1
  O  O308  1  0.55597129  0.91619421  0.18668988  1
  O  O309  1  0.55650730  0.91757339  0.43676076  1
  O  O310  1  0.55816800  0.91613318  0.68808590  1
  O  O311  1  0.55659709  0.91651758  0.93621964  1
  O  O312  1  0.44038544  0.08297873  0.06258473  1
  O  O313  1  0.44071533  0.08307112  0.31282674  1
  O  O314  1  0.44166460  0.08358027  0.56218347  1
  O  O315  1  0.44133996  0.08263891  0.81238106  1
  O  O316  1  0.44468918  0.41707421  0.06345652  1
  O  O317  1  0.44404461  0.41729854  0.31396169  1
  O  O318  1  0.44343433  0.41688508  0.56360133  1
  O  O319  1  0.44245842  0.41732403  0.81202611  1
  O  O320  1  0.44405956  0.74973715  0.06380652  1
  O  O321  1  0.44107753  0.74956243  0.31278565  1
  O  O322  1  0.44473783  0.74940760  0.56329511  1
  O  O323  1  0.44391671  0.74985484  0.81277666  1
  O  O324  1  0.94436380  0.08294962  0.06289900  1
  O  O325  1  0.94442355  0.08350323  0.31441790  1
  O  O326  1  0.94042668  0.08359702  0.56245923  1
  O  O327  1  0.94281239  0.08294205  0.81284080  1
  O  O328  1  0.94051911  0.41689002  0.06234080  1
  O  O329  1  0.94170130  0.41624267  0.31275404  1
  O  O330  1  0.93960885  0.41683748  0.56230369  1
  O  O331  1  0.93934042  0.41696894  0.81215669  1
  O  O332  1  0.94238957  0.74999480  0.06144536  1
  O  O333  1  0.94384993  0.75006104  0.31349313  1
  O  O334  1  0.94357906  0.75038169  0.56394699  1
  O  O335  1  0.93948453  0.75015108  0.81208936  1
  O  O336  1  0.19179859  0.08331647  0.06242420  1
  O  O337  1  0.19077097  0.08373461  0.31228015  1
  O  O338  1  0.19399109  0.08343917  0.56153004  1
  O  O339  1  0.19432332  0.08318841  0.81196994  1
  O  O340  1  0.19005731  0.41725770  0.06254264  1
  O  O341  1  0.18949587  0.41626112  0.31184056  1
  O  O342  1  0.19293113  0.41657810  0.56110198  1
  O  O343  1  0.19356345  0.41678708  0.81215641  1
  O  O344  1  0.19038848  0.74950156  0.06232643  1
  O  O345  1  0.19373142  0.74978350  0.31036273  1
  O  O346  1  0.19014582  0.74968745  0.56362726  1
  O  O347  1  0.19260614  0.74976729  0.81180412  1
  O  O348  1  0.69256086  0.08314068  0.06112258  1
  O  O349  1  0.69154706  0.08315612  0.31228803  1
  O  O350  1  0.69055808  0.08325474  0.56249140  1
  O  O351  1  0.68938365  0.08265192  0.81243363  1
  O  O352  1  0.69380676  0.41699451  0.06156035  1
  O  O353  1  0.69281073  0.41626573  0.31235552  1
  O  O354  1  0.69426096  0.41634628  0.56165351  1
  O  O355  1  0.69181199  0.41651414  0.81313093  1
  O  O356  1  0.69173450  0.74992710  0.06299181  1
  O  O357  1  0.69333237  0.75027039  0.31050226  1
  O  O358  1  0.69193582  0.75085904  0.56291721  1
  O  O359  1  0.69431027  0.75090019  0.81162960  1
  O  O360  1  0.30839048  0.25090782  0.18721903  1
  O  O361  1  0.30685919  0.25013105  0.43855099  1
  O  O362  1  0.30925702  0.25014615  0.68708217  1
  O  O363  1  0.30740190  0.25033064  0.93901495  1
  O  O364  1  0.30942794  0.58341303  0.18690279  1
  O  O365  1  0.30573001  0.58311326  0.43855989  1
  O  O366  1  0.30699252  0.58338706  0.68925280  1
  O  O367  1  0.31047809  0.58324711  0.93789579  1
  O  O368  1  0.30547428  0.91607497  0.18795894  1
  O  O369  1  0.30703470  0.91649863  0.43913131  1
  O  O370  1  0.30977315  0.91598182  0.68764564  1
  O  O371  1  0.30848768  0.91616725  0.93687269  1
  O  O372  1  0.80775321  0.24954145  0.18902996  1
  O  O373  1  0.80777163  0.24912562  0.43705888  1
  O  O374  1  0.80577553  0.24939362  0.68883944  1
  O  O375  1  0.80775038  0.24920654  0.93730917  1
  O  O376  1  0.80968983  0.58370374  0.18690041  1
  O  O377  1  0.80639065  0.58340614  0.43859450  1
  O  O378  1  0.80806373  0.58430578  0.68727780  1
  O  O379  1  0.80768065  0.58368980  0.93755049  1
  O  O380  1  0.80994366  0.91702973  0.18712683  1
  O  O381  1  0.80704872  0.91723824  0.43903246  1
  O  O382  1  0.80823226  0.91662755  0.68780941  1
  O  O383  1  0.80923107  0.91727868  0.93773686  1
  O  O384  1  0.23446557  0.24975670  0.04075967  1
  O  O385  1  0.23453200  0.24952730  0.28835731  1
  O  O386  1  0.23456756  0.24997510  0.54078728  1
  O  O387  1  0.23552881  0.24972621  0.78884935  1
  O  O388  1  0.23527574  0.58336426  0.03795321  1
  O  O389  1  0.23462929  0.58384581  0.28730563  1
  O  O390  1  0.23149667  0.58255697  0.53967680  1
  O  O391  1  0.23436772  0.58335252  0.79135174  1
  O  O392  1  0.23319736  0.91705325  0.03729487  1
  O  O393  1  0.23383036  0.91616692  0.29086995  1
  O  O394  1  0.23480331  0.91722085  0.54116145  1
  O  O395  1  0.23420883  0.91653045  0.78776231  1
  O  O396  1  0.73422142  0.25058927  0.03894834  1
  O  O397  1  0.73506120  0.24968687  0.29074112  1
  O  O398  1  0.73274154  0.25033759  0.53793368  1
  O  O399  1  0.73348987  0.25006773  0.79072562  1
  O  O400  1  0.73397362  0.58305676  0.03881802  1
  O  O401  1  0.73553171  0.58321292  0.28783721  1
  O  O402  1  0.73284560  0.58270930  0.53995058  1
  O  O403  1  0.73358516  0.58438663  0.78803680  1
  O  O404  1  0.73543474  0.91687210  0.03862264  1
  O  O405  1  0.73499097  0.91636669  0.28784593  1
  O  O406  1  0.73430422  0.91747173  0.54066812  1
  O  O407  1  0.73311299  0.91602811  0.78817473  1
  O  O408  1  0.26625448  0.08305023  0.21238264  1
  O  O409  1  0.26815095  0.08332667  0.46062043  1
  O  O410  1  0.26851286  0.08291755  0.71120924  1
  O  O411  1  0.26709576  0.08298197  0.96208669  1
  O  O412  1  0.26448081  0.41709500  0.21176125  1
  O  O413  1  0.26525380  0.41682715  0.45865238  1
  O  O414  1  0.26819116  0.41703332  0.71139169  1
  O  O415  1  0.26563186  0.41628610  0.96274570  1
  O  O416  1  0.26740905  0.75024952  0.20891164  1
  O  O417  1  0.26492351  0.74962042  0.46289642  1
  O  O418  1  0.26543765  0.74962040  0.70998857  1
  O  O419  1  0.26511058  0.75024714  0.96189570  1
  O  O420  1  0.76620725  0.08402439  0.21158846  1
  O  O421  1  0.76605273  0.08298073  0.46229200  1
  O  O422  1  0.76367831  0.08337817  0.71187082  1
  O  O423  1  0.76539983  0.08266281  0.95943823  1
  O  O424  1  0.76816004  0.41636970  0.21217624  1
  O  O425  1  0.76766436  0.41639527  0.46020508  1
  O  O426  1  0.76699276  0.41712446  0.71284169  1
  O  O427  1  0.76717056  0.41774509  0.96028297  1
  O  O428  1  0.76627531  0.74993093  0.20893877  1
  O  O429  1  0.76578854  0.74983821  0.46154960  1
  O  O430  1  0.76740118  0.75025305  0.71005095  1
  O  O431  1  0.76729932  0.74951429  0.96295402  1
  O  O432  1  0.01880888  0.08257508  0.16374359  1
  O  O433  1  0.01743660  0.08390454  0.41625874  1
  O  O434  1  0.01476211  0.08270062  0.66337169  1
  O  O435  1  0.01592820  0.08336309  0.91455430  1
  O  O436  1  0.01577571  0.41650621  0.16258729  1
  O  O437  1  0.01591964  0.41639363  0.41358301  1
  O  O438  1  0.01342524  0.41707355  0.66351593  1
  O  O439  1  0.01317701  0.41695491  0.91335828  1
  O  O440  1  0.01721698  0.75020599  0.16241502  1
  O  O441  1  0.01671090  0.75077382  0.41520573  1
  O  O442  1  0.01634417  0.74967542  0.66599355  1
  O  O443  1  0.01333928  0.75030910  0.91291195  1
  O  O444  1  0.51394894  0.08319280  0.16383278  1
  O  O445  1  0.51630101  0.08376571  0.41287319  1
  O  O446  1  0.51610458  0.08306169  0.66278247  1
  O  O447  1  0.51576511  0.08308599  0.91311985  1
  O  O448  1  0.51666398  0.41723743  0.16603496  1
  O  O449  1  0.51892887  0.41627315  0.41465760  1
  O  O450  1  0.51635970  0.41659200  0.66511473  1
  O  O451  1  0.51753978  0.41721993  0.91250455  1
  O  O452  1  0.51763847  0.74920913  0.16529720  1
  O  O453  1  0.51570357  0.75011188  0.41324326  1
  O  O454  1  0.51858970  0.75010969  0.66474629  1
  O  O455  1  0.51665031  0.75008813  0.91456316  1
  O  O456  1  0.48163012  0.25037775  0.08565720  1
  O  O457  1  0.48551003  0.24988294  0.33718920  1
  O  O458  1  0.48295527  0.24951561  0.58508177  1
  O  O459  1  0.48382458  0.24957820  0.83477301  1
  O  O460  1  0.48341086  0.58337780  0.08482586  1
  O  O461  1  0.48584707  0.58300875  0.33762572  1
  O  O462  1  0.48613470  0.58316780  0.58698318  1
  O  O463  1  0.48511454  0.58367075  0.83693475  1
  O  O464  1  0.48314364  0.91617668  0.08492159  1
  O  O465  1  0.48384890  0.91717573  0.33477661  1
  O  O466  1  0.48331882  0.91712484  0.58742949  1
  O  O467  1  0.48271771  0.91640860  0.83513959  1
  O  O468  1  0.98384272  0.25015972  0.08446309  1
  O  O469  1  0.98237785  0.24958683  0.33533212  1
  O  O470  1  0.98305818  0.25068432  0.58575670  1
  O  O471  1  0.98111993  0.24999537  0.83551876  1
  O  O472  1  0.98175677  0.58360377  0.08484217  1
  O  O473  1  0.98470695  0.58255263  0.33646632  1
  O  O474  1  0.98172792  0.58412904  0.58551970  1
  O  O475  1  0.98005759  0.58316420  0.83662291  1
  O  O476  1  0.98368858  0.91658211  0.08425339  1
  O  O477  1  0.98423563  0.91754940  0.33502749  1
  O  O478  1  0.98293370  0.91618937  0.58849796  1
  O  O479  1  0.98329708  0.91641682  0.83737978  1
  O  O480  1  0.08738854  0.31527100  0.07756391  1
  O  O481  1  0.08594575  0.31500134  0.32772422  1
  O  O482  1  0.08684073  0.31551550  0.57790804  1
  O  O483  1  0.08467652  0.31552888  0.82652441  1
  O  O484  1  0.08580019  0.64821393  0.07691219  1
  O  O485  1  0.08826119  0.64737260  0.32783860  1
  O  O486  1  0.08590258  0.64930806  0.57812103  1
  O  O487  1  0.08391940  0.64803045  0.82705606  1
  O  O488  1  0.08789473  0.98140462  0.07649623  1
  O  O489  1  0.08760587  0.98356225  0.32881968  1
  O  O490  1  0.08679193  0.98048965  0.57832165  1
  O  O491  1  0.08699437  0.98186712  0.82655857  1
  O  O492  1  0.58574188  0.31501722  0.07774297  1
  O  O493  1  0.58905426  0.31502648  0.32847837  1
  O  O494  1  0.58734736  0.31388362  0.57690431  1
  O  O495  1  0.58742590  0.31498776  0.82778730  1
  O  O496  1  0.58711342  0.64939349  0.07691798  1
  O  O497  1  0.58972633  0.64692700  0.32842826  1
  O  O498  1  0.58938082  0.64961457  0.57829523  1
  O  O499  1  0.58925768  0.64774627  0.82729309  1
  O  O500  1  0.58713053  0.98045128  0.07739773  1
  O  O501  1  0.58708289  0.98343280  0.32769529  1
  O  O502  1  0.58703366  0.98166321  0.57832380  1
  O  O503  1  0.58620110  0.98258583  0.82690106  1
  O  O504  1  0.40972306  0.01929711  0.17257228  1
  O  O505  1  0.41272386  0.01844930  0.42314485  1
  O  O506  1  0.41204095  0.01873883  0.67225519  1
  O  O507  1  0.41254877  0.01653536  0.92206596  1
  O  O508  1  0.41276316  0.35223147  0.17250539  1
  O  O509  1  0.41477487  0.35191652  0.42307281  1
  O  O510  1  0.41278322  0.35059692  0.67240879  1
  O  O511  1  0.41353312  0.35309361  0.92211602  1
  O  O512  1  0.41396800  0.68337519  0.17282952  1
  O  O513  1  0.41245898  0.68457709  0.42301212  1
  O  O514  1  0.41483559  0.68507837  0.67282016  1
  O  O515  1  0.41303388  0.68482146  0.92193113  1
  O  O516  1  0.91523080  0.01694434  0.17224895  1
  O  O517  1  0.91293719  0.01973465  0.42394764  1
  O  O518  1  0.91111913  0.01748460  0.67195415  1
  O  O519  1  0.91246907  0.01790217  0.92202564  1
  O  O520  1  0.91154949  0.35280151  0.17259385  1
  O  O521  1  0.91255490  0.35009118  0.42237086  1
  O  O522  1  0.90900260  0.35341398  0.67241918  1
  O  O523  1  0.90978985  0.35126173  0.92178986  1
  O  O524  1  0.91345964  0.68546321  0.17143020  1
  O  O525  1  0.91330156  0.68514922  0.42290221  1
  O  O526  1  0.91195088  0.68512725  0.67271934  1
  O  O527  1  0.90959419  0.68535757  0.92207829  1
  O  O528  1  0.16258924  0.01827348  0.20214168  1
  O  O529  1  0.16403195  0.01843891  0.45214943  1
  O  O530  1  0.16482902  0.01729205  0.70262539  1
  O  O531  1  0.16351858  0.01767598  0.95253881  1
  O  O532  1  0.16093639  0.35152485  0.20186486  1
  O  O533  1  0.16113473  0.35234812  0.45174583  1
  O  O534  1  0.16450485  0.35175824  0.70242894  1
  O  O535  1  0.16200445  0.35161286  0.95259667  1
  O  O536  1  0.16333293  0.68519175  0.20064965  1
  O  O537  1  0.16164339  0.68394890  0.45382889  1
  O  O538  1  0.16082046  0.68583651  0.70261871  1
  O  O539  1  0.16143329  0.68559577  0.95213150  1
  O  O540  1  0.66289469  0.01838907  0.20221870  1
  O  O541  1  0.66182919  0.01923210  0.45213180  1
  O  O542  1  0.66085055  0.01646976  0.70267939  1
  O  O543  1  0.66113562  0.01836879  0.95181304  1
  O  O544  1  0.66466870  0.35122919  0.20228118  1
  O  O545  1  0.66346832  0.35170639  0.45213838  1
  O  O546  1  0.66352129  0.35235459  0.70268121  1
  O  O547  1  0.66302331  0.35304751  0.95180302  1
  O  O548  1  0.66231692  0.68502873  0.20131999  1
  O  O549  1  0.66244672  0.68427353  0.45388385  1
  O  O550  1  0.66315873  0.68568397  0.70254644  1
  O  O551  1  0.66399567  0.68395049  0.95313402  1
  O  O552  1  0.33868321  0.31407090  0.04862061  1
  O  O553  1  0.33795706  0.31462111  0.29744534  1
  O  O554  1  0.33890870  0.31420924  0.54774162  1
  O  O555  1  0.33885878  0.31530398  0.79679432  1
  O  O556  1  0.33912967  0.64812232  0.04788040  1
  O  O557  1  0.33769155  0.65003490  0.29634360  1
  O  O558  1  0.33531311  0.64772925  0.54849153  1
  O  O559  1  0.33877744  0.64756955  0.79842116  1
  O  O560  1  0.33677963  0.98222681  0.04657896  1
  O  O561  1  0.33758933  0.98113844  0.29674130  1
  O  O562  1  0.33872541  0.98264013  0.54767050  1
  O  O563  1  0.33803420  0.98185254  0.79739834  1
  O  O564  1  0.83772906  0.31590720  0.04610743  1
  O  O565  1  0.83869793  0.31563024  0.29795368  1
  O  O566  1  0.83672865  0.31454842  0.54652724  1
  O  O567  1  0.83742688  0.31536810  0.79752980  1
  O  O568  1  0.83789093  0.64823224  0.04754495  1
  O  O569  1  0.83903609  0.64785438  0.29700512  1
  O  O570  1  0.83682953  0.64734976  0.54847698  1
  O  O571  1  0.83724581  0.64931520  0.79719121  1
  O  O572  1  0.83958965  0.98080000  0.04798874  1
  O  O573  1  0.83813694  0.98194502  0.29721537  1
  O  O574  1  0.83799554  0.98308027  0.54812359  1
  O  O575  1  0.83695109  0.98071491  0.79817297  1
  O  O576  1  0.41071290  0.14941088  0.17202325  1
  O  O577  1  0.41238453  0.14827102  0.42286101  1
  O  O578  1  0.41276266  0.14886846  0.67217112  1
  O  O579  1  0.41129677  0.14656198  0.92246004  1
  O  O580  1  0.41299309  0.48252331  0.17223501  1
  O  O581  1  0.41538286  0.48184496  0.42394972  1
  O  O582  1  0.41212856  0.48080138  0.67320281  1
  O  O583  1  0.41429163  0.48313936  0.92188326  1
  O  O584  1  0.41320584  0.81341606  0.17342763  1
  O  O585  1  0.41194107  0.81466862  0.42245817  1
  O  O586  1  0.41456687  0.81512479  0.67238491  1
  O  O587  1  0.41281003  0.81504389  0.92188984  1
  O  O588  1  0.91485836  0.14703682  0.17262976  1
  O  O589  1  0.91339378  0.14958797  0.42334269  1
  O  O590  1  0.91108787  0.14758044  0.67233253  1
  O  O591  1  0.91208723  0.14821055  0.92200388  1
  O  O592  1  0.91267331  0.48291149  0.17225450  1
  O  O593  1  0.91160304  0.48004823  0.42290899  1
  O  O594  1  0.91016278  0.48346176  0.67150820  1
  O  O595  1  0.90924000  0.48148991  0.92202321  1
  O  O596  1  0.91385952  0.81570664  0.17107032  1
  O  O597  1  0.91266872  0.81518532  0.42260764  1
  O  O598  1  0.91240720  0.81506306  0.67342387  1
  O  O599  1  0.90985157  0.81559172  0.92174874  1
  O  O600  1  0.08750686  0.18484557  0.07750839  1
  O  O601  1  0.08651051  0.18483643  0.32844344  1
  O  O602  1  0.08670172  0.18529201  0.57774305  1
  O  O603  1  0.08530249  0.18542079  0.82671413  1
  O  O604  1  0.08524422  0.51799713  0.07690000  1
  O  O605  1  0.08807992  0.51714324  0.32847123  1
  O  O606  1  0.08572928  0.51925284  0.57706740  1
  O  O607  1  0.08380840  0.51809954  0.82658390  1
  O  O608  1  0.08748383  0.85130197  0.07626749  1
  O  O609  1  0.08812923  0.85333096  0.32786210  1
  O  O610  1  0.08620960  0.85034885  0.57919922  1
  O  O611  1  0.08735301  0.85194010  0.82700296  1
  O  O612  1  0.58517702  0.18495612  0.07736874  1
  O  O613  1  0.58879609  0.18460721  0.32857390  1
  O  O614  1  0.58684074  0.18392292  0.57715981  1
  O  O615  1  0.58742507  0.18464488  0.82818284  1
  O  O616  1  0.58791617  0.51945262  0.07667115  1
  O  O617  1  0.58894117  0.51672056  0.32840702  1
  O  O618  1  0.59039323  0.51945805  0.57798730  1
  O  O619  1  0.58863444  0.51770861  0.82749438  1
  O  O620  1  0.58665054  0.85027079  0.07765634  1
  O  O621  1  0.58798746  0.85317663  0.32770013  1
  O  O622  1  0.58678592  0.85151196  0.57799628  1
  O  O623  1  0.58735739  0.85267231  0.82657916  1
  O  O624  1  0.33812858  0.18395012  0.04760816  1
  O  O625  1  0.33823256  0.18441308  0.29622181  1
  O  O626  1  0.33832164  0.18421562  0.54740579  1
  O  O627  1  0.33917696  0.18488448  0.79644210  1
  O  O628  1  0.33891909  0.51822930  0.04804007  1
  O  O629  1  0.33836118  0.51969437  0.29742378  1
  O  O630  1  0.33565424  0.51788339  0.54770048  1
  O  O631  1  0.33830185  0.51753325  0.79817112  1
  O  O632  1  0.33674488  0.85224958  0.04727071  1
  O  O633  1  0.33739768  0.85070684  0.29661995  1
  O  O634  1  0.33887597  0.85259257  0.54877788  1
  O  O635  1  0.33797075  0.85176648  0.79797339  1
  O  O636  1  0.83769310  0.18560419  0.04743856  1
  O  O637  1  0.83937170  0.18567977  0.29860604  1
  O  O638  1  0.83577658  0.18435185  0.54733617  1
  O  O639  1  0.83747028  0.18537329  0.79829635  1
  O  O640  1  0.83786010  0.51819345  0.04699123  1
  O  O641  1  0.83889690  0.51767541  0.29639474  1
  O  O642  1  0.83667562  0.51736131  0.54756334  1
  O  O643  1  0.83715431  0.51921352  0.79736111  1
  O  O644  1  0.83888215  0.85079087  0.04709036  1
  O  O645  1  0.83859542  0.85177031  0.29689110  1
  O  O646  1  0.83849330  0.85303932  0.54854149  1
  O  O647  1  0.83694369  0.85075329  0.79733997  1
  O  O648  1  0.16259740  0.14818459  0.20184737  1
  O  O649  1  0.16414279  0.14835121  0.45182907  1
  O  O650  1  0.16443978  0.14737264  0.70226429  1
  O  O651  1  0.16363512  0.14781534  0.95211214  1
  O  O652  1  0.16052913  0.48148658  0.20171379  1
  O  O653  1  0.16130509  0.48242790  0.45242197  1
  O  O654  1  0.16407907  0.48176389  0.70273015  1
  O  O655  1  0.16227499  0.48174599  0.95215447  1
  O  O656  1  0.16314079  0.81496849  0.20123673  1
  O  O657  1  0.16156788  0.81435715  0.45360769  1
  O  O658  1  0.16199625  0.81592203  0.70285254  1
  O  O659  1  0.16169237  0.81583260  0.95292236  1
  O  O660  1  0.66234003  0.14839716  0.20256524  1
  O  O661  1  0.66275405  0.14923514  0.45259894  1
  O  O662  1  0.65931859  0.14656013  0.70225740  1
  O  O663  1  0.66159246  0.14829040  0.95199530  1
  O  O664  1  0.66457717  0.48120922  0.20227393  1
  O  O665  1  0.66393853  0.48172973  0.45228165  1
  O  O666  1  0.66359234  0.48241105  0.70342284  1
  O  O667  1  0.66327327  0.48301987  0.95246622  1
  O  O668  1  0.66225272  0.81487507  0.20100856  1
  O  O669  1  0.66229441  0.81464036  0.45287478  1
  O  O670  1  0.66339565  0.81556968  0.70205756  1
  O  O671  1  0.66371794  0.81401633  0.95252226  1
