# generated using pymatgen
data_Na2MnFe(PO4)2
_symmetry_space_group_name_H-M   'P 1'
_cell_length_a   21.08868693
_cell_length_b   18.94187342
_cell_length_c   20.04710838
_cell_angle_alpha   90.00040495
_cell_angle_beta   90.00326256
_cell_angle_gamma   89.99999093
_symmetry_Int_Tables_number   1
_chemical_formula_structural   Na2MnFe(PO4)2
_chemical_formula_sum   'Na96 Mn48 Fe48 P96 O384'
_cell_volume   8008.00263044
_cell_formula_units_Z   48
loop_
 _symmetry_equiv_pos_site_id
 _symmetry_equiv_pos_as_xyz
  1  'x, y, z'
loop_
 _atom_site_type_symbol
 _atom_site_label
 _atom_site_symmetry_multiplicity
 _atom_site_fract_x
 _atom_site_fract_y
 _atom_site_fract_z
 _atom_site_occupancy
  Na  Na0  1  0.00142192  0.00002141  -0.00002921  1
  Na  Na1  1  -0.00024047  -0.00091366  0.24958494  1
  Na  Na2  1  0.00116396  -0.00017013  0.49936754  1
  Na  Na3  1  0.00172760  -0.00000666  0.75060296  1
  Na  Na4  1  -0.00269211  0.33239864  -0.00074821  1
  Na  Na5  1  -0.00239994  0.33304388  0.25085596  1
  Na  Na6  1  -0.00221302  0.33267094  0.50080954  1
  Na  Na7  1  -0.00298402  0.33259690  0.74907591  1
  Na  Na8  1  0.00124484  0.66668174  0.00035735  1
  Na  Na9  1  0.00067614  0.66670509  0.24939751  1
  Na  Na10  1  -0.00129949  0.66580618  0.50055518  1
  Na  Na11  1  0.00161766  0.66732420  0.74986665  1
  Na  Na12  1  0.49941381  -0.00085737  0.00046657  1
  Na  Na13  1  0.49958253  -0.00062932  0.25061327  1
  Na  Na14  1  0.50159195  0.00038444  0.49955893  1
  Na  Na15  1  0.49989341  -0.00081934  0.74994623  1
  Na  Na16  1  0.50068245  0.33413172  -0.00117751  1
  Na  Na17  1  0.49937927  0.33302655  0.25086284  1
  Na  Na18  1  0.50136298  0.33361940  0.49919329  1
  Na  Na19  1  0.50079957  0.33365609  0.74992943  1
  Na  Na20  1  0.49970656  0.66670081  0.00072576  1
  Na  Na21  1  0.50048029  0.66732226  0.25041722  1
  Na  Na22  1  0.50139862  0.66707876  0.49974799  1
  Na  Na23  1  0.50120876  0.66697500  0.74930005  1
  Na  Na24  1  0.25075131  -0.00000458  0.12433655  1
  Na  Na25  1  0.24791523  -0.00106772  0.37544440  1
  Na  Na26  1  0.24736617  -0.00030807  0.62574781  1
  Na  Na27  1  0.24768036  -0.00099221  0.87483221  1
  Na  Na28  1  0.25074066  0.33327687  0.12560455  1
  Na  Na29  1  0.25170365  0.33402511  0.37512455  1
  Na  Na30  1  0.24809548  0.33253730  0.62436162  1
  Na  Na31  1  0.24980942  0.33367190  0.87472678  1
  Na  Na32  1  0.24989443  0.66644776  0.12421998  1
  Na  Na33  1  0.25108572  0.66786208  0.37571216  1
  Na  Na34  1  0.24867194  0.66625340  0.62526980  1
  Na  Na35  1  0.25171650  0.66763585  0.87558409  1
  Na  Na36  1  0.75179505  0.00000571  0.12523651  1
  Na  Na37  1  0.74926973  -0.00121546  0.37466038  1
  Na  Na38  1  0.75118751  -0.00003418  0.62519544  1
  Na  Na39  1  0.75073547  -0.00116579  0.87474932  1
  Na  Na40  1  0.75015271  0.33283156  0.12409643  1
  Na  Na41  1  0.75212406  0.33380730  0.37487679  1
  Na  Na42  1  0.75171293  0.33330930  0.62503227  1
  Na  Na43  1  0.75188227  0.33358302  0.87517213  1
  Na  Na44  1  0.74658761  0.66597558  0.12498867  1
  Na  Na45  1  0.74888131  0.66653538  0.37594025  1
  Na  Na46  1  0.74802397  0.66565960  0.62466339  1
  Na  Na47  1  0.74769569  0.66626517  0.87503673  1
  Na  Na48  1  -0.00193257  0.16649507  -0.00010897  1
  Na  Na49  1  -0.00386549  0.16770953  0.24996277  1
  Na  Na50  1  -0.00024698  0.16641525  0.49979552  1
  Na  Na51  1  0.00019232  0.16610787  0.74958357  1
  Na  Na52  1  0.00139091  0.49959507  -0.00031752  1
  Na  Na53  1  -0.00071228  0.50054563  0.24948421  1
  Na  Na54  1  -0.00278692  0.50125939  0.50105622  1
  Na  Na55  1  -0.00079471  0.50014250  0.74903575  1
  Na  Na56  1  0.00120446  0.83373842  0.00018959  1
  Na  Na57  1  0.00202493  0.83306570  0.25037028  1
  Na  Na58  1  0.00108915  0.83330686  0.49986910  1
  Na  Na59  1  0.00132783  0.83352807  0.75097574  1
  Na  Na60  1  0.49922469  0.16639161  0.00010543  1
  Na  Na61  1  0.49767032  0.16737583  0.25063847  1
  Na  Na62  1  0.50106060  0.16657156  0.49941444  1
  Na  Na63  1  0.50032959  0.16677231  0.74940304  1
  Na  Na64  1  0.50087131  0.50013408  -0.00019031  1
  Na  Na65  1  0.50150565  0.49988939  0.25082861  1
  Na  Na66  1  0.50200850  0.49940699  0.49970677  1
  Na  Na67  1  0.50001372  0.50043411  0.75032446  1
  Na  Na68  1  0.49917120  0.83448051  0.00010446  1
  Na  Na69  1  0.50016518  0.83346510  0.25047119  1
  Na  Na70  1  0.50119841  0.83341844  0.49940196  1
  Na  Na71  1  0.50182468  0.83303014  0.74943246  1
  Na  Na72  1  0.25093099  0.16607534  0.12531713  1
  Na  Na73  1  0.25125812  0.16581181  0.37622861  1
  Na  Na74  1  0.24649467  0.16744569  0.62508012  1
  Na  Na75  1  0.24726711  0.16711717  0.87445924  1
  Na  Na76  1  0.25071583  0.50005625  0.12397702  1
  Na  Na77  1  0.24948562  0.50048622  0.37538528  1
  Na  Na78  1  0.25057266  0.49981789  0.62459569  1
  Na  Na79  1  0.25075074  0.50033875  0.87524537  1
  Na  Na80  1  0.25037001  0.83382488  0.12468676  1
  Na  Na81  1  0.24999293  0.83309281  0.37473900  1
  Na  Na82  1  0.24785012  0.83400838  0.62533105  1
  Na  Na83  1  0.25054838  0.83355472  0.87556095  1
  Na  Na84  1  0.75327769  0.16572336  0.12441446  1
  Na  Na85  1  0.75205696  0.16638485  0.37449420  1
  Na  Na86  1  0.75145249  0.16700326  0.62487039  1
  Na  Na87  1  0.75394221  0.16545609  0.87467832  1
  Na  Na88  1  0.74712251  0.50113762  0.12484617  1
  Na  Na89  1  0.74973868  0.50031018  0.37593540  1
  Na  Na90  1  0.75066963  0.49997028  0.62451428  1
  Na  Na91  1  0.74865362  0.50046413  0.87509842  1
  Na  Na92  1  0.74805020  0.83415784  0.12508451  1
  Na  Na93  1  0.74893766  0.83358654  0.37498012  1
  Na  Na94  1  0.74813431  0.83449027  0.62561842  1
  Na  Na95  1  0.74865644  0.83374839  0.87497981  1
  Mn  Mn96  1  0.35783145  0.41697212  0.50303015  1
  Mn  Mn97  1  0.10674181  0.41686798  0.37287292  1
  Mn  Mn98  1  0.39121735  0.24950505  0.87662702  1
  Mn  Mn99  1  0.85751907  0.75015750  0.50276557  1
  Mn  Mn100  1  0.10755638  0.41607540  0.87197784  1
  Mn  Mn101  1  0.35777672  0.74989176  0.75154169  1
  Mn  Mn102  1  0.39181053  0.91714204  0.37744512  1
  Mn  Mn103  1  0.60772272  0.75030771  0.37291334  1
  Mn  Mn104  1  0.85726903  0.41722620  0.25211148  1
  Mn  Mn105  1  0.60773111  0.41633813  0.87205428  1
  Mn  Mn106  1  0.14294588  0.58359908  0.99743650  1
  Mn  Mn107  1  0.39208146  0.24983369  0.12741023  1
  Mn  Mn108  1  0.60798819  0.08380171  0.37234941  1
  Mn  Mn109  1  0.14096605  0.24969967  0.99811513  1
  Mn  Mn110  1  0.10727621  0.08347785  0.12339606  1
  Mn  Mn111  1  0.64308262  0.24892851  0.99765709  1
  Mn  Mn112  1  0.64273125  0.24963883  0.24732719  1
  Mn  Mn113  1  0.39226309  0.25017225  0.62683659  1
  Mn  Mn114  1  0.89189997  0.58365357  0.87701565  1
  Mn  Mn115  1  0.89277483  0.91641162  0.87743865  1
  Mn  Mn116  1  0.35643680  0.08370710  0.75199219  1
  Mn  Mn117  1  0.60866146  0.08345265  0.87290711  1
  Mn  Mn118  1  0.35676404  0.08275678  0.50297264  1
  Mn  Mn119  1  0.60801893  0.08355539  0.12266789  1
  Mn  Mn120  1  0.14233269  0.25012101  0.24814934  1
  Mn  Mn121  1  0.89243291  0.91580469  0.37692250  1
  Mn  Mn122  1  0.10647713  0.41686371  0.62285070  1
  Mn  Mn123  1  0.85728072  0.75020346  0.00276283  1
  Mn  Mn124  1  0.60900953  0.08384684  0.62280970  1
  Mn  Mn125  1  0.60841450  0.41617939  0.37275151  1
  Mn  Mn126  1  0.10794652  0.41636919  0.12348065  1
  Mn  Mn127  1  0.10819607  0.74894714  0.37260214  1
  Mn  Mn128  1  0.10879040  0.74987475  0.87280589  1
  Mn  Mn129  1  0.39324784  0.58313691  0.62703886  1
  Mn  Mn130  1  0.39299283  0.58359709  0.12813785  1
  Mn  Mn131  1  0.35737533  0.08322326  0.00154807  1
  Mn  Mn132  1  0.60702330  0.75046305  0.87310279  1
  Mn  Mn133  1  0.14138533  0.58325805  0.49770681  1
  Mn  Mn134  1  0.85729381  0.74979003  0.75203627  1
  Mn  Mn135  1  0.85731546  0.41741013  0.00244493  1
  Mn  Mn136  1  0.85796106  0.08294210  0.50254633  1
  Mn  Mn137  1  0.39249124  0.91689690  0.62692735  1
  Mn  Mn138  1  0.39217744  0.58301277  0.37703941  1
  Mn  Mn139  1  0.35828896  0.41653878  0.00243183  1
  Mn  Mn140  1  0.64360170  0.24974032  0.74768327  1
  Mn  Mn141  1  0.10732230  0.08396821  0.37200245  1
  Mn  Mn142  1  0.89181680  0.58410768  0.12723452  1
  Mn  Mn143  1  0.85737742  0.74985823  0.25150650  1
  Fe  Fe144  1  0.14240183  0.91623203  0.74795882  1
  Fe  Fe145  1  0.64171820  0.58380222  0.99803287  1
  Fe  Fe146  1  0.14128556  0.25093122  0.74787285  1
  Fe  Fe147  1  0.85679583  0.41705367  0.75165265  1
  Fe  Fe148  1  0.35799607  0.41679975  0.25153803  1
  Fe  Fe149  1  0.14214014  0.91646490  0.49864160  1
  Fe  Fe150  1  0.64276664  0.91683622  0.74800742  1
  Fe  Fe151  1  0.64319149  0.91726495  0.49858550  1
  Fe  Fe152  1  0.89168804  0.58334694  0.37624600  1
  Fe  Fe153  1  0.64215587  0.58317976  0.74771506  1
  Fe  Fe154  1  0.39238205  0.91655371  0.87647967  1
  Fe  Fe155  1  0.14161047  0.25013988  0.49762508  1
  Fe  Fe156  1  0.14263240  0.58337156  0.24867336  1
  Fe  Fe157  1  0.14338362  0.91671474  0.99885997  1
  Fe  Fe158  1  0.10623388  0.08289797  0.62367186  1
  Fe  Fe159  1  0.64235162  0.58365390  0.24830194  1
  Fe  Fe160  1  0.64266676  0.91704926  0.99859091  1
  Fe  Fe161  1  0.64388484  0.24978678  0.49830558  1
  Fe  Fe162  1  0.85827031  0.08195296  0.00178586  1
  Fe  Fe163  1  0.60788963  0.74980799  0.62276272  1
  Fe  Fe164  1  0.89321105  0.24989683  0.87617358  1
  Fe  Fe165  1  0.89209213  0.24996036  0.12697718  1
  Fe  Fe166  1  0.64367133  0.58294170  0.49846557  1
  Fe  Fe167  1  0.89216019  0.25058100  0.37753496  1
  Fe  Fe168  1  0.35695084  0.74985862  0.25125513  1
  Fe  Fe169  1  0.39278185  0.91685979  0.12710186  1
  Fe  Fe170  1  0.85860520  0.08281437  0.75160905  1
  Fe  Fe171  1  0.89322280  0.91603228  0.12670686  1
  Fe  Fe172  1  0.89205807  0.58425328  0.62769487  1
  Fe  Fe173  1  0.85735837  0.08231176  0.25149300  1
  Fe  Fe174  1  0.64271513  0.91664689  0.24746947  1
  Fe  Fe175  1  0.60728666  0.41651264  0.12355497  1
  Fe  Fe176  1  0.39243575  0.25002531  0.37734906  1
  Fe  Fe177  1  0.35733791  0.08317395  0.25194292  1
  Fe  Fe178  1  0.14308840  0.58314647  0.74855625  1
  Fe  Fe179  1  0.39283133  0.58397225  0.87591633  1
  Fe  Fe180  1  0.10710563  0.75014943  0.62362750  1
  Fe  Fe181  1  0.10670420  0.08387466  0.87327326  1
  Fe  Fe182  1  0.35780122  0.75057997  0.00222527  1
  Fe  Fe183  1  0.60841715  0.41648448  0.62338929  1
  Fe  Fe184  1  0.89281341  0.24932387  0.62688887  1
  Fe  Fe185  1  0.60661798  0.75024674  0.12332907  1
  Fe  Fe186  1  0.35700549  0.75035548  0.50220962  1
  Fe  Fe187  1  0.14335849  0.91621987  0.24776697  1
  Fe  Fe188  1  0.89317776  0.91624940  0.62681612  1
  Fe  Fe189  1  0.35727778  0.41650303  0.75073748  1
  Fe  Fe190  1  0.85687246  0.41704631  0.50180474  1
  Fe  Fe191  1  0.10836097  0.75014548  0.12366127  1
  P  P192  1  0.05117950  0.24982859  0.11039740  1
  P  P193  1  0.05226005  0.25041797  0.36091885  1
  P  P194  1  0.05338911  0.24945093  0.61062536  1
  P  P195  1  0.05225978  0.24932611  0.85925543  1
  P  P196  1  0.05504059  0.58412735  0.11107379  1
  P  P197  1  0.05185349  0.58293665  0.35939382  1
  P  P198  1  0.05301113  0.58395281  0.61156480  1
  P  P199  1  0.05396732  0.58310749  0.85889751  1
  P  P200  1  0.05479158  0.91597104  0.11077958  1
  P  P201  1  0.05546379  0.91645060  0.36006979  1
  P  P202  1  0.05386256  0.91647591  0.61098912  1
  P  P203  1  0.05572201  0.91743703  0.86107762  1
  P  P204  1  0.55326110  0.25063024  0.10982710  1
  P  P205  1  0.55372573  0.24992489  0.36088021  1
  P  P206  1  0.55471831  0.25104171  0.60909559  1
  P  P207  1  0.55333379  0.24946468  0.85948874  1
  P  P208  1  0.55524352  0.58354870  0.11114391  1
  P  P209  1  0.55544909  0.58338556  0.36073429  1
  P  P210  1  0.55592455  0.58289802  0.61037510  1
  P  P211  1  0.55373586  0.58381686  0.86030157  1
  P  P212  1  0.55399134  0.91620361  0.11085201  1
  P  P213  1  0.55524513  0.91694643  0.36036620  1
  P  P214  1  0.55560919  0.91634139  0.61020342  1
  P  P215  1  0.55385626  0.91693205  0.86055711  1
  P  P216  1  0.44601966  0.08217872  0.14076387  1
  P  P217  1  0.44501626  0.08387366  0.38936278  1
  P  P218  1  0.44708893  0.08337032  0.64007290  1
  P  P219  1  0.44668283  0.08231798  0.88965177  1
  P  P220  1  0.44778560  0.41697997  0.14078756  1
  P  P221  1  0.44538424  0.41621175  0.38919019  1
  P  P222  1  0.44821247  0.41659226  0.64035220  1
  P  P223  1  0.44502320  0.41756337  0.88826922  1
  P  P224  1  0.44610946  0.75117259  0.13962952  1
  P  P225  1  0.44435164  0.75013555  0.38963536  1
  P  P226  1  0.44744479  0.75019705  0.63853158  1
  P  P227  1  0.44559911  0.75023118  0.89020122  1
  P  P228  1  0.94460665  0.08217592  0.13926230  1
  P  P229  1  0.94502130  0.08327210  0.38875245  1
  P  P230  1  0.94708517  0.08254925  0.64014160  1
  P  P231  1  0.94611779  0.08356215  0.88917570  1
  P  P232  1  0.94638816  0.41663653  0.13996421  1
  P  P233  1  0.94505236  0.41737961  0.39086521  1
  P  P234  1  0.94365403  0.41687989  0.63911214  1
  P  P235  1  0.94508325  0.41653094  0.88841251  1
  P  P236  1  0.94831262  0.75108900  0.13990257  1
  P  P237  1  0.94658270  0.74907920  0.38997312  1
  P  P238  1  0.94769537  0.75054415  0.64018578  1
  P  P239  1  0.94704603  0.74992892  0.89044286  1
  P  P240  1  0.19791353  0.08293085  0.23523312  1
  P  P241  1  0.19381327  0.08312846  0.48667039  1
  P  P242  1  0.19348195  0.08345629  0.73581220  1
  P  P243  1  0.19527380  0.08243650  0.98463067  1
  P  P244  1  0.19819884  0.41733898  0.23548419  1
  P  P245  1  0.19587075  0.41609010  0.48498933  1
  P  P246  1  0.19735533  0.41725184  0.73473436  1
  P  P247  1  0.19657350  0.41645630  0.98478259  1
  P  P248  1  0.19741540  0.74973176  0.23456081  1
  P  P249  1  0.19595198  0.75076253  0.48640630  1
  P  P250  1  0.19602777  0.74984485  0.73473317  1
  P  P251  1  0.19719144  0.75111889  0.98644004  1
  P  P252  1  0.69808218  0.08282720  0.23474335  1
  P  P253  1  0.69706158  0.08360450  0.48492883  1
  P  P254  1  0.69904767  0.08272009  0.73524674  1
  P  P255  1  0.69874364  0.08215354  0.98504949  1
  P  P256  1  0.69612524  0.41712717  0.23446127  1
  P  P257  1  0.69680944  0.41615828  0.48649212  1
  P  P258  1  0.69747720  0.41694440  0.73440997  1
  P  P259  1  0.69489418  0.41703001  0.98596144  1
  P  P260  1  0.69544774  0.75003927  0.23462217  1
  P  P261  1  0.69533877  0.75022864  0.48649156  1
  P  P262  1  0.69534469  0.75001795  0.73471045  1
  P  P263  1  0.69466320  0.75064438  0.98643707  1
  P  P264  1  0.30252219  0.24963531  0.01511236  1
  P  P265  1  0.30423310  0.24979115  0.26593083  1
  P  P266  1  0.30250209  0.24973831  0.51432270  1
  P  P267  1  0.30114864  0.25064123  0.76418020  1
  P  P268  1  0.30563938  0.58438555  0.01377605  1
  P  P269  1  0.30234688  0.58363447  0.26475379  1
  P  P270  1  0.30332085  0.58449837  0.51520323  1
  P  P271  1  0.30311658  0.58277346  0.76491386  1
  P  P272  1  0.30465649  0.91624328  0.01432918  1
  P  P273  1  0.30356700  0.91646745  0.26361707  1
  P  P274  1  0.30174364  0.91597327  0.51530373  1
  P  P275  1  0.30234837  0.91674185  0.76516979  1
  P  P276  1  0.80598778  0.24888761  0.01383162  1
  P  P277  1  0.80548821  0.24923094  0.26427271  1
  P  P278  1  0.80457045  0.25066268  0.51445631  1
  P  P279  1  0.80621279  0.24984941  0.76401767  1
  P  P280  1  0.80129145  0.58382343  0.01508337  1
  P  P281  1  0.80185351  0.58386963  0.26553855  1
  P  P282  1  0.80424061  0.58301389  0.51448130  1
  P  P283  1  0.80263598  0.58310176  0.76388337  1
  P  P284  1  0.80317220  0.91665976  0.01556021  1
  P  P285  1  0.80336806  0.91644376  0.26357730  1
  P  P286  1  0.80304107  0.91631027  0.51569362  1
  P  P287  1  0.80391657  0.91669660  0.76375500  1
  O  O288  1  0.05550013  0.24993541  0.18707649  1
  O  O289  1  0.05745913  0.25013963  0.43758036  1
  O  O290  1  0.05805852  0.25075097  0.68733276  1
  O  O291  1  0.05546001  0.25012968  0.93598755  1
  O  O292  1  0.05949858  0.58344837  0.18782904  1
  O  O293  1  0.05565519  0.58305713  0.43614487  1
  O  O294  1  0.05869102  0.58311985  0.68808351  1
  O  O295  1  0.05740482  0.58304979  0.93571403  1
  O  O296  1  0.05969366  0.91656792  0.18751851  1
  O  O297  1  0.05939210  0.91643994  0.43686826  1
  O  O298  1  0.05821360  0.91620995  0.68771336  1
  O  O299  1  0.05970054  0.91641518  0.93780957  1
  O  O300  1  0.55628161  0.24972099  0.18661809  1
  O  O301  1  0.55953028  0.24981955  0.43744023  1
  O  O302  1  0.55796876  0.25025151  0.68587517  1
  O  O303  1  0.55703677  0.24929371  0.93622189  1
  O  O304  1  0.55870495  0.58371427  0.18797308  1
  O  O305  1  0.56006000  0.58314802  0.43747444  1
  O  O306  1  0.55919787  0.58291869  0.68726325  1
  O  O307  1  0.55827841  0.58367685  0.93703572  1
  O  O308  1  0.55886820  0.91697724  0.18756344  1
  O  O309  1  0.55991422  0.91715076  0.43709655  1
  O  O310  1  0.55963993  0.91717231  0.68703791  1
  O  O311  1  0.55878528  0.91731930  0.93723884  1
  O  O312  1  0.44292871  0.08265080  0.06399412  1
  O  O313  1  0.44051631  0.08285450  0.31263131  1
  O  O314  1  0.44341929  0.08317977  0.56329948  1
  O  O315  1  0.44316508  0.08297180  0.81291602  1
  O  O316  1  0.44405443  0.41719275  0.06403017  1
  O  O317  1  0.44091913  0.41713522  0.31245517  1
  O  O318  1  0.44418542  0.41661978  0.56360175  1
  O  O319  1  0.44052688  0.41677757  0.81152466  1
  O  O320  1  0.44163084  0.75064979  0.06293264  1
  O  O321  1  0.43983501  0.75014579  0.31284585  1
  O  O322  1  0.44210904  0.75049719  0.56192183  1
  O  O323  1  0.44318390  0.75022286  0.81334457  1
  O  O324  1  0.94156932  0.08174210  0.06239781  1
  O  O325  1  0.94093476  0.08231501  0.31199704  1
  O  O326  1  0.94376317  0.08242735  0.56340461  1
  O  O327  1  0.94180083  0.08226495  0.81244120  1
  O  O328  1  0.94346666  0.41746465  0.06316109  1
  O  O329  1  0.94257289  0.41754810  0.31406537  1
  O  O330  1  0.94003460  0.41710153  0.56233123  1
  O  O331  1  0.94084784  0.41768693  0.81166381  1
  O  O332  1  0.94419165  0.75048898  0.06324495  1
  O  O333  1  0.94341452  0.74995487  0.31324415  1
  O  O334  1  0.94388898  0.75042236  0.56350808  1
  O  O335  1  0.94325515  0.75005724  0.81371129  1
  O  O336  1  0.19269626  0.08332124  0.06143469  1
  O  O337  1  0.19391859  0.08354096  0.31193128  1
  O  O338  1  0.18959452  0.08340544  0.56343952  1
  O  O339  1  0.19006768  0.08371410  0.81259480  1
  O  O340  1  0.19319421  0.41633012  0.06156283  1
  O  O341  1  0.19401969  0.41684843  0.31212891  1
  O  O342  1  0.19216384  0.41653181  0.56173575  1
  O  O343  1  0.19398170  0.41710282  0.81142288  1
  O  O344  1  0.19240813  0.75043646  0.06306337  1
  O  O345  1  0.19409950  0.74972924  0.31131261  1
  O  O346  1  0.19079486  0.74995199  0.56303419  1
  O  O347  1  0.19396421  0.74988567  0.81153727  1
  O  O348  1  0.69473262  0.08308698  0.06168635  1
  O  O349  1  0.69419488  0.08346341  0.31142234  1
  O  O350  1  0.69464022  0.08386502  0.56169023  1
  O  O351  1  0.69532415  0.08307678  0.81191359  1
  O  O352  1  0.69088603  0.41629072  0.06268644  1
  O  O353  1  0.69384001  0.41606763  0.31132935  1
  O  O354  1  0.69276320  0.41606432  0.56312805  1
  O  O355  1  0.69387854  0.41633774  0.81116408  1
  O  O356  1  0.69068936  0.75061631  0.06312402  1
  O  O357  1  0.69321908  0.75025623  0.31148242  1
  O  O358  1  0.69190498  0.75013649  0.56322679  1
  O  O359  1  0.69253885  0.75009518  0.81152848  1
  O  O360  1  0.30692418  0.24977753  0.18908791  1
  O  O361  1  0.30806930  0.24976431  0.43775193  1
  O  O362  1  0.30525931  0.24988702  0.68752956  1
  O  O363  1  0.30546810  0.24965813  0.93833087  1
  O  O364  1  0.30601459  0.58343702  0.18803569  1
  O  O365  1  0.30649291  0.58378361  0.43849163  1
  O  O366  1  0.30690241  0.58348097  0.68820252  1
  O  O367  1  0.30958009  0.58394987  0.93705652  1
  O  O368  1  0.30816946  0.91675014  0.18695445  1
  O  O369  1  0.30558278  0.91661816  0.43862139  1
  O  O370  1  0.30647607  0.91692040  0.68849236  1
  O  O371  1  0.30894459  0.91677668  0.93763876  1
  O  O372  1  0.80927716  0.25022354  0.18741912  1
  O  O373  1  0.80878776  0.24998027  0.43768838  1
  O  O374  1  0.80968950  0.24936158  0.68715446  1
  O  O375  1  0.80986042  0.24986911  0.93703295  1
  O  O376  1  0.80578639  0.58395734  0.18884923  1
  O  O377  1  0.80860748  0.58391006  0.43779968  1
  O  O378  1  0.80786175  0.58415445  0.68721240  1
  O  O379  1  0.80557467  0.58385872  0.93841093  1
  O  O380  1  0.80853783  0.91563623  0.18702913  1
  O  O381  1  0.80693955  0.91587426  0.43898061  1
  O  O382  1  0.80919190  0.91623260  0.68715146  1
  O  O383  1  0.80692535  0.91570143  0.93882955  1
  O  O384  1  0.23297173  0.24948247  0.04060980  1
  O  O385  1  0.23448041  0.24983622  0.29121581  1
  O  O386  1  0.23198617  0.24983670  0.53740430  1
  O  O387  1  0.23094286  0.25055372  0.78842987  1
  O  O388  1  0.23565625  0.58363064  0.03801188  1
  O  O389  1  0.23240846  0.58418378  0.28985312  1
  O  O390  1  0.23357866  0.58354387  0.54012630  1
  O  O391  1  0.23306146  0.58398736  0.78954539  1
  O  O392  1  0.23431740  0.91678763  0.03815927  1
  O  O393  1  0.23323741  0.91600665  0.28761465  1
  O  O394  1  0.23168208  0.91658942  0.53973525  1
  O  O395  1  0.23204424  0.91615239  0.78894404  1
  O  O396  1  0.73599208  0.24922875  0.03817868  1
  O  O397  1  0.73550097  0.25007776  0.28861179  1
  O  O398  1  0.73435030  0.25003306  0.53845684  1
  O  O399  1  0.73632024  0.24980556  0.78878856  1
  O  O400  1  0.73111189  0.58387491  0.03897802  1
  O  O401  1  0.73175437  0.58357525  0.28983924  1
  O  O402  1  0.73374965  0.58311101  0.53788330  1
  O  O403  1  0.73219055  0.58338065  0.78726926  1
  O  O404  1  0.73303193  0.91691472  0.03982396  1
  O  O405  1  0.73295720  0.91614645  0.28711853  1
  O  O406  1  0.73286142  0.91714078  0.53965661  1
  O  O407  1  0.73345432  0.91632061  0.78718294  1
  O  O408  1  0.26797000  0.08321704  0.21080580  1
  O  O409  1  0.26380098  0.08266638  0.46241808  1
  O  O410  1  0.26338320  0.08355916  0.71096656  1
  O  O411  1  0.26482545  0.08295922  0.95910446  1
  O  O412  1  0.26829625  0.41663578  0.21089650  1
  O  O413  1  0.26573547  0.41687071  0.46058609  1
  O  O414  1  0.26726385  0.41650350  0.70950029  1
  O  O415  1  0.26631164  0.41679715  0.96003516  1
  O  O416  1  0.26750170  0.74996412  0.20984852  1
  O  O417  1  0.26617925  0.75068035  0.46253694  1
  O  O418  1  0.26565985  0.75011002  0.70920450  1
  O  O419  1  0.26743720  0.75103830  0.96254443  1
  O  O420  1  0.76813692  0.08288071  0.21036295  1
  O  O421  1  0.76659983  0.08286895  0.45933902  1
  O  O422  1  0.76908572  0.08325861  0.71056001  1
  O  O423  1  0.76880980  0.08192317  0.96057456  1
  O  O424  1  0.76568672  0.41703181  0.20893412  1
  O  O425  1  0.76699018  0.41684259  0.46211446  1
  O  O426  1  0.76756370  0.41661676  0.71002602  1
  O  O427  1  0.76485701  0.41698996  0.96155794  1
  O  O428  1  0.76498478  0.75002564  0.20891664  1
  O  O429  1  0.76511365  0.75005761  0.46150906  1
  O  O430  1  0.76503547  0.74999109  0.70944809  1
  O  O431  1  0.76447140  0.75039416  0.96150273  1
  O  O432  1  0.01443402  0.08295252  0.16434561  1
  O  O433  1  0.01493425  0.08324061  0.41310602  1
  O  O434  1  0.01717975  0.08281657  0.66467156  1
  O  O435  1  0.01639851  0.08333998  0.91312655  1
  O  O436  1  0.01589061  0.41666666  0.16563993  1
  O  O437  1  0.01454106  0.41703587  0.41669472  1
  O  O438  1  0.01373775  0.41662321  0.66341367  1
  O  O439  1  0.01500612  0.41637721  0.91281510  1
  O  O440  1  0.01834868  0.75054910  0.16440703  1
  O  O441  1  0.01624837  0.74927758  0.41514325  1
  O  O442  1  0.01774896  0.75044115  0.66477082  1
  O  O443  1  0.01690422  0.75002127  0.91490452  1
  O  O444  1  0.51575641  0.08294896  0.16587753  1
  O  O445  1  0.51515357  0.08352937  0.41312583  1
  O  O446  1  0.51692577  0.08328082  0.66467969  1
  O  O447  1  0.51629449  0.08274638  0.91502972  1
  O  O448  1  0.51783248  0.41679917  0.16521013  1
  O  O449  1  0.51553513  0.41647496  0.41297649  1
  O  O450  1  0.51836518  0.41695491  0.66448175  1
  O  O451  1  0.51509360  0.41715178  0.91229980  1
  O  O452  1  0.51646743  0.75052478  0.16336473  1
  O  O453  1  0.51464837  0.75032378  0.41295922  1
  O  O454  1  0.51781024  0.74978799  0.66201801  1
  O  O455  1  0.51519160  0.75055801  0.91571105  1
  O  O456  1  0.48364611  0.25039001  0.08444790  1
  O  O457  1  0.48327006  0.25011497  0.33785686  1
  O  O458  1  0.48495719  0.25011643  0.58408519  1
  O  O459  1  0.48358815  0.24982262  0.83465327  1
  O  O460  1  0.48528928  0.58353820  0.08657836  1
  O  O461  1  0.48533947  0.58349141  0.33695530  1
  O  O462  1  0.48602790  0.58299123  0.58557022  1
  O  O463  1  0.48342142  0.58410580  0.83653618  1
  O  O464  1  0.48352683  0.91666477  0.08751577  1
  O  O465  1  0.48497506  0.91658177  0.33706116  1
  O  O466  1  0.48559390  0.91701891  0.58584674  1
  O  O467  1  0.48344210  0.91602995  0.83700385  1
  O  O468  1  0.98107761  0.24925669  0.08613652  1
  O  O469  1  0.98180186  0.25064051  0.33781395  1
  O  O470  1  0.98276653  0.24967718  0.58744976  1
  O  O471  1  0.98226720  0.24942943  0.83451090  1
  O  O472  1  0.98500765  0.58385042  0.08681002  1
  O  O473  1  0.98174540  0.58330602  0.33505941  1
  O  O474  1  0.98241331  0.58373495  0.58855739  1
  O  O475  1  0.98415241  0.58363699  0.83425501  1
  O  O476  1  0.98443587  0.91661881  0.08709495  1
  O  O477  1  0.98537028  0.91620725  0.33616447  1
  O  O478  1  0.98353787  0.91665060  0.58683804  1
  O  O479  1  0.98563580  0.91674861  0.83697230  1
  O  O480  1  0.08453896  0.31491396  0.07734498  1
  O  O481  1  0.08538013  0.31545815  0.32756066  1
  O  O482  1  0.08662699  0.31428786  0.57676780  1
  O  O483  1  0.08613334  0.31417587  0.82596359  1
  O  O484  1  0.08847468  0.64950043  0.07836751  1
  O  O485  1  0.08624272  0.64769739  0.32670509  1
  O  O486  1  0.08594220  0.64909367  0.57811364  1
  O  O487  1  0.08856309  0.64798683  0.82671529  1
  O  O488  1  0.08843295  0.98086550  0.07742503  1
  O  O489  1  0.08898327  0.98140049  0.32678777  1
  O  O490  1  0.08724167  0.98163107  0.57792398  1
  O  O491  1  0.08879088  0.98281106  0.82828627  1
  O  O492  1  0.58733173  0.31583349  0.07790225  1
  O  O493  1  0.58698186  0.31488478  0.32740831  1
  O  O494  1  0.58838897  0.31649573  0.57688198  1
  O  O495  1  0.58758603  0.31440527  0.82702573  1
  O  O496  1  0.58874559  0.64877204  0.07816769  1
  O  O497  1  0.58885102  0.64845801  0.32756664  1
  O  O498  1  0.58982170  0.64793861  0.57763475  1
  O  O499  1  0.58730099  0.64876301  0.82721147  1
  O  O500  1  0.58754665  0.98098203  0.07706661  1
  O  O501  1  0.58862221  0.98181880  0.32680105  1
  O  O502  1  0.58975528  0.98112802  0.57708574  1
  O  O503  1  0.58710614  0.98185666  0.82688409  1
  O  O504  1  0.41219568  0.01687878  0.17316671  1
  O  O505  1  0.41160861  0.01884874  0.42280842  1
  O  O506  1  0.41294890  0.01843473  0.67259715  1
  O  O507  1  0.41284299  0.01697836  0.92186059  1
  O  O508  1  0.41353191  0.35210211  0.17329391  1
  O  O509  1  0.41208361  0.35098557  0.42212058  1
  O  O510  1  0.41431956  0.35152985  0.67303187  1
  O  O511  1  0.41147623  0.35259296  0.92161843  1
  O  O512  1  0.41253512  0.68632254  0.17322647  1
  O  O513  1  0.41112842  0.68509837  0.42295895  1
  O  O514  1  0.41416930  0.68517863  0.67191943  1
  O  O515  1  0.41158450  0.68507206  0.92249893  1
  O  O516  1  0.91123078  0.01679015  0.17214782  1
  O  O517  1  0.91166974  0.01821930  0.42208579  1
  O  O518  1  0.91342524  0.01755250  0.67315466  1
  O  O519  1  0.91261186  0.01879579  0.92303674  1
  O  O520  1  0.91213509  0.35150364  0.17182609  1
  O  O521  1  0.91037499  0.35241078  0.42298702  1
  O  O522  1  0.91004523  0.35168229  0.67173119  1
  O  O523  1  0.91145204  0.35111805  0.92058745  1
  O  O524  1  0.91410470  0.68623415  0.17270940  1
  O  O525  1  0.91246353  0.68392106  0.42206714  1
  O  O526  1  0.91368255  0.68556836  0.67297142  1
  O  O527  1  0.91315190  0.68487505  0.92302840  1
  O  O528  1  0.16427487  0.01782551  0.20260793  1
  O  O529  1  0.16023390  0.01793498  0.45397018  1
  O  O530  1  0.15986553  0.01802298  0.70323964  1
  O  O531  1  0.16128201  0.01704928  0.95286658  1
  O  O532  1  0.16413243  0.35231945  0.20268706  1
  O  O533  1  0.16225901  0.35087899  0.45240723  1
  O  O534  1  0.16256511  0.35256176  0.70231903  1
  O  O535  1  0.16260346  0.35130952  0.95232817  1
  O  O536  1  0.16345191  0.68470557  0.20201709  1
  O  O537  1  0.16274683  0.68568892  0.45274884  1
  O  O538  1  0.16173049  0.68478625  0.70247134  1
  O  O539  1  0.16394419  0.68619665  0.95277024  1
  O  O540  1  0.66423308  0.01781742  0.20216313  1
  O  O541  1  0.66249129  0.01857876  0.45301810  1
  O  O542  1  0.66520442  0.01770658  0.70267731  1
  O  O543  1  0.66471152  0.01702494  0.95273916  1
  O  O544  1  0.66172431  0.35232264  0.20178326  1
  O  O545  1  0.66386753  0.35090894  0.45304261  1
  O  O546  1  0.66362988  0.35200494  0.70142909  1
  O  O547  1  0.66158371  0.35195576  0.95258571  1
  O  O548  1  0.66097608  0.68493479  0.20274108  1
  O  O549  1  0.66145966  0.68515435  0.45382669  1
  O  O550  1  0.66106813  0.68500245  0.70237132  1
  O  O551  1  0.66072362  0.68565199  0.95357053  1
  O  O552  1  0.33679118  0.31462827  0.04744240  1
  O  O553  1  0.33859773  0.31491432  0.29804481  1
  O  O554  1  0.33573378  0.31479582  0.54776703  1
  O  O555  1  0.33505524  0.31568039  0.79662129  1
  O  O556  1  0.33877832  0.64973198  0.04675037  1
  O  O557  1  0.33654274  0.64871719  0.29702158  1
  O  O558  1  0.33694552  0.64985666  0.54754745  1
  O  O559  1  0.33775548  0.64747106  0.79769622  1
  O  O560  1  0.33825032  0.98108812  0.04779946  1
  O  O561  1  0.33650272  0.98155038  0.29729804  1
  O  O562  1  0.33562613  0.98084523  0.54832867  1
  O  O563  1  0.33564140  0.98185120  0.79831757  1
  O  O564  1  0.83972865  0.31369680  0.04734753  1
  O  O565  1  0.83956008  0.31397969  0.29753264  1
  O  O566  1  0.83788970  0.31578413  0.54731694  1
  O  O567  1  0.83978638  0.31519808  0.79650382  1
  O  O568  1  0.83492563  0.64877216  0.04819907  1
  O  O569  1  0.83560336  0.64889536  0.29839662  1
  O  O570  1  0.83743502  0.64790898  0.54842748  1
  O  O571  1  0.83579893  0.64797730  0.79769406  1
  O  O572  1  0.83752907  0.98159158  0.04775820  1
  O  O573  1  0.83646294  0.98162579  0.29683087  1
  O  O574  1  0.83739487  0.98107333  0.54833087  1
  O  O575  1  0.83708893  0.98181997  0.79698782  1
  O  O576  1  0.41133971  0.14694414  0.17321998  1
  O  O577  1  0.41168780  0.14911757  0.42218765  1
  O  O578  1  0.41313904  0.14853213  0.67243782  1
  O  O579  1  0.41228746  0.14721946  0.92218330  1
  O  O580  1  0.41396151  0.48193933  0.17380644  1
  O  O581  1  0.41213512  0.48126651  0.42261100  1
  O  O582  1  0.41401609  0.48144401  0.67305242  1
  O  O583  1  0.41212524  0.48304583  0.92112420  1
  O  O584  1  0.41282920  0.81627028  0.17277941  1
  O  O585  1  0.41085341  0.81506134  0.42304505  1
  O  O586  1  0.41442816  0.81517914  0.67225293  1
  O  O587  1  0.41116575  0.81523709  0.92247895  1
  O  O588  1  0.91008238  0.14695887  0.17163165  1
  O  O589  1  0.91143850  0.14847232  0.42142666  1
  O  O590  1  0.91312440  0.14761304  0.67264309  1
  O  O591  1  0.91270324  0.14880960  0.92167986  1
  O  O592  1  0.91214997  0.48167445  0.17240722  1
  O  O593  1  0.91074677  0.48255721  0.42296601  1
  O  O594  1  0.91005594  0.48190477  0.67226364  1
  O  O595  1  0.91158771  0.48139617  0.92204199  1
  O  O596  1  0.91478841  0.81632801  0.17261385  1
  O  O597  1  0.91255743  0.81409096  0.42276096  1
  O  O598  1  0.91414470  0.81569864  0.67294044  1
  O  O599  1  0.91319184  0.81499870  0.92304945  1
  O  O600  1  0.08492769  0.18478117  0.07762914  1
  O  O601  1  0.08523087  0.18548802  0.32708869  1
  O  O602  1  0.08631612  0.18412614  0.57772529  1
  O  O603  1  0.08625881  0.18423038  0.82708377  1
  O  O604  1  0.08866267  0.51916547  0.07787171  1
  O  O605  1  0.08562502  0.51790641  0.32662432  1
  O  O606  1  0.08578354  0.51891887  0.57752648  1
  O  O607  1  0.08780041  0.51808813  0.82605904  1
  O  O608  1  0.08817961  0.85085926  0.07767489  1
  O  O609  1  0.08932169  0.85150793  0.32715701  1
  O  O610  1  0.08736002  0.85148504  0.57764962  1
  O  O611  1  0.08976829  0.85284015  0.82752293  1
  O  O612  1  0.58744274  0.18549956  0.07731829  1
  O  O613  1  0.58666051  0.18496917  0.32696197  1
  O  O614  1  0.58955971  0.18636332  0.57648832  1
  O  O615  1  0.58729143  0.18440104  0.82689974  1
  O  O616  1  0.58894988  0.51847328  0.07827956  1
  O  O617  1  0.58912655  0.51854528  0.32751593  1
  O  O618  1  0.58974783  0.51771998  0.57775162  1
  O  O619  1  0.58727056  0.51896615  0.82682363  1
  O  O620  1  0.58700406  0.85100305  0.07761664  1
  O  O621  1  0.58872281  0.85192679  0.32716486  1
  O  O622  1  0.58891516  0.85103026  0.57744588  1
  O  O623  1  0.58764076  0.85207040  0.82739941  1
  O  O624  1  0.33684021  0.18457046  0.04719373  1
  O  O625  1  0.33838713  0.18466343  0.29823729  1
  O  O626  1  0.33542213  0.18471548  0.54801988  1
  O  O627  1  0.33465134  0.18557747  0.79738066  1
  O  O628  1  0.33951458  0.51960274  0.04703106  1
  O  O629  1  0.33611099  0.51851392  0.29745093  1
  O  O630  1  0.33786195  0.51969846  0.54775447  1
  O  O631  1  0.33652831  0.51735559  0.79724212  1
  O  O632  1  0.33806773  0.85124722  0.04767490  1
  O  O633  1  0.33698439  0.85133352  0.29663208  1
  O  O634  1  0.33542987  0.85080460  0.54790171  1
  O  O635  1  0.33648766  0.85185618  0.79784268  1
  O  O636  1  0.83950155  0.18347724  0.04613160  1
  O  O637  1  0.83883572  0.18382906  0.29671543  1
  O  O638  1  0.83848802  0.18584742  0.54779281  1
  O  O639  1  0.84020596  0.18488236  0.79677404  1
  O  O640  1  0.83487371  0.51883913  0.04806365  1
  O  O641  1  0.83590181  0.51896842  0.29835046  1
  O  O642  1  0.83749140  0.51797942  0.54758153  1
  O  O643  1  0.83561713  0.51777658  0.79686522  1
  O  O644  1  0.83684950  0.85179215  0.04898638  1
  O  O645  1  0.83655417  0.85151619  0.29738559  1
  O  O646  1  0.83636868  0.85127294  0.54898994  1
  O  O647  1  0.83699585  0.85173404  0.79755410  1
  O  O648  1  0.16393720  0.14792820  0.20244996  1
  O  O649  1  0.16052213  0.14832814  0.45337106  1
  O  O650  1  0.15938222  0.14826089  0.70282819  1
  O  O651  1  0.16033725  0.14707204  0.95208165  1
  O  O652  1  0.16481847  0.48262600  0.20286052  1
  O  O653  1  0.16176507  0.48115564  0.45249791  1
  O  O654  1  0.16390540  0.48270814  0.70223762  1
  O  O655  1  0.16250020  0.48141313  0.95225660  1
  O  O656  1  0.16338544  0.81470287  0.20182500  1
  O  O657  1  0.16263600  0.81585788  0.45334035  1
  O  O658  1  0.16143802  0.81485719  0.70263141  1
  O  O659  1  0.16381390  0.81623079  0.95347241  1
  O  O660  1  0.66457237  0.14790499  0.20168885  1
  O  O661  1  0.66336533  0.14897572  0.45250710  1
  O  O662  1  0.66513106  0.14769119  0.70243685  1
  O  O663  1  0.66527620  0.14718134  0.95178645  1
  O  O664  1  0.66173365  0.48239748  0.20298314  1
  O  O665  1  0.66299568  0.48109438  0.45351555  1
  O  O666  1  0.66357018  0.48197107  0.70190226  1
  O  O667  1  0.66127522  0.48232172  0.95337332  1
  O  O668  1  0.66089018  0.81491728  0.20230275  1
  O  O669  1  0.66172652  0.81546177  0.45378845  1
  O  O670  1  0.66107590  0.81508762  0.70247846  1
  O  O671  1  0.66126209  0.81607720  0.95372528  1
