# generated using pymatgen
data_Na2MnFe(PO4)2
_symmetry_space_group_name_H-M   'P 1'
_cell_length_a   21.09603052
_cell_length_b   18.94942473
_cell_length_c   20.05405695
_cell_angle_alpha   90.00003089
_cell_angle_beta   90.00093452
_cell_angle_gamma   90.00068220
_symmetry_Int_Tables_number   1
_chemical_formula_structural   Na2MnFe(PO4)2
_chemical_formula_sum   'Na96 Mn48 Fe48 P96 O384'
_cell_volume   8016.76252643
_cell_formula_units_Z   48
loop_
 _symmetry_equiv_pos_site_id
 _symmetry_equiv_pos_as_xyz
  1  'x, y, z'
loop_
 _atom_site_type_symbol
 _atom_site_label
 _atom_site_symmetry_multiplicity
 _atom_site_fract_x
 _atom_site_fract_y
 _atom_site_fract_z
 _atom_site_occupancy
  Na  Na0  1  0.00048569  0.00001700  -0.00112782  1
  Na  Na1  1  -0.00102084  -0.00056841  0.25014609  1
  Na  Na2  1  0.00024510  0.00074038  0.50015416  1
  Na  Na3  1  -0.00084433  -0.00083964  0.75069093  1
  Na  Na4  1  -0.00069893  0.33351858  -0.00012730  1
  Na  Na5  1  0.00061016  0.33353223  0.25056380  1
  Na  Na6  1  -0.00002285  0.33290042  0.49984269  1
  Na  Na7  1  -0.00054111  0.33316507  0.74953528  1
  Na  Na8  1  -0.00094352  0.66629819  0.00124762  1
  Na  Na9  1  -0.00090728  0.66680421  0.25069781  1
  Na  Na10  1  -0.00166644  0.66619352  0.49989172  1
  Na  Na11  1  -0.00184117  0.66562823  0.74895608  1
  Na  Na12  1  0.50238075  0.00037123  0.00101982  1
  Na  Na13  1  0.50185608  0.00042340  0.25137355  1
  Na  Na14  1  0.50014636  0.00029154  0.49865686  1
  Na  Na15  1  0.50116473  0.00057833  0.74931271  1
  Na  Na16  1  0.49922019  0.33332632  0.00033726  1
  Na  Na17  1  0.49964263  0.33398017  0.24961402  1
  Na  Na18  1  0.49886809  0.33366818  0.50070386  1
  Na  Na19  1  0.49949556  0.33346165  0.74964847  1
  Na  Na20  1  0.49941654  0.66715209  0.00030237  1
  Na  Na21  1  0.49989411  0.66642473  0.24928195  1
  Na  Na22  1  0.50097848  0.66735497  0.49984813  1
  Na  Na23  1  0.49921954  0.66710978  0.75030394  1
  Na  Na24  1  0.25032669  0.00023888  0.12565200  1
  Na  Na25  1  0.25148541  0.00082561  0.37521832  1
  Na  Na26  1  0.25091833  0.00055942  0.62460020  1
  Na  Na27  1  0.24802954  -0.00128293  0.87397658  1
  Na  Na28  1  0.24910916  0.33408478  0.12564946  1
  Na  Na29  1  0.24968405  0.33338266  0.37462136  1
  Na  Na30  1  0.24989411  0.33347568  0.62528824  1
  Na  Na31  1  0.24882599  0.33355390  0.87455765  1
  Na  Na32  1  0.24979526  0.66723529  0.12444337  1
  Na  Na33  1  0.24797620  0.66605861  0.37501167  1
  Na  Na34  1  0.24882955  0.66624949  0.62448046  1
  Na  Na35  1  0.25036876  0.66752309  0.87605307  1
  Na  Na36  1  0.75021737  0.00014032  0.12455036  1
  Na  Na37  1  0.74771580  -0.00105651  0.37509873  1
  Na  Na38  1  0.74963120  0.00048501  0.62564682  1
  Na  Na39  1  0.74960577  0.00027127  0.87501587  1
  Na  Na40  1  0.75064325  0.33344896  0.12517360  1
  Na  Na41  1  0.75103464  0.33398931  0.37580756  1
  Na  Na42  1  0.75107672  0.33331385  0.62402312  1
  Na  Na43  1  0.75298506  0.33468751  0.87442985  1
  Na  Na44  1  0.75188105  0.66685976  0.12493558  1
  Na  Na45  1  0.75315414  0.66756854  0.37531696  1
  Na  Na46  1  0.75168355  0.66668889  0.62533802  1
  Na  Na47  1  0.75171198  0.66669882  0.87392639  1
  Na  Na48  1  -0.00082391  0.16673750  -0.00021716  1
  Na  Na49  1  -0.00131383  0.16684710  0.25098428  1
  Na  Na50  1  -0.00060660  0.16706930  0.50017575  1
  Na  Na51  1  -0.00170721  0.16770822  0.74979529  1
  Na  Na52  1  -0.00000310  0.49972892  0.00061472  1
  Na  Na53  1  0.00092817  0.49964698  0.25020142  1
  Na  Na54  1  0.00002243  0.50026238  0.49976472  1
  Na  Na55  1  -0.00029459  0.49982514  0.74963144  1
  Na  Na56  1  -0.00045632  0.83348253  -0.00037609  1
  Na  Na57  1  -0.00034943  0.83323664  0.25031941  1
  Na  Na58  1  -0.00213638  0.83432614  0.49978394  1
  Na  Na59  1  0.00040226  0.83285623  0.74997043  1
  Na  Na60  1  0.50246144  0.16572275  0.00042635  1
  Na  Na61  1  0.49854231  0.16772022  0.25057544  1
  Na  Na62  1  0.49807721  0.16728255  0.49962963  1
  Na  Na63  1  0.50080215  0.16603832  0.74912737  1
  Na  Na64  1  0.49936228  0.50007462  -0.00004358  1
  Na  Na65  1  0.50218112  0.49849642  0.24962347  1
  Na  Na66  1  0.50005472  0.49971167  0.50023194  1
  Na  Na67  1  0.50047350  0.49913120  0.74982474  1
  Na  Na68  1  0.49942011  0.83329645  0.00109775  1
  Na  Na69  1  0.50050283  0.83294750  0.25008802  1
  Na  Na70  1  0.50059175  0.83306799  0.49906905  1
  Na  Na71  1  0.49872657  0.83345737  0.75040682  1
  Na  Na72  1  0.25166026  0.16613997  0.12558916  1
  Na  Na73  1  0.25171004  0.16647732  0.37512019  1
  Na  Na74  1  0.24981600  0.16728887  0.62416981  1
  Na  Na75  1  0.24865152  0.16740118  0.87448557  1
  Na  Na76  1  0.24719632  0.50032825  0.12525538  1
  Na  Na77  1  0.24770098  0.50006690  0.37442463  1
  Na  Na78  1  0.24759583  0.49998415  0.62568248  1
  Na  Na79  1  0.24824499  0.49983583  0.87519544  1
  Na  Na80  1  0.24988846  0.83299074  0.12512642  1
  Na  Na81  1  0.25040770  0.83294196  0.37513682  1
  Na  Na82  1  0.25194708  0.83305700  0.62480228  1
  Na  Na83  1  0.24969223  0.83353653  0.87480620  1
  Na  Na84  1  0.75024835  0.16687507  0.12399900  1
  Na  Na85  1  0.75270699  0.16544732  0.37633262  1
  Na  Na86  1  0.75102956  0.16662606  0.62490422  1
  Na  Na87  1  0.75099782  0.16663693  0.87484413  1
  Na  Na88  1  0.75154434  0.49909254  0.12499542  1
  Na  Na89  1  0.74983790  0.49972601  0.37567934  1
  Na  Na90  1  0.75121562  0.49961516  0.62376719  1
  Na  Na91  1  0.75194647  0.49957087  0.87475415  1
  Na  Na92  1  0.75180928  0.83234729  0.12555941  1
  Na  Na93  1  0.74932908  0.83382625  0.37423256  1
  Na  Na94  1  0.75057686  0.83248052  0.62614546  1
  Na  Na95  1  0.75019307  0.83350327  0.87408181  1
  Mn  Mn96  1  0.39132510  0.58348223  0.62729662  1
  Mn  Mn97  1  0.60743649  0.75005655  0.62258375  1
  Mn  Mn98  1  0.85808479  0.74993312  0.75288223  1
  Mn  Mn99  1  0.39267249  0.24986578  0.12664203  1
  Mn  Mn100  1  0.10715937  0.41645075  0.62244669  1
  Mn  Mn101  1  0.10698017  0.75049417  0.37299491  1
  Mn  Mn102  1  0.39157050  0.58314267  0.87694535  1
  Mn  Mn103  1  0.64261166  0.58411019  0.49775579  1
  Mn  Mn104  1  0.64282663  0.91574265  0.99808138  1
  Mn  Mn105  1  0.14184090  0.24934128  0.99782209  1
  Mn  Mn106  1  0.39181767  0.58271783  0.37684159  1
  Mn  Mn107  1  0.35781222  0.08305475  0.75231634  1
  Mn  Mn108  1  0.64199352  0.91675152  0.74740408  1
  Mn  Mn109  1  0.10750231  0.08411146  0.87225549  1
  Mn  Mn110  1  0.89130337  0.91706929  0.37778832  1
  Mn  Mn111  1  0.89276444  0.58372439  0.12802391  1
  Mn  Mn112  1  0.10711151  0.08316592  0.62298390  1
  Mn  Mn113  1  0.39330581  0.91657278  0.37701263  1
  Mn  Mn114  1  0.64322055  0.58365656  0.99753493  1
  Mn  Mn115  1  0.35683253  0.41754243  0.75219884  1
  Mn  Mn116  1  0.89268368  0.91621841  0.87742886  1
  Mn  Mn117  1  0.39197371  0.58294007  0.12742141  1
  Mn  Mn118  1  0.64279522  0.25073872  0.99726985  1
  Mn  Mn119  1  0.64306246  0.25084305  0.74770745  1
  Mn  Mn120  1  0.10785449  0.74901108  0.87263063  1
  Mn  Mn121  1  0.60829153  0.41668051  0.87267748  1
  Mn  Mn122  1  0.35725364  0.41748168  0.25216261  1
  Mn  Mn123  1  0.85782183  0.08279938  0.00240971  1
  Mn  Mn124  1  0.85811960  0.41710261  0.50210191  1
  Mn  Mn125  1  0.60753611  0.08444870  0.37243734  1
  Mn  Mn126  1  0.35835499  0.08324328  0.00206740  1
  Mn  Mn127  1  0.39187102  0.24957961  0.87698594  1
  Mn  Mn128  1  0.64285083  0.58256846  0.74793884  1
  Mn  Mn129  1  0.14228887  0.91638981  0.24776784  1
  Mn  Mn130  1  0.60841294  0.74948058  0.12266434  1
  Mn  Mn131  1  0.64202434  0.24963583  0.49768761  1
  Mn  Mn132  1  0.64287569  0.24961247  0.24885556  1
  Mn  Mn133  1  0.64347484  0.58324180  0.24802809  1
  Mn  Mn134  1  0.35793744  0.74935832  0.50188188  1
  Mn  Mn135  1  0.85783316  0.08214236  0.50279560  1
  Mn  Mn136  1  0.89199763  0.24932222  0.12805609  1
  Mn  Mn137  1  0.14244178  0.24994934  0.24799562  1
  Mn  Mn138  1  0.14176086  0.58388432  0.99753623  1
  Mn  Mn139  1  0.10714830  0.75035898  0.62281624  1
  Mn  Mn140  1  0.10794860  0.08288559  0.12314052  1
  Mn  Mn141  1  0.39212277  0.91722014  0.87735837  1
  Mn  Mn142  1  0.14244750  0.91712223  0.49808253  1
  Mn  Mn143  1  0.39241995  0.91724887  0.12740188  1
  Fe  Fe144  1  0.60693536  0.41680303  0.37344712  1
  Fe  Fe145  1  0.89318690  0.25064974  0.87634626  1
  Fe  Fe146  1  0.85693164  0.08390179  0.75162179  1
  Fe  Fe147  1  0.14159141  0.58397965  0.74848768  1
  Fe  Fe148  1  0.85741635  0.08330631  0.25182924  1
  Fe  Fe149  1  0.35646748  0.41698929  0.00159219  1
  Fe  Fe150  1  0.60811816  0.08317943  0.87302771  1
  Fe  Fe151  1  0.39209102  0.25107587  0.37688851  1
  Fe  Fe152  1  0.14276657  0.91646765  0.74750774  1
  Fe  Fe153  1  0.85785075  0.75017610  0.25200573  1
  Fe  Fe154  1  0.89177998  0.91710955  0.62713124  1
  Fe  Fe155  1  0.64244561  0.91602841  0.49924909  1
  Fe  Fe156  1  0.89310521  0.58258423  0.87662154  1
  Fe  Fe157  1  0.39301865  0.91718359  0.62627023  1
  Fe  Fe158  1  0.35711482  0.74984772  0.00202880  1
  Fe  Fe159  1  0.60829398  0.41628326  0.12286031  1
  Fe  Fe160  1  0.35717232  0.08389414  0.50189832  1
  Fe  Fe161  1  0.10659509  0.41644484  0.12310461  1
  Fe  Fe162  1  0.14254530  0.91659034  0.99892365  1
  Fe  Fe163  1  0.10717320  0.41619689  0.37363363  1
  Fe  Fe164  1  0.89283421  0.24985701  0.62700887  1
  Fe  Fe165  1  0.60719535  0.41624118  0.62314790  1
  Fe  Fe166  1  0.89291454  0.91673031  0.12651174  1
  Fe  Fe167  1  0.89345738  0.25021844  0.37673929  1
  Fe  Fe168  1  0.35658623  0.41666691  0.50132132  1
  Fe  Fe169  1  0.85798418  0.41606674  0.75169294  1
  Fe  Fe170  1  0.60707283  0.75007066  0.87366424  1
  Fe  Fe171  1  0.60708051  0.08379233  0.62308219  1
  Fe  Fe172  1  0.64370304  0.91675686  0.24816179  1
  Fe  Fe173  1  0.10764049  0.08367283  0.37332363  1
  Fe  Fe174  1  0.85827137  0.41713772  0.00220261  1
  Fe  Fe175  1  0.39237489  0.24984712  0.62660568  1
  Fe  Fe176  1  0.60833502  0.74890177  0.37270748  1
  Fe  Fe177  1  0.14176183  0.24979688  0.74775177  1
  Fe  Fe178  1  0.14299813  0.24999507  0.49799789  1
  Fe  Fe179  1  0.85788725  0.74982894  0.00179132  1
  Fe  Fe180  1  0.14170088  0.58289728  0.49814582  1
  Fe  Fe181  1  0.60809625  0.08404010  0.12429079  1
  Fe  Fe182  1  0.10690964  0.75045921  0.12353146  1
  Fe  Fe183  1  0.35826525  0.08283721  0.25197931  1
  Fe  Fe184  1  0.89335427  0.58252756  0.37665164  1
  Fe  Fe185  1  0.35668163  0.74991372  0.75167590  1
  Fe  Fe186  1  0.85791031  0.41625235  0.25248890  1
  Fe  Fe187  1  0.85688576  0.75061624  0.50159140  1
  Fe  Fe188  1  0.35678577  0.74982265  0.25149995  1
  Fe  Fe189  1  0.10642103  0.41665150  0.87373076  1
  Fe  Fe190  1  0.14177912  0.58426182  0.24853603  1
  Fe  Fe191  1  0.89293997  0.58298218  0.62690602  1
  P  P192  1  0.05305524  0.25028530  0.11036702  1
  P  P193  1  0.05406662  0.24965330  0.36165172  1
  P  P194  1  0.05368342  0.24974007  0.61031036  1
  P  P195  1  0.05263447  0.25100674  0.85947070  1
  P  P196  1  0.05460635  0.58373578  0.11164744  1
  P  P197  1  0.05397876  0.58274057  0.36088272  1
  P  P198  1  0.05355827  0.58351631  0.61044390  1
  P  P199  1  0.05232282  0.58254125  0.85966112  1
  P  P200  1  0.05263671  0.91581419  0.10967229  1
  P  P201  1  0.05315305  0.91778811  0.36030162  1
  P  P202  1  0.05254367  0.91668648  0.61102123  1
  P  P203  1  0.05545084  0.91623519  0.86033460  1
  P  P204  1  0.55452834  0.25009311  0.11052552  1
  P  P205  1  0.55173321  0.25140492  0.36036251  1
  P  P206  1  0.55244650  0.24998130  0.61015786  1
  P  P207  1  0.55349759  0.24959788  0.85960987  1
  P  P208  1  0.55410575  0.58242881  0.10985255  1
  P  P209  1  0.55366020  0.58294034  0.35996628  1
  P  P210  1  0.55316969  0.58260289  0.61016478  1
  P  P211  1  0.55331186  0.58419657  0.86007861  1
  P  P212  1  0.55541207  0.91730053  0.11189368  1
  P  P213  1  0.55640977  0.91559861  0.36063117  1
  P  P214  1  0.55261208  0.91740227  0.60928825  1
  P  P215  1  0.55377371  0.91624718  0.86036920  1
  P  P216  1  0.44797268  0.08324813  0.14094515  1
  P  P217  1  0.44466235  0.08431751  0.38941131  1
  P  P218  1  0.44613850  0.08340495  0.63821314  1
  P  P219  1  0.44857792  0.08316137  0.89010299  1
  P  P220  1  0.44683182  0.41667544  0.13884381  1
  P  P221  1  0.44665114  0.41645556  0.39052341  1
  P  P222  1  0.44581638  0.41601864  0.63871656  1
  P  P223  1  0.44584362  0.41654558  0.89064115  1
  P  P224  1  0.44485563  0.75002638  0.13982820  1
  P  P225  1  0.44720131  0.74944208  0.38842478  1
  P  P226  1  0.44561680  0.75098531  0.64033455  1
  P  P227  1  0.44561055  0.75023820  0.88978234  1
  P  P228  1  0.94624601  0.08210412  0.14071035  1
  P  P229  1  0.94646325  0.08398896  0.38916480  1
  P  P230  1  0.94558774  0.08324865  0.64081128  1
  P  P231  1  0.94527099  0.08428531  0.88850063  1
  P  P232  1  0.94616326  0.41676682  0.14006784  1
  P  P233  1  0.94678350  0.41649746  0.38876171  1
  P  P234  1  0.94595100  0.41653262  0.64007705  1
  P  P235  1  0.94609155  0.41667332  0.88907802  1
  P  P236  1  0.94614168  0.75098304  0.13968808  1
  P  P237  1  0.94428374  0.74937946  0.38953568  1
  P  P238  1  0.94463043  0.75030976  0.63852987  1
  P  P239  1  0.94643538  0.74870435  0.89060398  1
  P  P240  1  0.19729017  0.08345738  0.23648206  1
  P  P241  1  0.19711698  0.08438964  0.48474201  1
  P  P242  1  0.19627906  0.08338991  0.73448356  1
  P  P243  1  0.19680053  0.08236523  0.98491913  1
  P  P244  1  0.19393657  0.41753648  0.23585538  1
  P  P245  1  0.19636439  0.41613787  0.48476609  1
  P  P246  1  0.19395726  0.41675911  0.73645523  1
  P  P247  1  0.19510801  0.41653808  0.98549363  1
  P  P248  1  0.19642389  0.74949193  0.23460851  1
  P  P249  1  0.19626315  0.74962355  0.48511771  1
  P  P250  1  0.19713921  0.74995531  0.73495997  1
  P  P251  1  0.19629967  0.75109820  0.98639399  1
  P  P252  1  0.69781429  0.08326529  0.23485239  1
  P  P253  1  0.69515788  0.08249729  0.48645184  1
  P  P254  1  0.69599226  0.08401271  0.73532421  1
  P  P255  1  0.69519434  0.08336798  0.98543081  1
  P  P256  1  0.69689757  0.41631488  0.23599202  1
  P  P257  1  0.69475322  0.41657383  0.48551083  1
  P  P258  1  0.69816992  0.41658142  0.73388911  1
  P  P259  1  0.69788319  0.41699822  0.98567122  1
  P  P260  1  0.69749765  0.74995291  0.23614166  1
  P  P261  1  0.69734201  0.75065713  0.48472477  1
  P  P262  1  0.69559567  0.74949165  0.73602789  1
  P  P263  1  0.69823319  0.74968125  0.98415544  1
  P  P264  1  0.30300453  0.25103107  0.01491232  1
  P  P265  1  0.30447267  0.24984991  0.26539957  1
  P  P266  1  0.30401800  0.25071079  0.51401039  1
  P  P267  1  0.30278202  0.25010141  0.76359260  1
  P  P268  1  0.30314246  0.58282386  0.01489183  1
  P  P269  1  0.30148859  0.58426583  0.26468948  1
  P  P270  1  0.30141017  0.58186585  0.51456024  1
  P  P271  1  0.30109894  0.58423570  0.76495405  1
  P  P272  1  0.30233219  0.91625054  0.01503789  1
  P  P273  1  0.30377564  0.91607262  0.26505008  1
  P  P274  1  0.30445056  0.91751015  0.51512576  1
  P  P275  1  0.30352221  0.91596323  0.76341652  1
  P  P276  1  0.80531012  0.25103927  0.01367960  1
  P  P277  1  0.80443547  0.24982937  0.26604958  1
  P  P278  1  0.80552264  0.25001604  0.51448756  1
  P  P279  1  0.80567039  0.25010895  0.76398030  1
  P  P280  1  0.80573603  0.58341753  0.01391957  1
  P  P281  1  0.80497337  0.58281531  0.26551913  1
  P  P282  1  0.80561585  0.58411532  0.51415623  1
  P  P283  1  0.80584172  0.58186361  0.76417007  1
  P  P284  1  0.80441367  0.91549563  0.01554964  1
  P  P285  1  0.80388241  0.91712393  0.26355129  1
  P  P286  1  0.80216607  0.91577219  0.51587401  1
  P  P287  1  0.80453517  0.91784981  0.76408357  1
  O  O288  1  0.05632793  0.24966600  0.18709656  1
  O  O289  1  0.05863816  0.24961879  0.43835106  1
  O  O290  1  0.05853664  0.24974250  0.68696029  1
  O  O291  1  0.05624249  0.25003705  0.93617017  1
  O  O292  1  0.05810912  0.58422992  0.18861386  1
  O  O293  1  0.05841208  0.58340943  0.43764167  1
  O  O294  1  0.05849400  0.58375357  0.68707637  1
  O  O295  1  0.05605005  0.58350525  0.93643578  1
  O  O296  1  0.05634485  0.91627514  0.18638328  1
  O  O297  1  0.05650011  0.91726053  0.43703167  1
  O  O298  1  0.05823357  0.91630504  0.68764490  1
  O  O299  1  0.05967805  0.91631367  0.93703906  1
  O  O300  1  0.55721482  0.25061032  0.18725904  1
  O  O301  1  0.55556866  0.25038863  0.43692893  1
  O  O302  1  0.55657206  0.25000432  0.68677975  1
  O  O303  1  0.55677943  0.25047844  0.93633821  1
  O  O304  1  0.55768710  0.58290205  0.18659167  1
  O  O305  1  0.55653245  0.58368700  0.43658228  1
  O  O306  1  0.55653149  0.58299875  0.68691555  1
  O  O307  1  0.55667963  0.58377505  0.93679926  1
  O  O308  1  0.55983856  0.91637100  0.18863554  1
  O  O309  1  0.55990498  0.91599722  0.43738575  1
  O  O310  1  0.55620945  0.91671620  0.68601870  1
  O  O311  1  0.55674128  0.91588347  0.93711628  1
  O  O312  1  0.44425453  0.08277669  0.06423623  1
  O  O313  1  0.44087983  0.08327337  0.31264309  1
  O  O314  1  0.44139588  0.08355750  0.56157601  1
  O  O315  1  0.44405115  0.08303624  0.81341436  1
  O  O316  1  0.44120226  0.41706540  0.06235454  1
  O  O317  1  0.44299943  0.41721363  0.31376966  1
  O  O318  1  0.44063883  0.41700807  0.56216299  1
  O  O319  1  0.44228171  0.41680807  0.81382309  1
  O  O320  1  0.44004713  0.75014273  0.06308042  1
  O  O321  1  0.44164566  0.74923444  0.31184137  1
  O  O322  1  0.44290101  0.74987602  0.56354081  1
  O  O323  1  0.44038602  0.75003539  0.81310857  1
  O  O324  1  0.94331140  0.08288248  0.06387838  1
  O  O325  1  0.94141296  0.08299699  0.31262724  1
  O  O326  1  0.94339903  0.08298362  0.56377433  1
  O  O327  1  0.94126104  0.08345033  0.81188971  1
  O  O328  1  0.94166129  0.41679888  0.06328537  1
  O  O329  1  0.94246035  0.41650781  0.31221709  1
  O  O330  1  0.94359226  0.41662838  0.56311465  1
  O  O331  1  0.94207802  0.41663632  0.81242929  1
  O  O332  1  0.94178403  0.75019642  0.06302985  1
  O  O333  1  0.94055572  0.75044255  0.31273413  1
  O  O334  1  0.94098935  0.75083218  0.56175004  1
  O  O335  1  0.94349144  0.74970880  0.81386383  1
  O  O336  1  0.19396966  0.08325918  0.06168328  1
  O  O337  1  0.19199921  0.08362467  0.31306006  1
  O  O338  1  0.19289746  0.08387952  0.56135683  1
  O  O339  1  0.19319227  0.08356207  0.81130803  1
  O  O340  1  0.19030326  0.41644719  0.06221919  1
  O  O341  1  0.18983090  0.41636384  0.31260979  1
  O  O342  1  0.19287030  0.41602803  0.56145487  1
  O  O343  1  0.18993808  0.41656456  0.81317382  1
  O  O344  1  0.19113962  0.75042158  0.06297659  1
  O  O345  1  0.19251278  0.75011447  0.31125976  1
  O  O346  1  0.19306571  0.75036218  0.56183352  1
  O  O347  1  0.19388948  0.74991182  0.81165990  1
  O  O348  1  0.69111412  0.08366544  0.06210809  1
  O  O349  1  0.69388791  0.08409065  0.31164371  1
  O  O350  1  0.69082257  0.08387303  0.56311221  1
  O  O351  1  0.69131091  0.08384572  0.81204438  1
  O  O352  1  0.69253379  0.41662601  0.06227273  1
  O  O353  1  0.69142109  0.41633142  0.31265643  1
  O  O354  1  0.69029858  0.41623757  0.56217960  1
  O  O355  1  0.69418262  0.41659945  0.81063263  1
  O  O356  1  0.69430674  0.74945115  0.06086728  1
  O  O357  1  0.69253710  0.74918139  0.31279138  1
  O  O358  1  0.69366969  0.74950353  0.56143742  1
  O  O359  1  0.69090266  0.74969528  0.81273297  1
  O  O360  1  0.30750468  0.25054676  0.18863630  1
  O  O361  1  0.30851951  0.25088502  0.43733738  1
  O  O362  1  0.30821815  0.24989361  0.68696247  1
  O  O363  1  0.30569905  0.25040678  0.93810939  1
  O  O364  1  0.30548576  0.58333436  0.18806508  1
  O  O365  1  0.30541939  0.58242043  0.43792261  1
  O  O366  1  0.30490602  0.58324022  0.68827555  1
  O  O367  1  0.30594843  0.58277498  0.93819383  1
  O  O368  1  0.30635844  0.91649006  0.18829275  1
  O  O369  1  0.30757040  0.91664841  0.43841240  1
  O  O370  1  0.30883388  0.91713016  0.68686881  1
  O  O371  1  0.30579416  0.91683473  0.93831470  1
  O  O372  1  0.80664930  0.25001697  0.18925629  1
  O  O373  1  0.81022656  0.25015629  0.43780805  1
  O  O374  1  0.80909548  0.25001301  0.68718100  1
  O  O375  1  0.80939888  0.25071663  0.93694660  1
  O  O376  1  0.80734637  0.58276238  0.18907721  1
  O  O377  1  0.80976078  0.58257150  0.43740731  1
  O  O378  1  0.80954917  0.58266160  0.68740445  1
  O  O379  1  0.80935565  0.58305635  0.93690124  1
  O  O380  1  0.80852245  0.91693911  0.18701410  1
  O  O381  1  0.80559335  0.91692374  0.43908545  1
  O  O382  1  0.80839018  0.91709857  0.68736643  1
  O  O383  1  0.80726447  0.91654095  0.93873767  1
  O  O384  1  0.23356929  0.25018074  0.04071354  1
  O  O385  1  0.23466693  0.25008660  0.29018438  1
  O  O386  1  0.23354867  0.25046134  0.53766953  1
  O  O387  1  0.23233186  0.25020645  0.78684663  1
  O  O388  1  0.23343631  0.58343608  0.04004843  1
  O  O389  1  0.23141705  0.58379778  0.28908223  1
  O  O390  1  0.23125877  0.58247718  0.53895417  1
  O  O391  1  0.23116350  0.58398098  0.78983294  1
  O  O392  1  0.23249979  0.91652450  0.04017610  1
  O  O393  1  0.23425983  0.91644468  0.29072080  1
  O  O394  1  0.23462714  0.91697155  0.54001979  1
  O  O395  1  0.23313623  0.91612493  0.78687196  1
  O  O396  1  0.73544844  0.25043743  0.03812588  1
  O  O397  1  0.73494254  0.24971424  0.29193134  1
  O  O398  1  0.73538076  0.24997955  0.53801251  1
  O  O399  1  0.73583937  0.25053938  0.78880554  1
  O  O400  1  0.73601454  0.58320959  0.03883063  1
  O  O401  1  0.73534989  0.58331300  0.29127187  1
  O  O402  1  0.73563210  0.58339694  0.53825735  1
  O  O403  1  0.73592320  0.58290970  0.78863691  1
  O  O404  1  0.73478093  0.91586377  0.04060305  1
  O  O405  1  0.73359865  0.91691132  0.28760882  1
  O  O406  1  0.73225548  0.91620395  0.54066847  1
  O  O407  1  0.73460858  0.91728398  0.78845815  1
  O  O408  1  0.26771570  0.08319658  0.21309364  1
  O  O409  1  0.26746437  0.08400044  0.46111156  1
  O  O410  1  0.26591543  0.08356501  0.70938307  1
  O  O411  1  0.26623392  0.08298230  0.95904949  1
  O  O412  1  0.26405494  0.41705562  0.21192678  1
  O  O413  1  0.26636252  0.41624779  0.46001978  1
  O  O414  1  0.26387628  0.41681251  0.71189566  1
  O  O415  1  0.26534294  0.41689135  0.96176546  1
  O  O416  1  0.26649691  0.74998374  0.21030281  1
  O  O417  1  0.26594082  0.74951255  0.46001356  1
  O  O418  1  0.26697812  0.74987433  0.70979990  1
  O  O419  1  0.26662961  0.75028220  0.96272637  1
  O  O420  1  0.76787987  0.08368989  0.21047774  1
  O  O421  1  0.76530215  0.08241501  0.46239710  1
  O  O422  1  0.76638126  0.08387008  0.71196035  1
  O  O423  1  0.76531795  0.08318873  0.96152006  1
  O  O424  1  0.76748928  0.41631203  0.21308703  1
  O  O425  1  0.76512656  0.41681843  0.46216604  1
  O  O426  1  0.76831803  0.41622027  0.70982914  1
  O  O427  1  0.76826688  0.41733271  0.96233876  1
  O  O428  1  0.76793766  0.74955787  0.21274758  1
  O  O429  1  0.76744005  0.75052972  0.46032306  1
  O  O430  1  0.76572893  0.74943461  0.71255547  1
  O  O431  1  0.76832249  0.75011548  0.95989892  1
  O  O432  1  0.01593134  0.08297104  0.16577455  1
  O  O433  1  0.01665173  0.08397937  0.41317025  1
  O  O434  1  0.01507972  0.08316442  0.66629834  1
  O  O435  1  0.01523635  0.08394376  0.91300655  1
  O  O436  1  0.01657727  0.41680161  0.16350751  1
  O  O437  1  0.01695745  0.41644431  0.41316708  1
  O  O438  1  0.01555414  0.41648310  0.66517920  1
  O  O439  1  0.01632891  0.41667095  0.91344865  1
  O  O440  1  0.01645804  0.75021437  0.16372128  1
  O  O441  1  0.01425183  0.75030940  0.41381473  1
  O  O442  1  0.01442352  0.74968240  0.66346903  1
  O  O443  1  0.01613664  0.74948332  0.91559686  1
  O  O444  1  0.51797643  0.08398259  0.16557164  1
  O  O445  1  0.51481383  0.08386501  0.41327403  1
  O  O446  1  0.51646242  0.08352275  0.66208631  1
  O  O447  1  0.51866391  0.08292993  0.91415659  1
  O  O448  1  0.51727574  0.41623219  0.16212513  1
  O  O449  1  0.51668671  0.41686275  0.41495681  1
  O  O450  1  0.51619702  0.41599828  0.66242015  1
  O  O451  1  0.51576171  0.41673276  0.91501097  1
  O  O452  1  0.51516445  0.74967618  0.16302652  1
  O  O453  1  0.51764021  0.74973947  0.41175006  1
  O  O454  1  0.51533471  0.75016939  0.66539421  1
  O  O455  1  0.51602390  0.75024980  0.91330211  1
  O  O456  1  0.48499083  0.24972865  0.08492673  1
  O  O457  1  0.48176528  0.25100738  0.33573771  1
  O  O458  1  0.48230840  0.24998256  0.58582951  1
  O  O459  1  0.48388397  0.24987258  0.83428877  1
  O  O460  1  0.48433650  0.58331206  0.08516003  1
  O  O461  1  0.48414110  0.58244626  0.33423008  1
  O  O462  1  0.48342213  0.58355288  0.58516658  1
  O  O463  1  0.48362927  0.58316496  0.83495684  1
  O  O464  1  0.48544828  0.91681142  0.08755639  1
  O  O465  1  0.48635485  0.91649214  0.33642352  1
  O  O466  1  0.48265968  0.91691723  0.58456004  1
  O  O467  1  0.48418337  0.91689331  0.83492029  1
  O  O468  1  0.98341784  0.24999867  0.08529904  1
  O  O469  1  0.98381935  0.25002128  0.33761554  1
  O  O470  1  0.98318504  0.24995529  0.58717653  1
  O  O471  1  0.98253710  0.25069641  0.83519123  1
  O  O472  1  0.98500003  0.58326571  0.08705557  1
  O  O473  1  0.98365925  0.58311658  0.33713384  1
  O  O474  1  0.98309985  0.58307285  0.58721982  1
  O  O475  1  0.98228171  0.58267032  0.83528992  1
  O  O476  1  0.98263028  0.91662072  0.08507644  1
  O  O477  1  0.98335326  0.91683419  0.33556258  1
  O  O478  1  0.98211961  0.91743878  0.58780061  1
  O  O479  1  0.98525089  0.91594475  0.83673241  1
  O  O480  1  0.08680543  0.31555358  0.07812788  1
  O  O481  1  0.08744560  0.31467981  0.32856350  1
  O  O482  1  0.08706827  0.31461567  0.57687432  1
  O  O483  1  0.08624898  0.31614256  0.82702796  1
  O  O484  1  0.08800271  0.64891988  0.07865868  1
  O  O485  1  0.08738185  0.64770145  0.32737426  1
  O  O486  1  0.08662990  0.64839196  0.57675922  1
  O  O487  1  0.08612018  0.64743961  0.82646331  1
  O  O488  1  0.08705895  0.98055643  0.07693090  1
  O  O489  1  0.08674253  0.98305920  0.32792896  1
  O  O490  1  0.08608888  0.98158020  0.57776575  1
  O  O491  1  0.08876643  0.98129713  0.82701074  1
  O  O492  1  0.58858465  0.31511292  0.07780481  1
  O  O493  1  0.58555520  0.31652514  0.32797338  1
  O  O494  1  0.58619168  0.31499610  0.57738288  1
  O  O495  1  0.58767122  0.31467368  0.82707348  1
  O  O496  1  0.58835149  0.64742899  0.07737603  1
  O  O497  1  0.58782759  0.64789517  0.32722375  1
  O  O498  1  0.58762409  0.64746103  0.57763065  1
  O  O499  1  0.58684041  0.64959165  0.82784397  1
  O  O500  1  0.58869715  0.98271529  0.07954884  1
  O  O501  1  0.59043569  0.98059640  0.32775451  1
  O  O502  1  0.58658585  0.98242791  0.57691737  1
  O  O503  1  0.58827127  0.98121006  0.82814632  1
  O  O504  1  0.41435638  0.01820046  0.17396848  1
  O  O505  1  0.41099165  0.01951875  0.42277309  1
  O  O506  1  0.41318870  0.01812986  0.67154036  1
  O  O507  1  0.41485865  0.01825694  0.92315708  1
  O  O508  1  0.41338204  0.35178690  0.17219648  1
  O  O509  1  0.41275529  0.35135793  0.42299650  1
  O  O510  1  0.41248346  0.35085404  0.67169036  1
  O  O511  1  0.41183884  0.35149900  0.92306762  1
  O  O512  1  0.41114457  0.68517496  0.17310311  1
  O  O513  1  0.41409497  0.68445707  0.42210689  1
  O  O514  1  0.41076399  0.68641911  0.67307563  1
  O  O515  1  0.41213615  0.68529107  0.92311491  1
  O  O516  1  0.91247408  0.01675792  0.17280034  1
  O  O517  1  0.91310385  0.01895982  0.42285577  1
  O  O518  1  0.91088010  0.01855393  0.67289488  1
  O  O519  1  0.91174291  0.01934946  0.92187697  1
  O  O520  1  0.91281756  0.35178646  0.17336549  1
  O  O521  1  0.91324461  0.35161192  0.42202990  1
  O  O522  1  0.91178126  0.35147414  0.67220717  1
  O  O523  1  0.91258679  0.35164563  0.92220950  1
  O  O524  1  0.91232189  0.68637610  0.17322211  1
  O  O525  1  0.91116430  0.68392264  0.42193296  1
  O  O526  1  0.91078772  0.68506397  0.67086007  1
  O  O527  1  0.91273356  0.68332911  0.92265338  1
  O  O528  1  0.16393555  0.01850147  0.20312014  1
  O  O529  1  0.16324112  0.01953613  0.45164048  1
  O  O530  1  0.16240245  0.01809610  0.70226122  1
  O  O531  1  0.16266948  0.01709534  0.95320039  1
  O  O532  1  0.16016144  0.35277567  0.20236418  1
  O  O533  1  0.16244616  0.35107865  0.45203717  1
  O  O534  1  0.16054135  0.35171748  0.70321660  1
  O  O535  1  0.16165878  0.35162923  0.95212506  1
  O  O536  1  0.16257464  0.68442590  0.20197407  1
  O  O537  1  0.16200765  0.68454346  0.45313516  1
  O  O538  1  0.16295328  0.68487563  0.70271687  1
  O  O539  1  0.16283305  0.68617838  0.95273781  1
  O  O540  1  0.66394703  0.01826650  0.20235764  1
  O  O541  1  0.66176120  0.01727109  0.45408361  1
  O  O542  1  0.66228513  0.01921142  0.70199608  1
  O  O543  1  0.66166640  0.01825214  0.95246188  1
  O  O544  1  0.66378733  0.35126742  0.20250986  1
  O  O545  1  0.66157817  0.35164030  0.45193996  1
  O  O546  1  0.66411498  0.35171671  0.70107836  1
  O  O547  1  0.66495262  0.35205309  0.95181607  1
  O  O548  1  0.66437488  0.68502487  0.20244015  1
  O  O549  1  0.66358239  0.68580486  0.45134778  1
  O  O550  1  0.66241788  0.68453470  0.70265622  1
  O  O551  1  0.66454914  0.68471398  0.95118574  1
  O  O552  1  0.33674274  0.31644487  0.04696767  1
  O  O553  1  0.33844918  0.31493413  0.29813961  1
  O  O554  1  0.33712900  0.31582002  0.54742377  1
  O  O555  1  0.33592379  0.31510577  0.79692350  1
  O  O556  1  0.33750962  0.64781727  0.04698484  1
  O  O557  1  0.33510797  0.64939205  0.29729802  1
  O  O558  1  0.33546943  0.64677875  0.54729222  1
  O  O559  1  0.33505124  0.64938037  0.79715367  1
  O  O560  1  0.33646269  0.98125673  0.04765613  1
  O  O561  1  0.33842440  0.98087277  0.29719670  1
  O  O562  1  0.33811469  0.98290921  0.54736206  1
  O  O563  1  0.33664816  0.98084744  0.79742889  1
  O  O564  1  0.83868303  0.31614131  0.04670080  1
  O  O565  1  0.83892581  0.31485128  0.29821434  1
  O  O566  1  0.83908625  0.31500714  0.54765798  1
  O  O567  1  0.83976749  0.31516612  0.79661153  1
  O  O568  1  0.83925354  0.64876531  0.04629683  1
  O  O569  1  0.83971298  0.64774569  0.29760859  1
  O  O570  1  0.83875481  0.64953514  0.54665517  1
  O  O571  1  0.84029708  0.64630716  0.79744143  1
  O  O572  1  0.83883843  0.98024590  0.04830415  1
  O  O573  1  0.83674336  0.98237696  0.29713427  1
  O  O574  1  0.83652095  0.98054102  0.54874421  1
  O  O575  1  0.83782199  0.98307868  0.79681642  1
  O  O576  1  0.41335415  0.14804612  0.17314756  1
  O  O577  1  0.41124829  0.14957968  0.42201896  1
  O  O578  1  0.41274237  0.14838391  0.67157945  1
  O  O579  1  0.41501592  0.14829264  0.92282461  1
  O  O580  1  0.41392018  0.48166423  0.17287250  1
  O  O581  1  0.41239605  0.48120323  0.42348306  1
  O  O582  1  0.41264888  0.48101985  0.67248795  1
  O  O583  1  0.41156360  0.48139477  0.92325370  1
  O  O584  1  0.41166557  0.81505635  0.17319894  1
  O  O585  1  0.41398094  0.81442878  0.42182087  1
  O  O586  1  0.41200791  0.81651617  0.67223966  1
  O  O587  1  0.41232855  0.81527600  0.92316789  1
  O  O588  1  0.91150469  0.14668231  0.17340374  1
  O  O589  1  0.91293885  0.14895709  0.42217264  1
  O  O590  1  0.91136499  0.14857367  0.67242003  1
  O  O591  1  0.91193043  0.14955904  0.92115991  1
  O  O592  1  0.91285420  0.48157249  0.17338683  1
  O  O593  1  0.91343654  0.48159958  0.42199533  1
  O  O594  1  0.91181278  0.48151614  0.67229394  1
  O  O595  1  0.91277648  0.48176240  0.92243137  1
  O  O596  1  0.91296723  0.81628973  0.17265407  1
  O  O597  1  0.90996893  0.81400343  0.42276050  1
  O  O598  1  0.91125266  0.81532638  0.67175994  1
  O  O599  1  0.91176568  0.81337760  0.92325590  1
  O  O600  1  0.08709522  0.18525621  0.07782412  1
  O  O601  1  0.08715234  0.18453416  0.32826645  1
  O  O602  1  0.08687710  0.18478372  0.57687522  1
  O  O603  1  0.08661569  0.18623333  0.82620493  1
  O  O604  1  0.08843556  0.51857691  0.07921235  1
  O  O605  1  0.08732640  0.51765692  0.32806108  1
  O  O606  1  0.08696284  0.51855262  0.57706423  1
  O  O607  1  0.08617918  0.51752056  0.82734397  1
  O  O608  1  0.08618635  0.85051927  0.07710563  1
  O  O609  1  0.08731428  0.85285452  0.32771076  1
  O  O610  1  0.08523791  0.85164306  0.57722719  1
  O  O611  1  0.08898329  0.85130623  0.82707795  1
  O  O612  1  0.58881086  0.18485028  0.07881521  1
  O  O613  1  0.58574916  0.18649629  0.32735502  1
  O  O614  1  0.58604005  0.18491459  0.57715689  1
  O  O615  1  0.58754218  0.18441118  0.82758839  1
  O  O616  1  0.58779760  0.51718034  0.07750161  1
  O  O617  1  0.58806440  0.51761577  0.32821979  1
  O  O618  1  0.58684489  0.51738082  0.57787462  1
  O  O619  1  0.58787821  0.51929948  0.82769018  1
  O  O620  1  0.58899365  0.85240805  0.07844487  1
  O  O621  1  0.58983405  0.85049000  0.32766361  1
  O  O622  1  0.58685475  0.85245120  0.57661134  1
  O  O623  1  0.58749504  0.85095827  0.82787052  1
  O  O624  1  0.33776884  0.18612307  0.04693147  1
  O  O625  1  0.33865189  0.18490133  0.29763737  1
  O  O626  1  0.33750989  0.18566792  0.54724305  1
  O  O627  1  0.33590873  0.18505856  0.79714305  1
  O  O628  1  0.33662500  0.51746604  0.04748128  1
  O  O629  1  0.33530901  0.51931234  0.29766728  1
  O  O630  1  0.33469889  0.51666632  0.54740612  1
  O  O631  1  0.33501162  0.51930776  0.79781687  1
  O  O632  1  0.33637437  0.85123893  0.04734081  1
  O  O633  1  0.33766745  0.85061705  0.29700216  1
  O  O634  1  0.33895879  0.85278549  0.54771587  1
  O  O635  1  0.33654474  0.85067619  0.79649520  1
  O  O636  1  0.83899891  0.18600408  0.04670228  1
  O  O637  1  0.83897297  0.18474775  0.29793279  1
  O  O638  1  0.83905270  0.18505932  0.54773259  1
  O  O639  1  0.83925071  0.18503649  0.79693630  1
  O  O640  1  0.83973780  0.51862930  0.04674544  1
  O  O641  1  0.83898579  0.51760908  0.29811293  1
  O  O642  1  0.83973225  0.51946055  0.54761210  1
  O  O643  1  0.83894344  0.51634950  0.79682015  1
  O  O644  1  0.83850635  0.85029811  0.04751393  1
  O  O645  1  0.83720307  0.85218554  0.29699400  1
  O  O646  1  0.83619010  0.85069213  0.54796455  1
  O  O647  1  0.83841396  0.85295744  0.79712572  1
  O  O648  1  0.16428045  0.14842665  0.20283996  1
  O  O649  1  0.16368681  0.14952502  0.45179395  1
  O  O650  1  0.16208648  0.14842599  0.70222534  1
  O  O651  1  0.16214591  0.14721570  0.95245772  1
  O  O652  1  0.16054565  0.48283708  0.20332891  1
  O  O653  1  0.16203781  0.48104655  0.45229157  1
  O  O654  1  0.16050122  0.48205778  0.70376983  1
  O  O655  1  0.16129908  0.48146043  0.95235776  1
  O  O656  1  0.16229370  0.81432866  0.20159408  1
  O  O657  1  0.16238637  0.81471927  0.45252540  1
  O  O658  1  0.16317492  0.81496952  0.70223691  1
  O  O659  1  0.16343392  0.81623819  0.95320051  1
  O  O660  1  0.66384856  0.14820422  0.20201125  1
  O  O661  1  0.66199377  0.14742481  0.45261765  1
  O  O662  1  0.66281931  0.14903701  0.70189741  1
  O  O663  1  0.66176556  0.14823589  0.95193275  1
  O  O664  1  0.66383787  0.48128111  0.20225833  1
  O  O665  1  0.66138370  0.48153415  0.45232635  1
  O  O666  1  0.66438103  0.48155769  0.70113279  1
  O  O667  1  0.66465400  0.48195230  0.95221591  1
  O  O668  1  0.66448252  0.81503579  0.20291214  1
  O  O669  1  0.66348903  0.81579491  0.45253799  1
  O  O670  1  0.66241533  0.81458271  0.70268386  1
  O  O671  1  0.66400311  0.81457942  0.95160692  1
