# generated using pymatgen
data_Na2MnFe(PO4)2
_symmetry_space_group_name_H-M   'P 1'
_cell_length_a   21.07954604
_cell_length_b   18.93166047
_cell_length_c   20.03946333
_cell_angle_alpha   90.00043722
_cell_angle_beta   89.99907691
_cell_angle_gamma   90.00118772
_symmetry_Int_Tables_number   1
_chemical_formula_structural   Na2MnFe(PO4)2
_chemical_formula_sum   'Na96 Mn48 Fe48 P96 O384'
_cell_volume   7997.16483017
_cell_formula_units_Z   48
loop_
 _symmetry_equiv_pos_site_id
 _symmetry_equiv_pos_as_xyz
  1  'x, y, z'
loop_
 _atom_site_type_symbol
 _atom_site_label
 _atom_site_symmetry_multiplicity
 _atom_site_fract_x
 _atom_site_fract_y
 _atom_site_fract_z
 _atom_site_occupancy
  Na  Na0  1  0.00084953  0.00104221  -0.00082433  1
  Na  Na1  1  0.00074850  0.00051045  0.25041937  1
  Na  Na2  1  -0.00150815  -0.00098977  0.49982246  1
  Na  Na3  1  -0.00150438  -0.00067762  0.75041822  1
  Na  Na4  1  0.00068534  0.33332046  -0.00040174  1
  Na  Na5  1  -0.00044896  0.33267486  0.25080269  1
  Na  Na6  1  -0.00013462  0.33307038  0.50024546  1
  Na  Na7  1  -0.00077948  0.33294169  0.74951545  1
  Na  Na8  1  0.00011246  0.66641085  -0.00072309  1
  Na  Na9  1  -0.00118644  0.66614578  0.25037948  1
  Na  Na10  1  -0.00165999  0.66663895  0.49988703  1
  Na  Na11  1  -0.00003893  0.66745507  0.74979576  1
  Na  Na12  1  0.49992667  -0.00028234  0.00022387  1
  Na  Na13  1  0.50041199  0.00023549  0.25008460  1
  Na  Na14  1  0.50012567  -0.00019349  0.50134143  1
  Na  Na15  1  0.50122033  0.00085479  0.74858656  1
  Na  Na16  1  0.49918436  0.33310331  0.00007655  1
  Na  Na17  1  0.49765790  0.33277363  0.24974302  1
  Na  Na18  1  0.49739915  0.33278284  0.49934801  1
  Na  Na19  1  0.49948404  0.33363719  0.74995204  1
  Na  Na20  1  0.49990175  0.66603788  -0.00025881  1
  Na  Na21  1  0.50064213  0.66706249  0.24983385  1
  Na  Na22  1  0.49885754  0.66609367  0.50103885  1
  Na  Na23  1  0.49973300  0.66603592  0.75003128  1
  Na  Na24  1  0.25025691  -0.00020491  0.12537592  1
  Na  Na25  1  0.25130525  0.00014625  0.37433373  1
  Na  Na26  1  0.25008141  -0.00018372  0.62465951  1
  Na  Na27  1  0.24980290  0.00017398  0.87643268  1
  Na  Na28  1  0.25007080  0.33285994  0.12455403  1
  Na  Na29  1  0.25164265  0.33359092  0.37443188  1
  Na  Na30  1  0.24948604  0.33201169  0.62465558  1
  Na  Na31  1  0.25106243  0.33350433  0.87569282  1
  Na  Na32  1  0.25232332  0.66694302  0.12443322  1
  Na  Na33  1  0.25071784  0.66658069  0.37509306  1
  Na  Na34  1  0.25084101  0.66716015  0.62583992  1
  Na  Na35  1  0.25094987  0.66676654  0.87403007  1
  Na  Na36  1  0.74757577  0.00026811  0.12564342  1
  Na  Na37  1  0.74855456  -0.00042877  0.37503545  1
  Na  Na38  1  0.75160095  0.00036808  0.62414140  1
  Na  Na39  1  0.74916797  -0.00010679  0.87546587  1
  Na  Na40  1  0.75027909  0.33292364  0.12497073  1
  Na  Na41  1  0.75318673  0.33448937  0.37483067  1
  Na  Na42  1  0.75055970  0.33330386  0.62460403  1
  Na  Na43  1  0.75106712  0.33386564  0.87618592  1
  Na  Na44  1  0.74825398  0.66601743  0.12555698  1
  Na  Na45  1  0.75115421  0.66704307  0.37437292  1
  Na  Na46  1  0.75073575  0.66687101  0.62502862  1
  Na  Na47  1  0.74870972  0.66598699  0.87509768  1
  Na  Na48  1  0.00128169  0.16745246  -0.00042693  1
  Na  Na49  1  0.00095576  0.16803800  0.25037860  1
  Na  Na50  1  0.00088321  0.16730706  0.50046556  1
  Na  Na51  1  -0.00022865  0.16730519  0.75017906  1
  Na  Na52  1  -0.00050407  0.49930994  -0.00110857  1
  Na  Na53  1  -0.00108640  0.49950797  0.25064941  1
  Na  Na54  1  -0.00285400  0.50059909  0.49974637  1
  Na  Na55  1  -0.00176326  0.50018077  0.74988418  1
  Na  Na56  1  0.00059110  0.83274453  -0.00035428  1
  Na  Na57  1  -0.00118875  0.83379916  0.25055603  1
  Na  Na58  1  -0.00123164  0.83347353  0.49989208  1
  Na  Na59  1  -0.00054730  0.83275442  0.74967690  1
  Na  Na60  1  0.50048844  0.16719039  -0.00019721  1
  Na  Na61  1  0.50044753  0.16646820  0.24992343  1
  Na  Na62  1  0.49829803  0.16725827  0.50059292  1
  Na  Na63  1  0.49787757  0.16833637  0.74960557  1
  Na  Na64  1  0.49904526  0.50037108  -0.00007755  1
  Na  Na65  1  0.49864245  0.49962331  0.25009478  1
  Na  Na66  1  0.49892942  0.49977079  0.49997393  1
  Na  Na67  1  0.49965322  0.50014674  0.74991645  1
  Na  Na68  1  0.49915163  0.83388934  0.00032165  1
  Na  Na69  1  0.49999265  0.83314209  0.24976935  1
  Na  Na70  1  0.49898650  0.83429996  0.50115939  1
  Na  Na71  1  0.50204964  0.83217392  0.74899509  1
  Na  Na72  1  0.24910894  0.16788846  0.12458484  1
  Na  Na73  1  0.24996622  0.16768829  0.37431758  1
  Na  Na74  1  0.25090954  0.16711312  0.62461265  1
  Na  Na75  1  0.24969057  0.16739886  0.87576970  1
  Na  Na76  1  0.25214601  0.49930571  0.12421544  1
  Na  Na77  1  0.25199567  0.49925596  0.37445247  1
  Na  Na78  1  0.25278092  0.49914852  0.62565582  1
  Na  Na79  1  0.25194671  0.49977979  0.87565151  1
  Na  Na80  1  0.25182352  0.83279431  0.12549668  1
  Na  Na81  1  0.25159931  0.83295028  0.37524002  1
  Na  Na82  1  0.24819949  0.83360992  0.62462389  1
  Na  Na83  1  0.25010987  0.83266947  0.87484616  1
  Na  Na84  1  0.74890661  0.16747532  0.12606126  1
  Na  Na85  1  0.75033171  0.16690495  0.37366879  1
  Na  Na86  1  0.75147206  0.16680837  0.62438632  1
  Na  Na87  1  0.75216853  0.16629195  0.87620488  1
  Na  Na88  1  0.74950873  0.49936670  0.12502813  1
  Na  Na89  1  0.75099896  0.49935739  0.37476890  1
  Na  Na90  1  0.75114770  0.49891316  0.62493141  1
  Na  Na91  1  0.74830519  0.50019742  0.87527993  1
  Na  Na92  1  0.74768043  0.83401261  0.12507461  1
  Na  Na93  1  0.75133481  0.83276615  0.37587696  1
  Na  Na94  1  0.75011900  0.83360019  0.62448665  1
  Na  Na95  1  0.74928116  0.83281336  0.87516706  1
  Mn  Mn96  1  0.35772206  0.75053823  0.75193401  1
  Mn  Mn97  1  0.64251571  0.24997903  0.74797229  1
  Mn  Mn98  1  0.14292000  0.58324433  0.99827436  1
  Mn  Mn99  1  0.10800296  0.41724713  0.87262297  1
  Mn  Mn100  1  0.60748137  0.74998185  0.87240077  1
  Mn  Mn101  1  0.64208494  0.25015632  0.24813819  1
  Mn  Mn102  1  0.10757488  0.74984600  0.37334963  1
  Mn  Mn103  1  0.89166335  0.58328406  0.37752864  1
  Mn  Mn104  1  0.10802380  0.41700830  0.37318436  1
  Mn  Mn105  1  0.89198218  0.91716991  0.12783935  1
  Mn  Mn106  1  0.89252243  0.24972173  0.62771583  1
  Mn  Mn107  1  0.35774987  0.08309042  0.75242419  1
  Mn  Mn108  1  0.60720801  0.41580911  0.37276022  1
  Mn  Mn109  1  0.64282868  0.91671692  0.49758426  1
  Mn  Mn110  1  0.35833281  0.08397132  0.25210421  1
  Mn  Mn111  1  0.64097132  0.91672838  0.99757889  1
  Mn  Mn112  1  0.64275791  0.58303711  0.49809491  1
  Mn  Mn113  1  0.35782580  0.08317912  0.00275501  1
  Mn  Mn114  1  0.39181632  0.58375401  0.37790802  1
  Mn  Mn115  1  0.14268994  0.91615793  0.99847319  1
  Mn  Mn116  1  0.64201705  0.25030562  0.49749535  1
  Mn  Mn117  1  0.14230596  0.58266948  0.24693717  1
  Mn  Mn118  1  0.60823850  0.08435470  0.62274624  1
  Mn  Mn119  1  0.14132067  0.91720546  0.74737522  1
  Mn  Mn120  1  0.89130772  0.58307620  0.87713766  1
  Mn  Mn121  1  0.10768453  0.08240844  0.62239215  1
  Mn  Mn122  1  0.14263676  0.58295023  0.49856759  1
  Mn  Mn123  1  0.60787690  0.08387908  0.87218088  1
  Mn  Mn124  1  0.85745437  0.41675122  0.00295103  1
  Mn  Mn125  1  0.60706847  0.41644269  0.87297074  1
  Mn  Mn126  1  0.39223309  0.91644248  0.62758251  1
  Mn  Mn127  1  0.85811950  0.08340141  0.50185139  1
  Mn  Mn128  1  0.64195876  0.58308870  0.24767243  1
  Mn  Mn129  1  0.60753817  0.75061447  0.37364816  1
  Mn  Mn130  1  0.14245959  0.91677064  0.24764691  1
  Mn  Mn131  1  0.35831520  0.41631815  0.75227040  1
  Mn  Mn132  1  0.35902464  0.74965683  0.25252411  1
  Mn  Mn133  1  0.85703420  0.75020576  0.25124611  1
  Mn  Mn134  1  0.85734897  0.74977148  0.00256088  1
  Mn  Mn135  1  0.10762122  0.08306975  0.87233864  1
  Mn  Mn136  1  0.85762985  0.08337671  0.25201151  1
  Mn  Mn137  1  0.10847313  0.08322414  0.37312875  1
  Mn  Mn138  1  0.89150713  0.91683228  0.87744171  1
  Mn  Mn139  1  0.85756183  0.08327721  0.00335650  1
  Mn  Mn140  1  0.10739847  0.41787225  0.62256405  1
  Mn  Mn141  1  0.10799867  0.74943238  0.12241481  1
  Mn  Mn142  1  0.14239347  0.58255670  0.74732676  1
  Mn  Mn143  1  0.39248975  0.91660146  0.87686285  1
  Fe  Fe144  1  0.14387566  0.24984941  0.49841697  1
  Fe  Fe145  1  0.60789951  0.74911197  0.62311726  1
  Fe  Fe146  1  0.39199839  0.24888094  0.37668673  1
  Fe  Fe147  1  0.14295271  0.25010803  0.74875788  1
  Fe  Fe148  1  0.85775136  0.74953900  0.50257237  1
  Fe  Fe149  1  0.64352226  0.91646715  0.74820746  1
  Fe  Fe150  1  0.60727200  0.41671544  0.62315820  1
  Fe  Fe151  1  0.10762694  0.74972088  0.87319635  1
  Fe  Fe152  1  0.89286304  0.25007259  0.87701404  1
  Fe  Fe153  1  0.35722715  0.75007010  0.50262455  1
  Fe  Fe154  1  0.85784011  0.41644576  0.25071415  1
  Fe  Fe155  1  0.64176247  0.58260943  0.99875882  1
  Fe  Fe156  1  0.35763940  0.41673355  0.50221277  1
  Fe  Fe157  1  0.39284157  0.91721541  0.37712503  1
  Fe  Fe158  1  0.60655263  0.08349875  0.37405714  1
  Fe  Fe159  1  0.10764790  0.08402464  0.12367231  1
  Fe  Fe160  1  0.60670845  0.08398178  0.12339881  1
  Fe  Fe161  1  0.39213229  0.25030990  0.87742973  1
  Fe  Fe162  1  0.89345384  0.24936654  0.37669453  1
  Fe  Fe163  1  0.85749352  0.08347835  0.75185920  1
  Fe  Fe164  1  0.35739166  0.41643705  0.25086474  1
  Fe  Fe165  1  0.64244382  0.25058484  0.99856797  1
  Fe  Fe166  1  0.39301728  0.58325028  0.87700057  1
  Fe  Fe167  1  0.85758901  0.41688642  0.50223175  1
  Fe  Fe168  1  0.89267335  0.91619403  0.62713185  1
  Fe  Fe169  1  0.14308339  0.25056937  0.99831894  1
  Fe  Fe170  1  0.89203028  0.58261370  0.12615556  1
  Fe  Fe171  1  0.35796591  0.74972259  0.00145863  1
  Fe  Fe172  1  0.64245054  0.58337525  0.74775844  1
  Fe  Fe173  1  0.10738656  0.41669446  0.12371583  1
  Fe  Fe174  1  0.85661628  0.74978422  0.75163725  1
  Fe  Fe175  1  0.39349538  0.58320191  0.12638989  1
  Fe  Fe176  1  0.89205608  0.91730952  0.37656336  1
  Fe  Fe177  1  0.14276682  0.91679893  0.49817085  1
  Fe  Fe178  1  0.89353064  0.25045873  0.12649959  1
  Fe  Fe179  1  0.14300339  0.25061815  0.24776851  1
  Fe  Fe180  1  0.10618604  0.74987197  0.62292904  1
  Fe  Fe181  1  0.39224102  0.25071698  0.62678705  1
  Fe  Fe182  1  0.35764550  0.41686900  0.00247465  1
  Fe  Fe183  1  0.89197641  0.58394875  0.62736273  1
  Fe  Fe184  1  0.64164643  0.91662442  0.24908915  1
  Fe  Fe185  1  0.60677079  0.41635877  0.12380884  1
  Fe  Fe186  1  0.39336209  0.58312205  0.62669867  1
  Fe  Fe187  1  0.39344936  0.91680509  0.12692582  1
  Fe  Fe188  1  0.85651048  0.41650358  0.75155711  1
  Fe  Fe189  1  0.60655720  0.74961516  0.12302715  1
  Fe  Fe190  1  0.39289759  0.25001576  0.12636752  1
  Fe  Fe191  1  0.35754018  0.08308451  0.50120451  1
  P  P192  1  0.05466539  0.25081794  0.11076781  1
  P  P193  1  0.05514611  0.25028399  0.36086310  1
  P  P194  1  0.05555142  0.25022244  0.61049191  1
  P  P195  1  0.05419594  0.25049496  0.86030901  1
  P  P196  1  0.05172676  0.58177491  0.10981662  1
  P  P197  1  0.05328851  0.58323127  0.36005562  1
  P  P198  1  0.05141109  0.58419303  0.61000318  1
  P  P199  1  0.05333662  0.58378443  0.85973431  1
  P  P200  1  0.05308283  0.91760572  0.10994368  1
  P  P201  1  0.05339928  0.91659750  0.36126444  1
  P  P202  1  0.05246893  0.91564251  0.60926593  1
  P  P203  1  0.05316626  0.91571044  0.86001300  1
  P  P204  1  0.55272244  0.25054467  0.10997982  1
  P  P205  1  0.55147624  0.24929879  0.36022994  1
  P  P206  1  0.55218469  0.25138632  0.60998683  1
  P  P207  1  0.55264901  0.25046903  0.86088853  1
  P  P208  1  0.55281179  0.58267592  0.10989486  1
  P  P209  1  0.55301132  0.58314121  0.36028951  1
  P  P210  1  0.55406414  0.58285612  0.61128516  1
  P  P211  1  0.55379341  0.58294988  0.86035152  1
  P  P212  1  0.55340222  0.91677411  0.11164288  1
  P  P213  1  0.55248676  0.91743706  0.36025054  1
  P  P214  1  0.55554602  0.91593107  0.61132135  1
  P  P215  1  0.55390088  0.91688164  0.85844889  1
  P  P216  1  0.44767317  0.08381194  0.13975174  1
  P  P217  1  0.44700601  0.08310504  0.39054808  1
  P  P218  1  0.44525310  0.08429258  0.63873537  1
  P  P219  1  0.44669314  0.08398843  0.89007418  1
  P  P220  1  0.44585962  0.41663428  0.13897063  1
  P  P221  1  0.44425919  0.41557402  0.38924906  1
  P  P222  1  0.44642419  0.41673771  0.63872013  1
  P  P223  1  0.44553017  0.41679213  0.89065672  1
  P  P224  1  0.44670036  0.74958567  0.13840500  1
  P  P225  1  0.44619724  0.75110245  0.39137406  1
  P  P226  1  0.44684210  0.74919344  0.63902377  1
  P  P227  1  0.44625484  0.74936815  0.89025872  1
  P  P228  1  0.94824348  0.08486888  0.14006694  1
  P  P229  1  0.94694592  0.08388593  0.38979847  1
  P  P230  1  0.94616271  0.08239385  0.64062732  1
  P  P231  1  0.94497877  0.08446867  0.88907796  1
  P  P232  1  0.94737558  0.41619011  0.14020632  1
  P  P233  1  0.94481238  0.41539139  0.38949218  1
  P  P234  1  0.94463886  0.41748219  0.63963337  1
  P  P235  1  0.94490485  0.41574730  0.88869605  1
  P  P236  1  0.94681627  0.74900175  0.13989842  1
  P  P237  1  0.94518464  0.75091585  0.39048215  1
  P  P238  1  0.94525172  0.75007201  0.63943324  1
  P  P239  1  0.94610529  0.74976623  0.88889922  1
  P  P240  1  0.19644024  0.08441893  0.23441026  1
  P  P241  1  0.19819675  0.08322159  0.48505699  1
  P  P242  1  0.19669592  0.08449964  0.73479228  1
  P  P243  1  0.19519265  0.08430562  0.98659970  1
  P  P244  1  0.19742879  0.41593841  0.23420759  1
  P  P245  1  0.19846311  0.41630167  0.48524585  1
  P  P246  1  0.19699412  0.41570199  0.73491920  1
  P  P247  1  0.19683268  0.41624632  0.98647109  1
  P  P248  1  0.19734589  0.74977006  0.23493889  1
  P  P249  1  0.19663864  0.75030242  0.48642374  1
  P  P250  1  0.19448016  0.74981046  0.73490772  1
  P  P251  1  0.19790130  0.74948409  0.98440195  1
  P  P252  1  0.69413364  0.08277384  0.23603683  1
  P  P253  1  0.69623639  0.08389063  0.48383634  1
  P  P254  1  0.69848188  0.08320650  0.73496799  1
  P  P255  1  0.69471634  0.08481787  0.98648808  1
  P  P256  1  0.69715432  0.41608372  0.23446581  1
  P  P257  1  0.69690580  0.41664595  0.48573412  1
  P  P258  1  0.69668286  0.41694556  0.73466325  1
  P  P259  1  0.69459266  0.41638994  0.98674979  1
  P  P260  1  0.69504852  0.75100385  0.23474529  1
  P  P261  1  0.69738014  0.74946822  0.48614094  1
  P  P262  1  0.69687883  0.74970000  0.73447989  1
  P  P263  1  0.69460075  0.74872112  0.98618982  1
  P  P264  1  0.30437189  0.25068877  0.01472999  1
  P  P265  1  0.30438781  0.25079650  0.26371900  1
  P  P266  1  0.30464885  0.24971662  0.51394679  1
  P  P267  1  0.30400934  0.25002059  0.76490770  1
  P  P268  1  0.30581855  0.58352690  0.01412880  1
  P  P269  1  0.30496153  0.58231155  0.26348312  1
  P  P270  1  0.30432205  0.58343726  0.51605381  1
  P  P271  1  0.30554811  0.58332527  0.76464781  1
  P  P272  1  0.30457253  0.91562765  0.01584129  1
  P  P273  1  0.30580929  0.91690141  0.26474418  1
  P  P274  1  0.30369046  0.91676798  0.51383908  1
  P  P275  1  0.30250448  0.91668017  0.76537033  1
  P  P276  1  0.80379930  0.25004152  0.01528427  1
  P  P277  1  0.80560073  0.25082769  0.26406570  1
  P  P278  1  0.80479609  0.25055605  0.51365504  1
  P  P279  1  0.80398963  0.25030346  0.76586035  1
  P  P280  1  0.80187585  0.58313587  0.01576605  1
  P  P281  1  0.80441757  0.58222297  0.26347834  1
  P  P282  1  0.80428390  0.58314270  0.51572685  1
  P  P283  1  0.80281073  0.58328402  0.76375307  1
  P  P284  1  0.80232306  0.91670918  0.01566121  1
  P  P285  1  0.80194201  0.91697016  0.26557915  1
  P  P286  1  0.80562793  0.91614958  0.51446536  1
  P  P287  1  0.80345278  0.91625962  0.76372912  1
  O  O288  1  0.05899212  0.25088002  0.18754025  1
  O  O289  1  0.06048170  0.25037617  0.43757332  1
  O  O290  1  0.05952928  0.25023959  0.68723303  1
  O  O291  1  0.05917411  0.25077742  0.93702821  1
  O  O292  1  0.05540366  0.58233407  0.18654203  1
  O  O293  1  0.05686581  0.58305204  0.43682508  1
  O  O294  1  0.05563692  0.58321267  0.68665471  1
  O  O295  1  0.05704489  0.58288314  0.93648940  1
  O  O296  1  0.05601233  0.91695783  0.18679072  1
  O  O297  1  0.05880295  0.91664639  0.43793386  1
  O  O298  1  0.05594499  0.91658344  0.68600163  1
  O  O299  1  0.05679258  0.91643832  0.93675037  1
  O  O300  1  0.55611442  0.25073614  0.18670508  1
  O  O301  1  0.55534675  0.25027406  0.43688274  1
  O  O302  1  0.55623687  0.25079968  0.68670763  1
  O  O303  1  0.55795333  0.25037964  0.93746976  1
  O  O304  1  0.55606885  0.58261329  0.18665584  1
  O  O305  1  0.55634461  0.58283457  0.43708389  1
  O  O306  1  0.55854081  0.58304309  0.68804442  1
  O  O307  1  0.55839088  0.58286817  0.93703501  1
  O  O308  1  0.55743796  0.91657915  0.18832304  1
  O  O309  1  0.55632501  0.91669632  0.43700051  1
  O  O310  1  0.56022213  0.91656154  0.68805498  1
  O  O311  1  0.55632889  0.91681891  0.93534266  1
  O  O312  1  0.44416640  0.08375330  0.06308143  1
  O  O313  1  0.44401952  0.08336831  0.31380237  1
  O  O314  1  0.44094380  0.08319385  0.56199400  1
  O  O315  1  0.44378670  0.08372509  0.81325559  1
  O  O316  1  0.44168120  0.41645711  0.06224875  1
  O  O317  1  0.44055479  0.41634939  0.31243779  1
  O  O318  1  0.44188837  0.41665589  0.56201046  1
  O  O319  1  0.44336720  0.41648212  0.81380947  1
  O  O320  1  0.44247303  0.74978428  0.06175538  1
  O  O321  1  0.44389956  0.75001824  0.31448377  1
  O  O322  1  0.44160413  0.75022199  0.56239262  1
  O  O323  1  0.44355278  0.75007307  0.81343892  1
  O  O324  1  0.94452472  0.08429653  0.06333365  1
  O  O325  1  0.94416309  0.08397185  0.31303741  1
  O  O326  1  0.94351788  0.08357823  0.56384705  1
  O  O327  1  0.94061237  0.08356298  0.81230643  1
  O  O328  1  0.94390078  0.41612046  0.06342412  1
  O  O329  1  0.94115504  0.41615888  0.31272394  1
  O  O330  1  0.94101659  0.41660844  0.56281304  1
  O  O331  1  0.94039656  0.41653211  0.81197825  1
  O  O332  1  0.94396131  0.74954170  0.06307357  1
  O  O333  1  0.94209974  0.75029084  0.31369353  1
  O  O334  1  0.94114720  0.74977860  0.56269521  1
  O  O335  1  0.94068242  0.74973284  0.81222275  1
  O  O336  1  0.19113167  0.08377294  0.06335060  1
  O  O337  1  0.19373809  0.08370252  0.31123119  1
  O  O338  1  0.19450187  0.08309090  0.56173747  1
  O  O339  1  0.19372092  0.08372076  0.81163359  1
  O  O340  1  0.19173316  0.41692591  0.06307435  1
  O  O341  1  0.19375524  0.41669055  0.31091881  1
  O  O342  1  0.19421827  0.41699063  0.56190779  1
  O  O343  1  0.19405554  0.41682754  0.81172968  1
  O  O344  1  0.19394905  0.74928244  0.06117763  1
  O  O345  1  0.19375669  0.74973481  0.31173871  1
  O  O346  1  0.19113435  0.74975667  0.56306373  1
  O  O347  1  0.19038209  0.74966370  0.81171995  1
  O  O348  1  0.69011608  0.08448132  0.06329054  1
  O  O349  1  0.68986554  0.08372480  0.31278505  1
  O  O350  1  0.69329623  0.08414851  0.56067474  1
  O  O351  1  0.69462651  0.08391522  0.81171416  1
  O  O352  1  0.69033495  0.41614994  0.06346466  1
  O  O353  1  0.69334497  0.41600369  0.31121851  1
  O  O354  1  0.69149781  0.41620786  0.56236984  1
  O  O355  1  0.69283556  0.41639487  0.81141576  1
  O  O356  1  0.69014330  0.74950163  0.06296256  1
  O  O357  1  0.69273019  0.75017519  0.31160671  1
  O  O358  1  0.69214057  0.74946069  0.56277874  1
  O  O359  1  0.69333714  0.74948307  0.81124906  1
  O  O360  1  0.30934194  0.24974533  0.18703491  1
  O  O361  1  0.30870639  0.24955366  0.43715041  1
  O  O362  1  0.30870724  0.25033925  0.68815296  1
  O  O363  1  0.30881854  0.24996023  0.93799346  1
  O  O364  1  0.30948021  0.58319159  0.18674064  1
  O  O365  1  0.30652958  0.58361829  0.43917380  1
  O  O366  1  0.31011438  0.58332542  0.68788291  1
  O  O367  1  0.30920061  0.58353404  0.93730446  1
  O  O368  1  0.31061685  0.91690914  0.18797186  1
  O  O369  1  0.30836734  0.91677692  0.43714313  1
  O  O370  1  0.30602626  0.91644977  0.68855729  1
  O  O371  1  0.30715050  0.91663844  0.93903704  1
  O  O372  1  0.80974025  0.24988478  0.18730467  1
  O  O373  1  0.80886862  0.24970571  0.43693485  1
  O  O374  1  0.80668327  0.25011522  0.68892373  1
  O  O375  1  0.80871865  0.25014359  0.93864120  1
  O  O376  1  0.80841367  0.58262413  0.18672226  1
  O  O377  1  0.80648275  0.58337570  0.43885447  1
  O  O378  1  0.80757853  0.58345659  0.68711408  1
  O  O379  1  0.80571337  0.58300096  0.93899460  1
  O  O380  1  0.80571002  0.91744468  0.18881841  1
  O  O381  1  0.80935085  0.91697509  0.43765222  1
  O  O382  1  0.80790822  0.91635729  0.68702595  1
  O  O383  1  0.80588155  0.91676211  0.93883613  1
  O  O384  1  0.23397722  0.25039847  0.03830861  1
  O  O385  1  0.23393959  0.25051393  0.28717401  1
  O  O386  1  0.23425340  0.24977445  0.53787908  1
  O  O387  1  0.23374743  0.25039366  0.78877958  1
  O  O388  1  0.23588838  0.58320707  0.03890136  1
  O  O389  1  0.23503304  0.58260757  0.28791801  1
  O  O390  1  0.23477380  0.58321109  0.54183632  1
  O  O391  1  0.23539204  0.58309426  0.78835578  1
  O  O392  1  0.23488948  0.91619738  0.04116624  1
  O  O393  1  0.23559447  0.91686008  0.28827600  1
  O  O394  1  0.23335437  0.91661761  0.53788121  1
  O  O395  1  0.23286841  0.91655889  0.79038665  1
  O  O396  1  0.73337384  0.25051473  0.03878598  1
  O  O397  1  0.73541989  0.25046112  0.28811262  1
  O  O398  1  0.73486743  0.25009416  0.53825947  1
  O  O399  1  0.73429469  0.25028620  0.79125628  1
  O  O400  1  0.73174976  0.58252726  0.03999147  1
  O  O401  1  0.73449523  0.58288585  0.28815768  1
  O  O402  1  0.73471719  0.58281349  0.54131123  1
  O  O403  1  0.73243844  0.58326808  0.78770127  1
  O  O404  1  0.73247601  0.91716279  0.04014256  1
  O  O405  1  0.73187748  0.91642215  0.29012103  1
  O  O406  1  0.73553133  0.91714871  0.53850807  1
  O  O407  1  0.73320616  0.91600702  0.78813728  1
  O  O408  1  0.26618300  0.08414338  0.20931298  1
  O  O409  1  0.26817215  0.08365872  0.46004965  1
  O  O410  1  0.26623900  0.08381949  0.70935438  1
  O  O411  1  0.26522149  0.08394326  0.96234017  1
  O  O412  1  0.26755435  0.41592369  0.20975894  1
  O  O413  1  0.26863599  0.41647563  0.46102119  1
  O  O414  1  0.26667932  0.41565252  0.70983075  1
  O  O415  1  0.26727025  0.41661964  0.96297495  1
  O  O416  1  0.26722370  0.74982115  0.21039134  1
  O  O417  1  0.26714610  0.74988091  0.46306378  1
  O  O418  1  0.26469561  0.75023887  0.71117960  1
  O  O419  1  0.26808221  0.74957655  0.96025944  1
  O  O420  1  0.76428801  0.08371772  0.21194194  1
  O  O421  1  0.76596592  0.08339280  0.45895918  1
  O  O422  1  0.76853415  0.08373328  0.71032358  1
  O  O423  1  0.76479229  0.08361538  0.96259955  1
  O  O424  1  0.76727221  0.41601714  0.21011313  1
  O  O425  1  0.76733090  0.41714647  0.46246641  1
  O  O426  1  0.76692774  0.41624338  0.71059130  1
  O  O427  1  0.76461237  0.41680196  0.96250033  1
  O  O428  1  0.76465819  0.75033144  0.20923537  1
  O  O429  1  0.76773177  0.74959589  0.46266472  1
  O  O430  1  0.76707292  0.74979486  0.71012312  1
  O  O431  1  0.76452902  0.74919311  0.96172186  1
  O  O432  1  0.01821486  0.08470419  0.16487988  1
  O  O433  1  0.01646257  0.08353578  0.41554157  1
  O  O434  1  0.01581703  0.08299105  0.66596146  1
  O  O435  1  0.01505938  0.08428821  0.91299538  1
  O  O436  1  0.01735982  0.41597798  0.16514034  1
  O  O437  1  0.01483046  0.41642125  0.41404607  1
  O  O438  1  0.01464558  0.41679057  0.66400838  1
  O  O439  1  0.01496604  0.41628970  0.91274520  1
  O  O440  1  0.01633513  0.74957840  0.16563396  1
  O  O441  1  0.01496931  0.75002191  0.41548786  1
  O  O442  1  0.01559826  0.75023246  0.66331325  1
  O  O443  1  0.01653221  0.74960693  0.91232057  1
  O  O444  1  0.51768354  0.08396589  0.16456094  1
  O  O445  1  0.51693361  0.08336737  0.41575200  1
  O  O446  1  0.51530496  0.08449057  0.66293530  1
  O  O447  1  0.51628370  0.08351491  0.91541423  1
  O  O448  1  0.51617710  0.41640607  0.16316161  1
  O  O449  1  0.51427960  0.41621823  0.41369552  1
  O  O450  1  0.51650745  0.41688443  0.66324934  1
  O  O451  1  0.51513025  0.41665497  0.91607547  1
  O  O452  1  0.51692500  0.74952345  0.16281690  1
  O  O453  1  0.51579782  0.75046035  0.41692090  1
  O  O454  1  0.51723339  0.74905221  0.66259589  1
  O  O455  1  0.51593187  0.74999424  0.91544106  1
  O  O456  1  0.48248644  0.25042845  0.08554636  1
  O  O457  1  0.48140118  0.24920807  0.33566771  1
  O  O458  1  0.48207709  0.25065642  0.58565247  1
  O  O459  1  0.48221166  0.25098027  0.83751292  1
  O  O460  1  0.48273247  0.58283281  0.08520535  1
  O  O461  1  0.48328341  0.58339268  0.33536123  1
  O  O462  1  0.48380292  0.58291355  0.58723862  1
  O  O463  1  0.48336634  0.58290922  0.83689801  1
  O  O464  1  0.48318527  0.91686034  0.08713291  1
  O  O465  1  0.48240978  0.91692229  0.33577469  1
  O  O466  1  0.48532907  0.91653109  0.58768206  1
  O  O467  1  0.48434448  0.91660587  0.83296945  1
  O  O468  1  0.98427380  0.25078466  0.08675790  1
  O  O469  1  0.98460260  0.25014664  0.33786183  1
  O  O470  1  0.98527480  0.25021477  0.58676317  1
  O  O471  1  0.98377648  0.25024303  0.83688983  1
  O  O472  1  0.98177402  0.58218310  0.08475533  1
  O  O473  1  0.98339035  0.58310353  0.33566487  1
  O  O474  1  0.98125868  0.58406089  0.58585737  1
  O  O475  1  0.98348690  0.58348510  0.83507210  1
  O  O476  1  0.98351361  0.91716928  0.08428827  1
  O  O477  1  0.98294939  0.91706551  0.33785438  1
  O  O478  1  0.98228695  0.91595589  0.58512726  1
  O  O479  1  0.98338988  0.91600482  0.83516518  1
  O  O480  1  0.08804898  0.31599134  0.07744838  1
  O  O481  1  0.08819733  0.31530827  0.32710827  1
  O  O482  1  0.08911131  0.31516981  0.57711256  1
  O  O483  1  0.08754180  0.31542526  0.82671967  1
  O  O484  1  0.08602853  0.64671960  0.07716087  1
  O  O485  1  0.08705641  0.64831585  0.32742334  1
  O  O486  1  0.08514271  0.64936812  0.57742470  1
  O  O487  1  0.08719478  0.64897222  0.82748532  1
  O  O488  1  0.08710424  0.98295382  0.07804399  1
  O  O489  1  0.08697467  0.98151510  0.32796534  1
  O  O490  1  0.08658255  0.98051821  0.57615255  1
  O  O491  1  0.08697564  0.98091516  0.82721352  1
  O  O492  1  0.58645005  0.31558431  0.07702863  1
  O  O493  1  0.58516792  0.31424687  0.32697146  1
  O  O494  1  0.58555692  0.31667720  0.57716769  1
  O  O495  1  0.58608040  0.31538307  0.82743785  1
  O  O496  1  0.58682922  0.64762096  0.07714093  1
  O  O497  1  0.58710919  0.64833949  0.32821172  1
  O  O498  1  0.58750719  0.64792112  0.57804738  1
  O  O499  1  0.58719576  0.64791234  0.82687618  1
  O  O500  1  0.58672556  0.98200242  0.07862900  1
  O  O501  1  0.58622499  0.98263801  0.32774754  1
  O  O502  1  0.58903224  0.98097360  0.57806342  1
  O  O503  1  0.58841760  0.98186918  0.82629132  1
  O  O504  1  0.41389829  0.01882906  0.17255600  1
  O  O505  1  0.41306858  0.01794215  0.42314240  1
  O  O506  1  0.41195470  0.01921368  0.67219069  1
  O  O507  1  0.41238399  0.01890178  0.92235319  1
  O  O508  1  0.41214061  0.35171271  0.17220655  1
  O  O509  1  0.41082130  0.35017188  0.42177267  1
  O  O510  1  0.41291194  0.35153691  0.67175589  1
  O  O511  1  0.41090202  0.35200379  0.92308238  1
  O  O512  1  0.41350318  0.68430090  0.17155630  1
  O  O513  1  0.41134294  0.68637719  0.42379493  1
  O  O514  1  0.41348325  0.68407408  0.67200346  1
  O  O515  1  0.41239985  0.68402471  0.92242068  1
  O  O516  1  0.91413542  0.01987906  0.17287729  1
  O  O517  1  0.91236189  0.01890136  0.42180536  1
  O  O518  1  0.91220256  0.01689632  0.67244360  1
  O  O519  1  0.91144705  0.01948931  0.92248244  1
  O  O520  1  0.91324538  0.35118728  0.17287810  1
  O  O521  1  0.91160544  0.35000254  0.42231339  1
  O  O522  1  0.91055274  0.35265559  0.67281960  1
  O  O523  1  0.91176104  0.35047292  0.92182630  1
  O  O524  1  0.91275317  0.68364136  0.17174326  1
  O  O525  1  0.91060422  0.68609484  0.42317356  1
  O  O526  1  0.91169556  0.68513571  0.67294026  1
  O  O527  1  0.91275593  0.68470918  0.92227049  1
  O  O528  1  0.16196276  0.01954159  0.20192040  1
  O  O529  1  0.16447147  0.01801963  0.45232989  1
  O  O530  1  0.16224601  0.01955130  0.70221859  1
  O  O531  1  0.16155393  0.01931118  0.95337986  1
  O  O532  1  0.16341264  0.35085428  0.20169416  1
  O  O533  1  0.16492402  0.35116881  0.45242434  1
  O  O534  1  0.16278675  0.35060676  0.70301410  1
  O  O535  1  0.16375860  0.35096767  0.95324824  1
  O  O536  1  0.16356278  0.68470258  0.20212383  1
  O  O537  1  0.16349314  0.68519367  0.45284829  1
  O  O538  1  0.16116330  0.68467684  0.70158427  1
  O  O539  1  0.16402083  0.68449800  0.95149272  1
  O  O540  1  0.66100093  0.01726048  0.20339213  1
  O  O541  1  0.66161956  0.01894398  0.45171052  1
  O  O542  1  0.66487205  0.01807209  0.70237553  1
  O  O543  1  0.66070483  0.02003120  0.95331953  1
  O  O544  1  0.66307291  0.35114620  0.20168693  1
  O  O545  1  0.66400218  0.35159365  0.45182434  1
  O  O546  1  0.66260236  0.35212695  0.70151227  1
  O  O547  1  0.66141074  0.35111712  0.95342932  1
  O  O548  1  0.66028590  0.68623472  0.20221142  1
  O  O549  1  0.66421457  0.68447472  0.45267392  1
  O  O550  1  0.66297994  0.68461319  0.70161669  1
  O  O551  1  0.66134042  0.68326233  0.95353624  1
  O  O552  1  0.33775603  0.31580663  0.04782010  1
  O  O553  1  0.33766428  0.31591083  0.29671962  1
  O  O554  1  0.33799524  0.31486906  0.54730952  1
  O  O555  1  0.33781713  0.31483736  0.79825021  1
  O  O556  1  0.33955693  0.64865316  0.04702716  1
  O  O557  1  0.33868886  0.64709846  0.29707444  1
  O  O558  1  0.33878864  0.64842474  0.54834154  1
  O  O559  1  0.33907509  0.64834858  0.79779106  1
  O  O560  1  0.33914095  0.98044988  0.04860488  1
  O  O561  1  0.33920573  0.98206668  0.29791734  1
  O  O562  1  0.33693897  0.98200553  0.54695590  1
  O  O563  1  0.33646695  0.98178424  0.79780088  1
  O  O564  1  0.83760655  0.31489231  0.04863298  1
  O  O565  1  0.83909886  0.31607378  0.29671033  1
  O  O566  1  0.83825511  0.31578712  0.54652861  1
  O  O567  1  0.83809457  0.31557269  0.79802051  1
  O  O568  1  0.83560189  0.64816448  0.04856289  1
  O  O569  1  0.83820384  0.64723037  0.29648257  1
  O  O570  1  0.83848527  0.64827011  0.54812572  1
  O  O571  1  0.83603247  0.64843619  0.79711485  1
  O  O572  1  0.83642535  0.98164899  0.04836143  1
  O  O573  1  0.83581608  0.98206321  0.29840788  1
  O  O574  1  0.83981993  0.98080144  0.54771951  1
  O  O575  1  0.83665455  0.98148064  0.79694197  1
  O  O576  1  0.41388267  0.14898827  0.17238272  1
  O  O577  1  0.41250284  0.14800977  0.42293945  1
  O  O578  1  0.41162911  0.14962292  0.67116144  1
  O  O579  1  0.41261226  0.14910319  0.92243958  1
  O  O580  1  0.41245252  0.48182594  0.17199638  1
  O  O581  1  0.41023559  0.48029487  0.42269358  1
  O  O582  1  0.41284966  0.48175901  0.67183076  1
  O  O583  1  0.41138748  0.48207337  0.92265885  1
  O  O584  1  0.41336865  0.81457855  0.17182082  1
  O  O585  1  0.41213690  0.81649445  0.42314565  1
  O  O586  1  0.41372981  0.81424550  0.67276900  1
  O  O587  1  0.41165143  0.81409723  0.92288663  1
  O  O588  1  0.91437498  0.14998836  0.17248589  1
  O  O589  1  0.91303107  0.14915311  0.42220978  1
  O  O590  1  0.91152051  0.14714312  0.67336944  1
  O  O591  1  0.91172894  0.14980250  0.92196103  1
  O  O592  1  0.91312159  0.48120328  0.17268876  1
  O  O593  1  0.91035072  0.48005013  0.42258848  1
  O  O594  1  0.91108004  0.48277966  0.67228966  1
  O  O595  1  0.91114204  0.48062941  0.92208235  1
  O  O596  1  0.91226332  0.81398913  0.17220975  1
  O  O597  1  0.91145909  0.81622360  0.42274617  1
  O  O598  1  0.91175248  0.81527123  0.67248741  1
  O  O599  1  0.91287067  0.81476452  0.92243393  1
  O  O600  1  0.08820819  0.18583672  0.07747795  1
  O  O601  1  0.08847011  0.18536738  0.32729194  1
  O  O602  1  0.08905911  0.18516483  0.57722556  1
  O  O603  1  0.08777413  0.18554101  0.82696881  1
  O  O604  1  0.08559147  0.51652223  0.07740811  1
  O  O605  1  0.08715987  0.51813837  0.32737801  1
  O  O606  1  0.08511602  0.51918452  0.57675714  1
  O  O607  1  0.08727982  0.51873853  0.82680964  1
  O  O608  1  0.08751265  0.85252599  0.07764217  1
  O  O609  1  0.08631877  0.85145221  0.32773669  1
  O  O610  1  0.08633682  0.85047690  0.57678039  1
  O  O611  1  0.08699989  0.85056376  0.82766564  1
  O  O612  1  0.58668799  0.18554034  0.07729573  1
  O  O613  1  0.58546376  0.18421179  0.32794462  1
  O  O614  1  0.58627035  0.18648214  0.57715190  1
  O  O615  1  0.58558209  0.18541986  0.82705646  1
  O  O616  1  0.58652912  0.51751707  0.07716318  1
  O  O617  1  0.58685652  0.51808022  0.32756116  1
  O  O618  1  0.58723578  0.51757688  0.57814835  1
  O  O619  1  0.58725040  0.51801492  0.82692188  1
  O  O620  1  0.58663966  0.85169784  0.07822098  1
  O  O621  1  0.58666190  0.85258092  0.32728345  1
  O  O622  1  0.58853691  0.85053398  0.57825208  1
  O  O623  1  0.58862875  0.85192948  0.82645798  1
  O  O624  1  0.33792215  0.18584929  0.04841718  1
  O  O625  1  0.33776732  0.18593458  0.29769137  1
  O  O626  1  0.33801995  0.18469643  0.54720077  1
  O  O627  1  0.33733042  0.18496011  0.79822846  1
  O  O628  1  0.33982476  0.51848909  0.04698838  1
  O  O629  1  0.33832972  0.51686346  0.29597819  1
  O  O630  1  0.33894600  0.51827934  0.54790979  1
  O  O631  1  0.33924402  0.51839100  0.79783241  1
  O  O632  1  0.33857938  0.85022178  0.04771178  1
  O  O633  1  0.33946697  0.85208122  0.29813679  1
  O  O634  1  0.33713307  0.85176897  0.54737582  1
  O  O635  1  0.33678823  0.85167771  0.79764610  1
  O  O636  1  0.83704798  0.18506531  0.04890943  1
  O  O637  1  0.83939139  0.18598304  0.29756677  1
  O  O638  1  0.83865254  0.18570828  0.54699546  1
  O  O639  1  0.83841342  0.18533487  0.79813553  1
  O  O640  1  0.83626389  0.51834145  0.04852460  1
  O  O641  1  0.83774958  0.51686332  0.29619116  1
  O  O642  1  0.83890977  0.51819504  0.54780546  1
  O  O643  1  0.83594324  0.51802737  0.79699441  1
  O  O644  1  0.83590046  0.85140315  0.04803947  1
  O  O645  1  0.83637388  0.85206319  0.29790437  1
  O  O646  1  0.83867197  0.85077758  0.54745515  1
  O  O647  1  0.83670562  0.85097314  0.79683802  1
  O  O648  1  0.16228475  0.14965557  0.20237941  1
  O  O649  1  0.16416796  0.14829751  0.45254235  1
  O  O650  1  0.16289235  0.14982996  0.70277584  1
  O  O651  1  0.16184360  0.14963888  0.95380422  1
  O  O652  1  0.16351899  0.48073694  0.20083148  1
  O  O653  1  0.16484345  0.48139360  0.45217318  1
  O  O654  1  0.16305970  0.48074664  0.70196910  1
  O  O655  1  0.16354489  0.48113027  0.95266297  1
  O  O656  1  0.16354288  0.81495060  0.20245240  1
  O  O657  1  0.16370911  0.81554710  0.45296530  1
  O  O658  1  0.16054355  0.81461889  0.70173019  1
  O  O659  1  0.16387106  0.81453645  0.95180635  1
  O  O660  1  0.66012321  0.14752910  0.20256975  1
  O  O661  1  0.66210197  0.14884048  0.45119046  1
  O  O662  1  0.66450607  0.14827537  0.70213204  1
  O  O663  1  0.66204528  0.15042316  0.95334473  1
  O  O664  1  0.66296062  0.48097031  0.20175341  1
  O  O665  1  0.66352523  0.48164315  0.45240720  1
  O  O666  1  0.66319784  0.48215726  0.70184087  1
  O  O667  1  0.66094911  0.48150644  0.95375973  1
  O  O668  1  0.66100363  0.81637796  0.20292603  1
  O  O669  1  0.66412315  0.81457911  0.45280158  1
  O  O670  1  0.66300848  0.81468913  0.70170198  1
  O  O671  1  0.66089634  0.81369119  0.95293488  1
