# generated using pymatgen
data_Na2MnFe(PO4)2
_symmetry_space_group_name_H-M   'P 1'
_cell_length_a   21.08585534
_cell_length_b   18.93877186
_cell_length_c   20.04499504
_cell_angle_alpha   89.99988984
_cell_angle_beta   89.99969930
_cell_angle_gamma   90.00059217
_symmetry_Int_Tables_number   1
_chemical_formula_structural   Na2MnFe(PO4)2
_chemical_formula_sum   'Na96 Mn48 Fe48 P96 O384'
_cell_volume   8004.77240240
_cell_formula_units_Z   48
loop_
 _symmetry_equiv_pos_site_id
 _symmetry_equiv_pos_as_xyz
  1  'x, y, z'
loop_
 _atom_site_type_symbol
 _atom_site_label
 _atom_site_symmetry_multiplicity
 _atom_site_fract_x
 _atom_site_fract_y
 _atom_site_fract_z
 _atom_site_occupancy
  Na  Na0  1  -0.00175471  -0.00050979  0.00034541  1
  Na  Na1  1  -0.00071713  -0.00048892  0.25066107  1
  Na  Na2  1  0.00114376  0.00018494  0.49941255  1
  Na  Na3  1  -0.00024171  -0.00028569  0.74915971  1
  Na  Na4  1  -0.00102005  0.33374012  -0.00002751  1
  Na  Na5  1  -0.00143145  0.33391285  0.25003917  1
  Na  Na6  1  -0.00305783  0.33249407  0.49966904  1
  Na  Na7  1  0.00095125  0.33484321  0.74954732  1
  Na  Na8  1  -0.00352697  0.66588956  0.00158414  1
  Na  Na9  1  -0.00259798  0.66620547  0.24941300  1
  Na  Na10  1  0.00087629  0.66738467  0.49896927  1
  Na  Na11  1  -0.00003510  0.66687943  0.75021594  1
  Na  Na12  1  0.50208769  0.00010227  0.00068851  1
  Na  Na13  1  0.50067467  -0.00035367  0.24964112  1
  Na  Na14  1  0.49775983  -0.00105573  0.50027489  1
  Na  Na15  1  0.49950183  -0.00065002  0.75033251  1
  Na  Na16  1  0.49995484  0.33239793  0.00033625  1
  Na  Na17  1  0.50094087  0.33311954  0.25031998  1
  Na  Na18  1  0.49995070  0.33338385  0.49922147  1
  Na  Na19  1  0.50185868  0.33441996  0.75048217  1
  Na  Na20  1  0.50113489  0.66670338  0.00051564  1
  Na  Na21  1  0.50103815  0.66678479  0.24925595  1
  Na  Na22  1  0.50019536  0.66700608  0.49970059  1
  Na  Na23  1  0.49881609  0.66597199  0.75011033  1
  Na  Na24  1  0.25058543  -0.00022455  0.12612680  1
  Na  Na25  1  0.24953361  -0.00071681  0.37403520  1
  Na  Na26  1  0.25056852  -0.00068080  0.62420971  1
  Na  Na27  1  0.25007025  -0.00080386  0.87474300  1
  Na  Na28  1  0.24867241  0.33340433  0.12518782  1
  Na  Na29  1  0.25116976  0.33463969  0.37455910  1
  Na  Na30  1  0.24893802  0.33314554  0.62576751  1
  Na  Na31  1  0.24824236  0.33362229  0.87591175  1
  Na  Na32  1  0.24979985  0.66615453  0.12461236  1
  Na  Na33  1  0.25180292  0.66731879  0.37608192  1
  Na  Na34  1  0.25301857  0.66690135  0.62448300  1
  Na  Na35  1  0.25287713  0.66751159  0.87451202  1
  Na  Na36  1  0.74993570  -0.00013883  0.12605386  1
  Na  Na37  1  0.75171626  0.00017366  0.37499761  1
  Na  Na38  1  0.75205075  0.00067497  0.62458216  1
  Na  Na39  1  0.74855691  -0.00085376  0.87499329  1
  Na  Na40  1  0.75025650  0.33316063  0.12577958  1
  Na  Na41  1  0.75072617  0.33317576  0.37569094  1
  Na  Na42  1  0.75064196  0.33358673  0.62371324  1
  Na  Na43  1  0.75022695  0.33329554  0.87367969  1
  Na  Na44  1  0.75154894  0.66763691  0.12551749  1
  Na  Na45  1  0.74829018  0.66621832  0.37574476  1
  Na  Na46  1  0.74757579  0.66631488  0.62433773  1
  Na  Na47  1  0.74995784  0.66664552  0.87476579  1
  Na  Na48  1  -0.00228931  0.16654238  -0.00014331  1
  Na  Na49  1  -0.00358548  0.16721368  0.25036525  1
  Na  Na50  1  -0.00213769  0.16636779  0.49980183  1
  Na  Na51  1  -0.00211272  0.16711531  0.74969840  1
  Na  Na52  1  -0.00128547  0.50074154  0.00107342  1
  Na  Na53  1  -0.00027464  0.50017514  0.24940867  1
  Na  Na54  1  0.00023666  0.50043064  0.49991445  1
  Na  Na55  1  0.00041188  0.50000978  0.74902838  1
  Na  Na56  1  -0.00306035  0.83400240  0.00109651  1
  Na  Na57  1  -0.00193126  0.83387236  0.25026973  1
  Na  Na58  1  0.00130194  0.83317855  0.49848291  1
  Na  Na59  1  0.00171602  0.83251910  0.75007292  1
  Na  Na60  1  0.50218229  0.16674601  0.00049463  1
  Na  Na61  1  0.50141031  0.16659671  0.24985920  1
  Na  Na62  1  0.50062798  0.16602781  0.50014224  1
  Na  Na63  1  0.50036947  0.16684716  0.74959332  1
  Na  Na64  1  0.50064443  0.50058008  0.00086805  1
  Na  Na65  1  0.50057737  0.50044528  0.25010281  1
  Na  Na66  1  0.49830488  0.50091978  0.49963311  1
  Na  Na67  1  0.49952127  0.50079663  0.75061295  1
  Na  Na68  1  0.49978560  0.83381370  0.00016233  1
  Na  Na69  1  0.50046143  0.83322664  0.24916293  1
  Na  Na70  1  0.49914474  0.83328208  0.49961460  1
  Na  Na71  1  0.50039692  0.83227043  0.75081244  1
  Na  Na72  1  0.25089871  0.16559041  0.12630654  1
  Na  Na73  1  0.24903729  0.16706110  0.37392127  1
  Na  Na74  1  0.25169092  0.16552926  0.62472212  1
  Na  Na75  1  0.24963637  0.16695424  0.87585215  1
  Na  Na76  1  0.24819090  0.50060340  0.12381024  1
  Na  Na77  1  0.25069128  0.50001859  0.37608300  1
  Na  Na78  1  0.25086077  0.49994871  0.62522014  1
  Na  Na79  1  0.25010050  0.49989050  0.87501521  1
  Na  Na80  1  0.25184987  0.83264397  0.12549513  1
  Na  Na81  1  0.25093708  0.83374511  0.37518383  1
  Na  Na82  1  0.25150144  0.83329222  0.62400190  1
  Na  Na83  1  0.25162602  0.83300404  0.87465985  1
  Na  Na84  1  0.75071042  0.16598313  0.12616768  1
  Na  Na85  1  0.75051890  0.16671703  0.37466821  1
  Na  Na86  1  0.75284025  0.16578279  0.62437860  1
  Na  Na87  1  0.74921211  0.16705334  0.87411712  1
  Na  Na88  1  0.74982979  0.50130440  0.12523442  1
  Na  Na89  1  0.75088394  0.50004261  0.37536862  1
  Na  Na90  1  0.74901999  0.50108380  0.62439660  1
  Na  Na91  1  0.75135660  0.49986000  0.87470859  1
  Na  Na92  1  0.75022483  0.83297805  0.12646473  1
  Na  Na93  1  0.74966718  0.83299834  0.37597673  1
  Na  Na94  1  0.74815804  0.83351463  0.62412334  1
  Na  Na95  1  0.74928747  0.83280140  0.87413891  1
  Mn  Mn96  1  0.64326854  0.24998485  0.49786912  1
  Mn  Mn97  1  0.64190536  0.91684082  0.74711311  1
  Mn  Mn98  1  0.89246391  0.58398736  0.62659007  1
  Mn  Mn99  1  0.35868797  0.08302823  0.00234644  1
  Mn  Mn100  1  0.10779496  0.74941390  0.87345301  1
  Mn  Mn101  1  0.35792839  0.41657431  0.75246916  1
  Mn  Mn102  1  0.10770859  0.08342847  0.62215726  1
  Mn  Mn103  1  0.85760456  0.41703079  0.25271753  1
  Mn  Mn104  1  0.64173777  0.58302894  0.74776460  1
  Mn  Mn105  1  0.14198334  0.91615806  0.99891812  1
  Mn  Mn106  1  0.14083701  0.25042339  0.24738562  1
  Mn  Mn107  1  0.35713310  0.41718362  0.25137212  1
  Mn  Mn108  1  0.85794077  0.75040746  0.75137096  1
  Mn  Mn109  1  0.89333650  0.91620036  0.62664199  1
  Mn  Mn110  1  0.35844193  0.08350888  0.75288533  1
  Mn  Mn111  1  0.14147308  0.58436331  0.99757909  1
  Mn  Mn112  1  0.10742760  0.08363730  0.87287434  1
  Mn  Mn113  1  0.10715708  0.41642455  0.37328007  1
  Mn  Mn114  1  0.39258693  0.24961981  0.37731083  1
  Mn  Mn115  1  0.35736241  0.41649326  0.00265023  1
  Mn  Mn116  1  0.14128743  0.24939628  0.99870072  1
  Mn  Mn117  1  0.85663459  0.08303280  0.00222348  1
  Mn  Mn118  1  0.85817815  0.41703762  0.75162143  1
  Mn  Mn119  1  0.10781510  0.74986393  0.37226692  1
  Mn  Mn120  1  0.39223082  0.25041546  0.62742128  1
  Mn  Mn121  1  0.60862037  0.08336978  0.12321667  1
  Mn  Mn122  1  0.60788218  0.08303360  0.62207147  1
  Mn  Mn123  1  0.64271838  0.24995493  0.74690622  1
  Mn  Mn124  1  0.14149802  0.24944578  0.74771738  1
  Mn  Mn125  1  0.35783773  0.08331901  0.25278370  1
  Mn  Mn126  1  0.35790007  0.74931821  0.25208544  1
  Mn  Mn127  1  0.14353914  0.58372883  0.49771875  1
  Mn  Mn128  1  0.14282154  0.58409304  0.74828401  1
  Mn  Mn129  1  0.89142748  0.91573371  0.87725865  1
  Mn  Mn130  1  0.39318191  0.91675767  0.87801919  1
  Mn  Mn131  1  0.64163002  0.91698451  0.49735396  1
  Mn  Mn132  1  0.60764789  0.41660394  0.37271228  1
  Mn  Mn133  1  0.60871366  0.41696032  0.87325267  1
  Mn  Mn134  1  0.10625932  0.75001848  0.12287716  1
  Mn  Mn135  1  0.14193991  0.24918390  0.49752120  1
  Mn  Mn136  1  0.85708948  0.74987572  0.50256223  1
  Mn  Mn137  1  0.89165972  0.25094332  0.87754513  1
  Mn  Mn138  1  0.60878796  0.41640365  0.12257817  1
  Mn  Mn139  1  0.60861445  0.75010863  0.12272044  1
  Mn  Mn140  1  0.39252527  0.58282044  0.12763607  1
  Mn  Mn141  1  0.14280081  0.91612757  0.74781794  1
  Mn  Mn142  1  0.10616546  0.08375358  0.12303890  1
  Mn  Mn143  1  0.39273796  0.25023003  0.87791219  1
  Fe  Fe144  1  0.85686958  0.08250111  0.25245891  1
  Fe  Fe145  1  0.85785361  0.08320351  0.50139574  1
  Fe  Fe146  1  0.35829550  0.74999805  0.75199322  1
  Fe  Fe147  1  0.10631506  0.41724070  0.87382619  1
  Fe  Fe148  1  0.89304643  0.25037980  0.62660265  1
  Fe  Fe149  1  0.89076741  0.91670315  0.12774808  1
  Fe  Fe150  1  0.10734832  0.41701986  0.62291173  1
  Fe  Fe151  1  0.39339145  0.58318581  0.87737730  1
  Fe  Fe152  1  0.14191038  0.58406127  0.24883052  1
  Fe  Fe153  1  0.89210482  0.58348119  0.87664567  1
  Fe  Fe154  1  0.60734301  0.41737339  0.62269040  1
  Fe  Fe155  1  0.89288263  0.91654222  0.37712807  1
  Fe  Fe156  1  0.64304412  0.91665676  0.24919748  1
  Fe  Fe157  1  0.10926647  0.74968525  0.62317683  1
  Fe  Fe158  1  0.64166432  0.58292737  0.49798530  1
  Fe  Fe159  1  0.85628065  0.75034479  0.25256715  1
  Fe  Fe160  1  0.60794634  0.08245041  0.37390451  1
  Fe  Fe161  1  0.35842406  0.75034589  0.50191583  1
  Fe  Fe162  1  0.64288503  0.91636354  0.99881133  1
  Fe  Fe163  1  0.85712936  0.41713950  0.50195062  1
  Fe  Fe164  1  0.89163153  0.58332476  0.12735264  1
  Fe  Fe165  1  0.89207365  0.58359755  0.37708227  1
  Fe  Fe166  1  0.39342242  0.91741467  0.12686851  1
  Fe  Fe167  1  0.39258997  0.91629016  0.62661377  1
  Fe  Fe168  1  0.85747043  0.08274510  0.75172176  1
  Fe  Fe169  1  0.60740427  0.75000508  0.87352860  1
  Fe  Fe170  1  0.39289359  0.91656412  0.37595506  1
  Fe  Fe171  1  0.60824664  0.08313197  0.87295675  1
  Fe  Fe172  1  0.39280282  0.58366629  0.37628131  1
  Fe  Fe173  1  0.10571474  0.41670039  0.12344750  1
  Fe  Fe174  1  0.89111718  0.24997260  0.12669245  1
  Fe  Fe175  1  0.85741922  0.41698477  0.00151549  1
  Fe  Fe176  1  0.85641489  0.74994186  0.00136432  1
  Fe  Fe177  1  0.35746833  0.08369478  0.50062085  1
  Fe  Fe178  1  0.64347022  0.24987352  0.24855390  1
  Fe  Fe179  1  0.35785309  0.41618279  0.50248420  1
  Fe  Fe180  1  0.64305713  0.58335688  0.24891880  1
  Fe  Fe181  1  0.89183496  0.25007642  0.37680255  1
  Fe  Fe182  1  0.60604401  0.74950048  0.62354093  1
  Fe  Fe183  1  0.60655735  0.75056101  0.37357851  1
  Fe  Fe184  1  0.39314190  0.24966064  0.12670171  1
  Fe  Fe185  1  0.64312580  0.25027379  0.99867280  1
  Fe  Fe186  1  0.35843187  0.75005577  0.00163263  1
  Fe  Fe187  1  0.10650059  0.08321650  0.37347719  1
  Fe  Fe188  1  0.39355530  0.58326354  0.62668728  1
  Fe  Fe189  1  0.64393199  0.58349603  0.99829248  1
  Fe  Fe190  1  0.14244865  0.91582482  0.24794409  1
  Fe  Fe191  1  0.14405346  0.91674146  0.49787457  1
  P  P192  1  0.05044185  0.25044392  0.11035765  1
  P  P193  1  0.05123851  0.24925420  0.36031740  1
  P  P194  1  0.05203343  0.25063566  0.60956071  1
  P  P195  1  0.05262871  0.25110153  0.86014623  1
  P  P196  1  0.05255095  0.58324409  0.11157861  1
  P  P197  1  0.05230498  0.58343017  0.35947788  1
  P  P198  1  0.05427226  0.58392301  0.60974169  1
  P  P199  1  0.05165617  0.58288840  0.86031283  1
  P  P200  1  0.05166812  0.91649423  0.11164039  1
  P  P201  1  0.05436109  0.91716907  0.36067026  1
  P  P202  1  0.05509238  0.91562694  0.60868065  1
  P  P203  1  0.05305866  0.91632434  0.86017822  1
  P  P204  1  0.55479624  0.24991788  0.11085002  1
  P  P205  1  0.55466415  0.24885675  0.35966564  1
  P  P206  1  0.55359315  0.25094843  0.60957128  1
  P  P207  1  0.55552604  0.24944259  0.86108428  1
  P  P208  1  0.55603332  0.58335823  0.11057395  1
  P  P209  1  0.55377633  0.58425841  0.36060057  1
  P  P210  1  0.55282719  0.58335543  0.60950673  1
  P  P211  1  0.55416502  0.58422526  0.86169666  1
  P  P212  1  0.55478164  0.91658180  0.11088285  1
  P  P213  1  0.55268871  0.91645640  0.35965022  1
  P  P214  1  0.55178009  0.91568750  0.60995752  1
  P  P215  1  0.55548738  0.91631028  0.86162484  1
  P  P216  1  0.44692838  0.08342174  0.14012999  1
  P  P217  1  0.44787035  0.08240378  0.39008703  1
  P  P218  1  0.44545459  0.08260226  0.63877964  1
  P  P219  1  0.44912609  0.08344059  0.89054829  1
  P  P220  1  0.44721983  0.41565445  0.14023411  1
  P  P221  1  0.44579536  0.41750416  0.39002954  1
  P  P222  1  0.44711081  0.41740459  0.63902197  1
  P  P223  1  0.44717330  0.41749855  0.89059547  1
  P  P224  1  0.44600191  0.75069025  0.13877436  1
  P  P225  1  0.44695215  0.75007019  0.38971937  1
  P  P226  1  0.44576170  0.74978067  0.63910849  1
  P  P227  1  0.44666678  0.74913702  0.88979747  1
  P  P228  1  0.94424659  0.08304245  0.14086097  1
  P  P229  1  0.94532062  0.08259646  0.38905655  1
  P  P230  1  0.94490200  0.08366014  0.63895646  1
  P  P231  1  0.94507923  0.08295097  0.88908459  1
  P  P232  1  0.94502272  0.41687809  0.13879627  1
  P  P233  1  0.94527704  0.41739884  0.39041205  1
  P  P234  1  0.94656634  0.41672505  0.63824021  1
  P  P235  1  0.94660668  0.41808772  0.89051529  1
  P  P236  1  0.94291767  0.75016076  0.13975031  1
  P  P237  1  0.94482764  0.75004507  0.38853639  1
  P  P238  1  0.94896373  0.75017523  0.63944851  1
  P  P239  1  0.94575899  0.74903479  0.89089147  1
  P  P240  1  0.19443572  0.08226347  0.23640373  1
  P  P241  1  0.19733467  0.08237150  0.48396189  1
  P  P242  1  0.19704575  0.08296838  0.73457368  1
  P  P243  1  0.19678968  0.08274578  0.98548239  1
  P  P244  1  0.19490779  0.41826466  0.23446361  1
  P  P245  1  0.19698010  0.41650520  0.48624545  1
  P  P246  1  0.19462153  0.41720837  0.73565959  1
  P  P247  1  0.19382998  0.41687928  0.98573732  1
  P  P248  1  0.19621342  0.74984076  0.23516460  1
  P  P249  1  0.19764114  0.75077407  0.48598755  1
  P  P250  1  0.19837969  0.74967039  0.73420749  1
  P  P251  1  0.19828737  0.75027387  0.98507728  1
  P  P252  1  0.69647533  0.08272380  0.23720601  1
  P  P253  1  0.69788161  0.08332514  0.48420265  1
  P  P254  1  0.69707329  0.08322565  0.73514364  1
  P  P255  1  0.69598989  0.08334600  0.98479682  1
  P  P256  1  0.69674285  0.41679272  0.23560371  1
  P  P257  1  0.69651186  0.41749140  0.48598462  1
  P  P258  1  0.69630479  0.41698376  0.73350688  1
  P  P259  1  0.69863489  0.41687050  0.98524875  1
  P  P260  1  0.69587543  0.75019061  0.23722328  1
  P  P261  1  0.69360332  0.74923225  0.48569794  1
  P  P262  1  0.69466892  0.74975484  0.73484004  1
  P  P263  1  0.69727020  0.74998436  0.98488913  1
  P  P264  1  0.30359096  0.24990099  0.01649570  1
  P  P265  1  0.30384789  0.25038477  0.26394734  1
  P  P266  1  0.30337964  0.24977211  0.51469083  1
  P  P267  1  0.30305466  0.25032705  0.76586540  1
  P  P268  1  0.30473388  0.58403217  0.01388527  1
  P  P269  1  0.30223702  0.58318142  0.26569432  1
  P  P270  1  0.30646392  0.58331205  0.51434296  1
  P  P271  1  0.30606894  0.58395839  0.76447402  1
  P  P272  1  0.30453258  0.91583911  0.01608331  1
  P  P273  1  0.30416633  0.91632902  0.26449157  1
  P  P274  1  0.30530148  0.91711343  0.51339392  1
  P  P275  1  0.30549855  0.91560419  0.76381913  1
  P  P276  1  0.80231978  0.25069997  0.01541195  1
  P  P277  1  0.80406327  0.24929194  0.26464831  1
  P  P278  1  0.80605078  0.24991286  0.51399160  1
  P  P279  1  0.80504993  0.24955380  0.76323431  1
  P  P280  1  0.80408699  0.58354304  0.01422080  1
  P  P281  1  0.80367558  0.58433542  0.26488511  1
  P  P282  1  0.80274402  0.58307175  0.51388916  1
  P  P283  1  0.80382650  0.58381729  0.76518945  1
  P  P284  1  0.80199270  0.91563975  0.01567395  1
  P  P285  1  0.80382499  0.91631421  0.26513681  1
  P  P286  1  0.80433203  0.91706659  0.51379505  1
  P  P287  1  0.80334824  0.91690775  0.76437809  1
  O  O288  1  0.05417003  0.24998278  0.18706019  1
  O  O289  1  0.05531965  0.24948932  0.43698410  1
  O  O290  1  0.05558639  0.25007741  0.68626142  1
  O  O291  1  0.05540487  0.24978640  0.93692144  1
  O  O292  1  0.05751410  0.58412393  0.18813925  1
  O  O293  1  0.05726145  0.58387807  0.43612372  1
  O  O294  1  0.05699610  0.58409504  0.68649671  1
  O  O295  1  0.05502705  0.58396157  0.93704940  1
  O  O296  1  0.05727583  0.91596729  0.18822979  1
  O  O297  1  0.05984580  0.91649326  0.43728383  1
  O  O298  1  0.05772435  0.91622209  0.68551348  1
  O  O299  1  0.05585886  0.91638966  0.93700055  1
  O  O300  1  0.56007936  0.25007899  0.18752534  1
  O  O301  1  0.55782207  0.24961369  0.43642054  1
  O  O302  1  0.55659786  0.25047085  0.68637895  1
  O  O303  1  0.55989191  0.25033297  0.93788888  1
  O  O304  1  0.56049550  0.58347527  0.18737929  1
  O  O305  1  0.55806683  0.58313775  0.43730065  1
  O  O306  1  0.55597420  0.58303506  0.68625069  1
  O  O307  1  0.55961587  0.58346533  0.93833285  1
  O  O308  1  0.55975647  0.91632230  0.18754732  1
  O  O309  1  0.55579304  0.91674212  0.43639607  1
  O  O310  1  0.55553429  0.91641944  0.68664835  1
  O  O311  1  0.55947675  0.91621955  0.93840529  1
  O  O312  1  0.44441407  0.08341708  0.06339961  1
  O  O313  1  0.44421694  0.08317769  0.31338254  1
  O  O314  1  0.44113537  0.08336365  0.56205078  1
  O  O315  1  0.44502171  0.08343111  0.81382180  1
  O  O316  1  0.44383367  0.41639379  0.06351552  1
  O  O317  1  0.44283329  0.41694414  0.31327655  1
  O  O318  1  0.44218535  0.41626758  0.56235788  1
  O  O319  1  0.44410161  0.41690331  0.81380174  1
  O  O320  1  0.44222716  0.74996853  0.06203792  1
  O  O321  1  0.44376386  0.74981692  0.31298343  1
  O  O322  1  0.44166593  0.75023919  0.56233456  1
  O  O323  1  0.44244180  0.74962869  0.81306664  1
  O  O324  1  0.94157939  0.08272064  0.06402726  1
  O  O325  1  0.94063574  0.08244323  0.31236032  1
  O  O326  1  0.94116613  0.08254901  0.56212052  1
  O  O327  1  0.94116574  0.08265843  0.81228878  1
  O  O328  1  0.94059706  0.41692959  0.06209825  1
  O  O329  1  0.94276729  0.41755791  0.31364869  1
  O  O330  1  0.94145513  0.41755044  0.56160855  1
  O  O331  1  0.94355075  0.41737534  0.81376836  1
  O  O332  1  0.93894531  0.75037810  0.06296720  1
  O  O333  1  0.94049115  0.75006466  0.31181799  1
  O  O334  1  0.94425983  0.75025188  0.56278948  1
  O  O335  1  0.94329338  0.75008837  0.81409839  1
  O  O336  1  0.19299923  0.08295908  0.06228484  1
  O  O337  1  0.18982613  0.08333201  0.31312777  1
  O  O338  1  0.19377404  0.08312858  0.56068418  1
  O  O339  1  0.19340287  0.08316741  0.81134431  1
  O  O340  1  0.18883138  0.41696311  0.06250509  1
  O  O341  1  0.19240542  0.41718107  0.31133201  1
  O  O342  1  0.19150747  0.41642217  0.56288794  1
  O  O343  1  0.19003176  0.41746919  0.81240843  1
  O  O344  1  0.19325130  0.74989340  0.06171464  1
  O  O345  1  0.19373803  0.75007620  0.31199449  1
  O  O346  1  0.19302926  0.74987723  0.56261021  1
  O  O347  1  0.19401361  0.74956425  0.81089196  1
  O  O348  1  0.69384415  0.08329243  0.06171642  1
  O  O349  1  0.69191025  0.08255943  0.31381963  1
  O  O350  1  0.69391933  0.08301663  0.56091878  1
  O  O351  1  0.69202703  0.08309963  0.81179069  1
  O  O352  1  0.69525132  0.41697662  0.06192988  1
  O  O353  1  0.69402462  0.41667380  0.31241347  1
  O  O354  1  0.69149449  0.41735173  0.56260175  1
  O  O355  1  0.69328339  0.41710501  0.81032370  1
  O  O356  1  0.69432403  0.75004956  0.06163986  1
  O  O357  1  0.69108222  0.75024129  0.31386792  1
  O  O358  1  0.68908065  0.75004401  0.56244272  1
  O  O359  1  0.69073078  0.74959299  0.81161212  1
  O  O360  1  0.30878953  0.24995657  0.18729803  1
  O  O361  1  0.30623805  0.25025490  0.43789669  1
  O  O362  1  0.30673746  0.25037259  0.68907404  1
  O  O363  1  0.30693900  0.25024861  0.93968514  1
  O  O364  1  0.30619617  0.58313504  0.18895475  1
  O  O365  1  0.31006278  0.58354429  0.43754173  1
  O  O366  1  0.31010271  0.58288254  0.68767412  1
  O  O367  1  0.30922382  0.58326559  0.93714978  1
  O  O368  1  0.30944898  0.91667781  0.18789668  1
  O  O369  1  0.30968012  0.91674040  0.43664553  1
  O  O370  1  0.30935840  0.91621085  0.68702172  1
  O  O371  1  0.30758383  0.91675448  0.93923726  1
  O  O372  1  0.80827730  0.25000518  0.18791369  1
  O  O373  1  0.80933969  0.24991362  0.43706581  1
  O  O374  1  0.80912411  0.25052629  0.68646165  1
  O  O375  1  0.80571102  0.25027960  0.93865244  1
  O  O376  1  0.80807088  0.58365493  0.18814576  1
  O  O377  1  0.80774192  0.58373499  0.43724595  1
  O  O378  1  0.80694772  0.58402587  0.68837480  1
  O  O379  1  0.80826230  0.58324574  0.93752689  1
  O  O380  1  0.80756948  0.91651710  0.18836789  1
  O  O381  1  0.80861820  0.91617896  0.43706760  1
  O  O382  1  0.80683169  0.91603505  0.68763125  1
  O  O383  1  0.80543684  0.91611406  0.93896966  1
  O  O384  1  0.23373996  0.24960654  0.04124465  1
  O  O385  1  0.23363870  0.25086412  0.28761857  1
  O  O386  1  0.23380180  0.24934466  0.54031971  1
  O  O387  1  0.23330251  0.25037447  0.79056037  1
  O  O388  1  0.23460759  0.58364491  0.03779335  1
  O  O389  1  0.23225190  0.58383596  0.29033755  1
  O  O390  1  0.23642517  0.58328662  0.53873120  1
  O  O391  1  0.23602390  0.58366899  0.78875315  1
  O  O392  1  0.23484968  0.91615560  0.04132451  1
  O  O393  1  0.23370100  0.91617164  0.28770827  1
  O  O394  1  0.23494498  0.91658949  0.53728644  1
  O  O395  1  0.23563529  0.91586824  0.78839588  1
  O  O396  1  0.73231517  0.24979156  0.04024953  1
  O  O397  1  0.73372762  0.24971037  0.28854605  1
  O  O398  1  0.73608111  0.24966706  0.53849272  1
  O  O399  1  0.73513335  0.25005572  0.78761535  1
  O  O400  1  0.73372809  0.58415817  0.03832844  1
  O  O401  1  0.73327578  0.58352518  0.28860344  1
  O  O402  1  0.73236592  0.58357845  0.53743136  1
  O  O403  1  0.73406912  0.58330400  0.78999265  1
  O  O404  1  0.73190878  0.91634278  0.04040548  1
  O  O405  1  0.73352440  0.91643496  0.28931220  1
  O  O406  1  0.73427175  0.91691049  0.53797249  1
  O  O407  1  0.73364256  0.91640946  0.78926356  1
  O  O408  1  0.26464646  0.08235890  0.21280419  1
  O  O409  1  0.26739805  0.08308132  0.45928243  1
  O  O410  1  0.26681182  0.08261646  0.70986159  1
  O  O411  1  0.26656831  0.08294486  0.96060508  1
  O  O412  1  0.26451005  0.41726615  0.20897478  1
  O  O413  1  0.26742569  0.41711367  0.46304799  1
  O  O414  1  0.26486259  0.41697274  0.71204475  1
  O  O415  1  0.26413153  0.41681007  0.96242380  1
  O  O416  1  0.26578868  0.74951247  0.20975959  1
  O  O417  1  0.26812350  0.75062528  0.46249746  1
  O  O418  1  0.26857837  0.74978442  0.71020011  1
  O  O419  1  0.26846317  0.75027952  0.96114130  1
  O  O420  1  0.76677684  0.08260565  0.21322633  1
  O  O421  1  0.76804528  0.08373416  0.46017113  1
  O  O422  1  0.76734380  0.08317058  0.71147338  1
  O  O423  1  0.76555888  0.08324117  0.95914235  1
  O  O424  1  0.76627803  0.41717461  0.21013881  1
  O  O425  1  0.76686188  0.41672064  0.46232159  1
  O  O426  1  0.76605131  0.41732327  0.70868141  1
  O  O427  1  0.76853550  0.41688532  0.96004190  1
  O  O428  1  0.76618023  0.75031425  0.21337634  1
  O  O429  1  0.76382540  0.74965971  0.46217276  1
  O  O430  1  0.76462044  0.74986295  0.71035771  1
  O  O431  1  0.76730349  0.74957444  0.95998795  1
  O  O432  1  0.01386576  0.08327505  0.16625670  1
  O  O433  1  0.01576612  0.08272243  0.41277620  1
  O  O434  1  0.01495134  0.08305840  0.66315356  1
  O  O435  1  0.01484641  0.08316278  0.91390255  1
  O  O436  1  0.01521793  0.41705061  0.16303632  1
  O  O437  1  0.01499100  0.41690894  0.41571092  1
  O  O438  1  0.01685861  0.41722319  0.66198369  1
  O  O439  1  0.01643316  0.41742649  0.91565099  1
  O  O440  1  0.01302701  0.75009098  0.16388772  1
  O  O441  1  0.01498480  0.75014942  0.41246105  1
  O  O442  1  0.01904824  0.74986345  0.66366085  1
  O  O443  1  0.01522754  0.74970847  0.91683347  1
  O  O444  1  0.51659941  0.08324589  0.16547624  1
  O  O445  1  0.51799958  0.08247029  0.41467109  1
  O  O446  1  0.51546209  0.08311784  0.66312682  1
  O  O447  1  0.51910657  0.08320041  0.91505679  1
  O  O448  1  0.51692579  0.41656578  0.16525789  1
  O  O449  1  0.51570392  0.41695173  0.41478560  1
  O  O450  1  0.51739238  0.41767513  0.66292873  1
  O  O451  1  0.51685616  0.41704206  0.91579388  1
  O  O452  1  0.51595216  0.75006686  0.16317576  1
  O  O453  1  0.51700701  0.75025118  0.41443939  1
  O  O454  1  0.51607134  0.74927589  0.66325820  1
  O  O455  1  0.51694952  0.75008673  0.91386090  1
  O  O456  1  0.48441371  0.24941668  0.08748294  1
  O  O457  1  0.48481129  0.24972394  0.33495179  1
  O  O458  1  0.48399073  0.25023837  0.58431513  1
  O  O459  1  0.48557042  0.25031158  0.83671536  1
  O  O460  1  0.48581579  0.58339460  0.08716959  1
  O  O461  1  0.48339499  0.58384586  0.33669143  1
  O  O462  1  0.48275439  0.58383152  0.58492007  1
  O  O463  1  0.48386694  0.58376512  0.83804345  1
  O  O464  1  0.48444505  0.91708935  0.08736775  1
  O  O465  1  0.48261792  0.91633864  0.33487552  1
  O  O466  1  0.48177403  0.91571287  0.58540495  1
  O  O467  1  0.48557411  0.91594013  0.83711683  1
  O  O468  1  0.98039738  0.25002617  0.08569318  1
  O  O469  1  0.98097263  0.25014085  0.33620894  1
  O  O470  1  0.98201322  0.24998983  0.58492040  1
  O  O471  1  0.98307620  0.25124287  0.83464580  1
  O  O472  1  0.98202818  0.58352599  0.08828472  1
  O  O473  1  0.98193499  0.58326123  0.33599968  1
  O  O474  1  0.98464212  0.58404040  0.58423481  1
  O  O475  1  0.98185654  0.58324317  0.83509584  1
  O  O476  1  0.98107238  0.91655318  0.08870424  1
  O  O477  1  0.98364987  0.91661967  0.33791509  1
  O  O478  1  0.98537619  0.91629746  0.58346127  1
  O  O479  1  0.98351299  0.91591526  0.83465814  1
  O  O480  1  0.08428894  0.31549798  0.07795719  1
  O  O481  1  0.08510660  0.31432739  0.32763319  1
  O  O482  1  0.08562628  0.31577741  0.57693177  1
  O  O483  1  0.08671776  0.31653728  0.82855491  1
  O  O484  1  0.08561794  0.64819370  0.07755726  1
  O  O485  1  0.08580096  0.64842539  0.32610266  1
  O  O486  1  0.08861090  0.64890395  0.57727422  1
  O  O487  1  0.08605201  0.64772612  0.82756849  1
  O  O488  1  0.08471614  0.98160632  0.07827922  1
  O  O489  1  0.08710955  0.98237686  0.32727902  1
  O  O490  1  0.08956543  0.98055091  0.57614044  1
  O  O491  1  0.08712713  0.98133704  0.82765714  1
  O  O492  1  0.58794190  0.31487795  0.07706616  1
  O  O493  1  0.58921891  0.31366042  0.32696496  1
  O  O494  1  0.58743200  0.31620320  0.57732248  1
  O  O495  1  0.58954981  0.31431762  0.82806047  1
  O  O496  1  0.58956756  0.64830720  0.07729057  1
  O  O497  1  0.58701410  0.64956197  0.32773384  1
  O  O498  1  0.58685706  0.64837627  0.57701124  1
  O  O499  1  0.58698536  0.64952726  0.82838903  1
  O  O500  1  0.58858850  0.98142673  0.07778142  1
  O  O501  1  0.58693385  0.98135175  0.32703205  1
  O  O502  1  0.58560217  0.98066529  0.57689064  1
  O  O503  1  0.58875624  0.98161570  0.82855063  1
  O  O504  1  0.41279048  0.01821877  0.17236774  1
  O  O505  1  0.41376422  0.01734029  0.42232388  1
  O  O506  1  0.41236471  0.01708229  0.67146273  1
  O  O507  1  0.41529223  0.01835544  0.92319983  1
  O  O508  1  0.41362244  0.35029203  0.17246580  1
  O  O509  1  0.41147777  0.35267302  0.42289672  1
  O  O510  1  0.41389887  0.35252662  0.67287906  1
  O  O511  1  0.41284931  0.35259312  0.92308978  1
  O  O512  1  0.41218441  0.68583149  0.17204405  1
  O  O513  1  0.41302013  0.68514627  0.42255430  1
  O  O514  1  0.41229999  0.68459570  0.67199169  1
  O  O515  1  0.41342123  0.68397762  0.92294262  1
  O  O516  1  0.90999088  0.01804153  0.17346825  1
  O  O517  1  0.91212704  0.01750214  0.42251292  1
  O  O518  1  0.91088553  0.01891935  0.67231592  1
  O  O519  1  0.91134230  0.01799447  0.92216689  1
  O  O520  1  0.91170461  0.35177283  0.17190075  1
  O  O521  1  0.91065963  0.35238794  0.42232942  1
  O  O522  1  0.91357017  0.35143081  0.67137559  1
  O  O523  1  0.91200897  0.35338876  0.92334285  1
  O  O524  1  0.90924296  0.68496657  0.17258379  1
  O  O525  1  0.91153396  0.68485248  0.42170579  1
  O  O526  1  0.91484061  0.68532852  0.67221719  1
  O  O527  1  0.91163158  0.68357482  0.92260969  1
  O  O528  1  0.16119428  0.01687272  0.20366316  1
  O  O529  1  0.16365604  0.01703336  0.45160445  1
  O  O530  1  0.16297517  0.01797295  0.70205295  1
  O  O531  1  0.16299259  0.01756080  0.95307340  1
  O  O532  1  0.15975224  0.35370659  0.20190801  1
  O  O533  1  0.16407403  0.35139258  0.45253265  1
  O  O534  1  0.16083193  0.35233805  0.70233101  1
  O  O535  1  0.16035649  0.35181534  0.95265648  1
  O  O536  1  0.16181817  0.68473541  0.20314200  1
  O  O537  1  0.16430044  0.68587236  0.45227412  1
  O  O538  1  0.16476385  0.68458540  0.70115712  1
  O  O539  1  0.16471091  0.68529975  0.95171741  1
  O  O540  1  0.66314537  0.01768743  0.20387797  1
  O  O541  1  0.66410352  0.01827998  0.45123684  1
  O  O542  1  0.66371451  0.01823131  0.70165019  1
  O  O543  1  0.66170483  0.01820559  0.95276611  1
  O  O544  1  0.66297807  0.35149308  0.20328313  1
  O  O545  1  0.66315308  0.35246773  0.45262963  1
  O  O546  1  0.66220024  0.35204702  0.70094996  1
  O  O547  1  0.66474144  0.35172731  0.95284671  1
  O  O548  1  0.66284987  0.68512159  0.20372018  1
  O  O549  1  0.66022791  0.68413145  0.45263738  1
  O  O550  1  0.66080571  0.68475936  0.70192130  1
  O  O551  1  0.66304689  0.68509979  0.95222004  1
  O  O552  1  0.33765516  0.31491948  0.04914748  1
  O  O553  1  0.33748039  0.31533953  0.29696302  1
  O  O554  1  0.33735315  0.31485913  0.54743020  1
  O  O555  1  0.33702238  0.31542142  0.79835109  1
  O  O556  1  0.33814260  0.64922277  0.04678514  1
  O  O557  1  0.33684218  0.64796081  0.29830276  1
  O  O558  1  0.34009868  0.64852916  0.54714931  1
  O  O559  1  0.33967453  0.64937432  0.79685100  1
  O  O560  1  0.33903097  0.98068593  0.04879805  1
  O  O561  1  0.33756935  0.98113207  0.29828572  1
  O  O562  1  0.33823158  0.98253174  0.54638236  1
  O  O563  1  0.33935110  0.98036985  0.79717902  1
  O  O564  1  0.83602142  0.31588641  0.04793748  1
  O  O565  1  0.83763907  0.31421154  0.29802154  1
  O  O566  1  0.83959602  0.31515541  0.54674893  1
  O  O567  1  0.83857121  0.31462543  0.79648500  1
  O  O568  1  0.83764972  0.64853299  0.04738985  1
  O  O569  1  0.83666039  0.64948535  0.29817636  1
  O  O570  1  0.83610782  0.64796953  0.54756744  1
  O  O571  1  0.83775558  0.64883090  0.79779890  1
  O  O572  1  0.83618449  0.98048910  0.04858971  1
  O  O573  1  0.83768264  0.98122512  0.29814804  1
  O  O574  1  0.83782875  0.98241306  0.54613302  1
  O  O575  1  0.83705911  0.98208439  0.79684665  1
  O  O576  1  0.41281723  0.14848945  0.17254331  1
  O  O577  1  0.41383118  0.14727865  0.42310180  1
  O  O578  1  0.41177713  0.14750375  0.67216815  1
  O  O579  1  0.41532705  0.14843131  0.92327315  1
  O  O580  1  0.41286500  0.48063329  0.17280275  1
  O  O581  1  0.41208290  0.48276751  0.42228721  1
  O  O582  1  0.41369371  0.48268178  0.67175595  1
  O  O583  1  0.41325214  0.48274557  0.92277084  1
  O  O584  1  0.41271615  0.81603968  0.17144138  1
  O  O585  1  0.41300217  0.81517176  0.42228180  1
  O  O586  1  0.41253665  0.81477875  0.67257346  1
  O  O587  1  0.41267599  0.81387736  0.92309961  1
  O  O588  1  0.90977142  0.14815585  0.17282878  1
  O  O589  1  0.91191916  0.14767640  0.42214496  1
  O  O590  1  0.91146545  0.14904114  0.67140729  1
  O  O591  1  0.91118068  0.14807616  0.92168526  1
  O  O592  1  0.91159053  0.48193466  0.17203601  1
  O  O593  1  0.91120595  0.48258366  0.42282785  1
  O  O594  1  0.91314598  0.48160274  0.67181917  1
  O  O595  1  0.91270214  0.48327872  0.92286804  1
  O  O596  1  0.90922941  0.81509105  0.17302572  1
  O  O597  1  0.91144917  0.81516538  0.42166435  1
  O  O598  1  0.91540008  0.81524121  0.67248792  1
  O  O599  1  0.91063625  0.81355744  0.92353848  1
  O  O600  1  0.08428597  0.18537661  0.07756538  1
  O  O601  1  0.08446711  0.18414536  0.32734997  1
  O  O602  1  0.08590445  0.18554127  0.57678429  1
  O  O603  1  0.08666789  0.18614791  0.82724813  1
  O  O604  1  0.08560992  0.51813194  0.07835372  1
  O  O605  1  0.08601561  0.51838116  0.32674126  1
  O  O606  1  0.08827814  0.51867159  0.57744609  1
  O  O607  1  0.08561544  0.51769782  0.82816027  1
  O  O608  1  0.08471042  0.85155088  0.07775294  1
  O  O609  1  0.08762679  0.85228972  0.32671265  1
  O  O610  1  0.08921307  0.85043327  0.57654321  1
  O  O611  1  0.08756317  0.85123938  0.82813031  1
  O  O612  1  0.58852655  0.18504773  0.07767121  1
  O  O613  1  0.58834647  0.18348887  0.32743693  1
  O  O614  1  0.58813395  0.18598813  0.57733081  1
  O  O615  1  0.58862284  0.18394142  0.82826803  1
  O  O616  1  0.58966341  0.51848813  0.07725249  1
  O  O617  1  0.58760063  0.51951246  0.32708444  1
  O  O618  1  0.58667626  0.51845991  0.57633679  1
  O  O619  1  0.58748655  0.51933657  0.82796188  1
  O  O620  1  0.58791444  0.85160188  0.07718865  1
  O  O621  1  0.58666982  0.85132450  0.32714669  1
  O  O622  1  0.58554050  0.85063321  0.57748609  1
  O  O623  1  0.58903656  0.85111049  0.82879753  1
  O  O624  1  0.33806073  0.18494395  0.04877910  1
  O  O625  1  0.33697300  0.18525533  0.29748955  1
  O  O626  1  0.33768811  0.18439035  0.54629200  1
  O  O627  1  0.33709075  0.18523121  0.79834297  1
  O  O628  1  0.33816842  0.51909473  0.04747052  1
  O  O629  1  0.33607825  0.51813038  0.29837709  1
  O  O630  1  0.34013858  0.51826856  0.54740018  1
  O  O631  1  0.33994482  0.51930487  0.79806160  1
  O  O632  1  0.33884677  0.85063398  0.04795005  1
  O  O633  1  0.33757679  0.85130873  0.29784190  1
  O  O634  1  0.33905949  0.85225839  0.54686213  1
  O  O635  1  0.33908322  0.85026774  0.79635070  1
  O  O636  1  0.83661842  0.18585358  0.04816319  1
  O  O637  1  0.83744970  0.18417532  0.29762895  1
  O  O638  1  0.83988942  0.18481661  0.54651856  1
  O  O639  1  0.83837014  0.18428656  0.79592889  1
  O  O640  1  0.83719005  0.51843724  0.04781516  1
  O  O641  1  0.83747642  0.51953488  0.29818217  1
  O  O642  1  0.83591182  0.51789451  0.54701461  1
  O  O643  1  0.83827115  0.51891558  0.79757111  1
  O  O644  1  0.83556984  0.85046428  0.04826017  1
  O  O645  1  0.83735049  0.85129764  0.29824662  1
  O  O646  1  0.83774158  0.85213169  0.54730951  1
  O  O647  1  0.83731915  0.85185808  0.79711262  1
  O  O648  1  0.16111226  0.14729531  0.20289266  1
  O  O649  1  0.16265371  0.14702850  0.45113311  1
  O  O650  1  0.16325811  0.14812624  0.70182084  1
  O  O651  1  0.16262161  0.14784280  0.95309539  1
  O  O652  1  0.16120737  0.48389514  0.20274396  1
  O  O653  1  0.16353145  0.48142474  0.45281363  1
  O  O654  1  0.16144099  0.48235960  0.70225095  1
  O  O655  1  0.16053716  0.48189981  0.95219685  1
  O  O656  1  0.16212797  0.81505325  0.20283812  1
  O  O657  1  0.16432640  0.81578556  0.45275357  1
  O  O658  1  0.16443881  0.81450706  0.70116051  1
  O  O659  1  0.16476336  0.81539603  0.95228387  1
  O  O660  1  0.66339367  0.14787668  0.20383344  1
  O  O661  1  0.66372839  0.14809854  0.45149008  1
  O  O662  1  0.66389426  0.14823253  0.70168119  1
  O  O663  1  0.66188756  0.14849664  0.95265979  1
  O  O664  1  0.66250189  0.48186175  0.20350848  1
  O  O665  1  0.66343394  0.48257849  0.45253186  1
  O  O666  1  0.66183013  0.48192809  0.70117324  1
  O  O667  1  0.66477276  0.48198223  0.95258711  1
  O  O668  1  0.66271593  0.81533561  0.20386471  1
  O  O669  1  0.66001541  0.81414348  0.45209018  1
  O  O670  1  0.66060374  0.81456593  0.70179794  1
  O  O671  1  0.66344981  0.81512067  0.95238422  1
