# generated using pymatgen
data_Na2MnFe(PO4)2
_symmetry_space_group_name_H-M   'P 1'
_cell_length_a   21.08208041
_cell_length_b   18.93429690
_cell_length_c   20.04123481
_cell_angle_alpha   89.99981677
_cell_angle_beta   90.00124764
_cell_angle_gamma   89.99966306
_symmetry_Int_Tables_number   1
_chemical_formula_structural   Na2MnFe(PO4)2
_chemical_formula_sum   'Na96 Mn48 Fe48 P96 O384'
_cell_volume   7999.94726991
_cell_formula_units_Z   48
loop_
 _symmetry_equiv_pos_site_id
 _symmetry_equiv_pos_as_xyz
  1  'x, y, z'
loop_
 _atom_site_type_symbol
 _atom_site_label
 _atom_site_symmetry_multiplicity
 _atom_site_fract_x
 _atom_site_fract_y
 _atom_site_fract_z
 _atom_site_occupancy
  Na  Na0  1  0.00122878  0.00093642  -0.00069050  1
  Na  Na1  1  -0.00219473  -0.00047247  0.25020379  1
  Na  Na2  1  -0.00221367  -0.00035498  0.49980249  1
  Na  Na3  1  0.00003821  0.00072979  0.74972731  1
  Na  Na4  1  0.00117988  0.33363765  0.00065465  1
  Na  Na5  1  0.00026836  0.33409338  0.24958708  1
  Na  Na6  1  -0.00101509  0.33267421  0.50046388  1
  Na  Na7  1  0.00335323  0.33467987  0.74933295  1
  Na  Na8  1  0.00126569  0.66659455  -0.00011745  1
  Na  Na9  1  -0.00283316  0.66551851  0.25063939  1
  Na  Na10  1  -0.00107835  0.66648604  0.50026545  1
  Na  Na11  1  0.00230129  0.66715484  0.74959901  1
  Na  Na12  1  0.50257788  0.00073996  -0.00053067  1
  Na  Na13  1  0.50274816  -0.00005221  0.25049343  1
  Na  Na14  1  0.50074888  -0.00025752  0.50033220  1
  Na  Na15  1  0.49998806  -0.00030805  0.75031274  1
  Na  Na16  1  0.49818289  0.33263243  0.00092730  1
  Na  Na17  1  0.49845151  0.33292502  0.24979955  1
  Na  Na18  1  0.49872183  0.33355685  0.49944369  1
  Na  Na19  1  0.49936660  0.33366477  0.75005999  1
  Na  Na20  1  0.50105515  0.66735507  -0.00043519  1
  Na  Na21  1  0.49918938  0.66580380  0.25101704  1
  Na  Na22  1  0.49906725  0.66650292  0.49944828  1
  Na  Na23  1  0.49684721  0.66526443  0.74962042  1
  Na  Na24  1  0.25055184  0.00039539  0.12567706  1
  Na  Na25  1  0.25067247  0.00012932  0.37503889  1
  Na  Na26  1  0.25100385  0.00078500  0.62528867  1
  Na  Na27  1  0.24941117  -0.00045513  0.87399608  1
  Na  Na28  1  0.25032636  0.33329860  0.12505807  1
  Na  Na29  1  0.25108471  0.33403995  0.37497394  1
  Na  Na30  1  0.24951377  0.33310059  0.62498067  1
  Na  Na31  1  0.24907390  0.33236831  0.87538515  1
  Na  Na32  1  0.24961734  0.66633120  0.12473647  1
  Na  Na33  1  0.25244253  0.66757993  0.37589078  1
  Na  Na34  1  0.25164238  0.66713629  0.62460428  1
  Na  Na35  1  0.24949163  0.66594215  0.87438884  1
  Na  Na36  1  0.74649308  -0.00058921  0.12456155  1
  Na  Na37  1  0.75026150  0.00003637  0.37526924  1
  Na  Na38  1  0.75071561  -0.00027114  0.62549527  1
  Na  Na39  1  0.74661321  -0.00021855  0.87476351  1
  Na  Na40  1  0.75044899  0.33400237  0.12560422  1
  Na  Na41  1  0.75025479  0.33385219  0.37625010  1
  Na  Na42  1  0.74928636  0.33316481  0.62400044  1
  Na  Na43  1  0.74960324  0.33356156  0.87425609  1
  Na  Na44  1  0.75076874  0.66631227  0.12513001  1
  Na  Na45  1  0.75323153  0.66762887  0.37539265  1
  Na  Na46  1  0.74977302  0.66582596  0.62461000  1
  Na  Na47  1  0.74938988  0.66587073  0.87473881  1
  Na  Na48  1  0.00128105  0.16658630  0.00012444  1
  Na  Na49  1  -0.00051867  0.16712310  0.25006186  1
  Na  Na50  1  -0.00075251  0.16692448  0.50081601  1
  Na  Na51  1  0.00130133  0.16587874  0.74929336  1
  Na  Na52  1  0.00228865  0.49880878  -0.00005531  1
  Na  Na53  1  -0.00091244  0.49934890  0.24985568  1
  Na  Na54  1  0.00012113  0.49944936  0.50059004  1
  Na  Na55  1  0.00307370  0.49916375  0.74967681  1
  Na  Na56  1  0.00014768  0.83325758  -0.00014394  1
  Na  Na57  1  -0.00264908  0.83362037  0.25056085  1
  Na  Na58  1  -0.00287395  0.83388625  0.49936168  1
  Na  Na59  1  0.00052237  0.83327333  0.74949768  1
  Na  Na60  1  0.50146192  0.16658494  -0.00014503  1
  Na  Na61  1  0.50157435  0.16708311  0.24951232  1
  Na  Na62  1  0.49778236  0.16817784  0.50020707  1
  Na  Na63  1  0.49712505  0.16792846  0.75074704  1
  Na  Na64  1  0.49950110  0.50035169  0.00018093  1
  Na  Na65  1  0.49985528  0.49958359  0.25067456  1
  Na  Na66  1  0.50039966  0.49923914  0.49878252  1
  Na  Na67  1  0.49930037  0.50011767  0.74969106  1
  Na  Na68  1  0.49961089  0.83386873  -0.00044120  1
  Na  Na69  1  0.49950592  0.83405601  0.25122055  1
  Na  Na70  1  0.49942935  0.83394442  0.49987094  1
  Na  Na71  1  0.49963429  0.83334496  0.74976234  1
  Na  Na72  1  0.24999692  0.16741346  0.12474777  1
  Na  Na73  1  0.25053538  0.16748066  0.37567693  1
  Na  Na74  1  0.25062850  0.16670040  0.62430659  1
  Na  Na75  1  0.25007591  0.16670872  0.87436637  1
  Na  Na76  1  0.24784149  0.49987881  0.12509662  1
  Na  Na77  1  0.25019760  0.49890960  0.37510765  1
  Na  Na78  1  0.24927283  0.49985129  0.62571471  1
  Na  Na79  1  0.24804140  0.50040447  0.87456534  1
  Na  Na80  1  0.25230964  0.83307035  0.12576524  1
  Na  Na81  1  0.25261456  0.83278064  0.37530010  1
  Na  Na82  1  0.25210629  0.83262040  0.62489075  1
  Na  Na83  1  0.25158541  0.83328920  0.87454092  1
  Na  Na84  1  0.74700199  0.16809219  0.12457900  1
  Na  Na85  1  0.75173706  0.16626309  0.37573758  1
  Na  Na86  1  0.75232934  0.16570071  0.62493885  1
  Na  Na87  1  0.74858474  0.16685920  0.87563490  1
  Na  Na88  1  0.75062511  0.49912016  0.12608928  1
  Na  Na89  1  0.74992522  0.49938694  0.37564746  1
  Na  Na90  1  0.74847230  0.50002900  0.62398789  1
  Na  Na91  1  0.74956006  0.49937802  0.87418774  1
  Na  Na92  1  0.74961677  0.83342037  0.12462679  1
  Na  Na93  1  0.75071869  0.83374948  0.37594448  1
  Na  Na94  1  0.75073410  0.83354563  0.62471088  1
  Na  Na95  1  0.74807964  0.83420722  0.87406323  1
  Mn  Mn96  1  0.35850176  0.08300401  0.00224788  1
  Mn  Mn97  1  0.39283411  0.91703887  0.87728023  1
  Mn  Mn98  1  0.10867709  0.75038463  0.87228964  1
  Mn  Mn99  1  0.39217805  0.58245736  0.37738014  1
  Mn  Mn100  1  0.64219673  0.24970557  0.49784552  1
  Mn  Mn101  1  0.85731537  0.74952681  0.00180549  1
  Mn  Mn102  1  0.14234768  0.24970005  0.99760322  1
  Mn  Mn103  1  0.10787489  0.74991294  0.12375584  1
  Mn  Mn104  1  0.14196342  0.91682676  0.24816149  1
  Mn  Mn105  1  0.35812769  0.74989770  0.00276242  1
  Mn  Mn106  1  0.10815495  0.08310822  0.12312485  1
  Mn  Mn107  1  0.60888068  0.08468168  0.37337386  1
  Mn  Mn108  1  0.60846419  0.74936863  0.37303211  1
  Mn  Mn109  1  0.14177304  0.58340747  0.24857042  1
  Mn  Mn110  1  0.60685535  0.74928299  0.62244916  1
  Mn  Mn111  1  0.14259783  0.91637217  0.99830239  1
  Mn  Mn112  1  0.89207495  0.58320686  0.12624864  1
  Mn  Mn113  1  0.35834595  0.08338784  0.50270397  1
  Mn  Mn114  1  0.35709358  0.41668496  0.75234093  1
  Mn  Mn115  1  0.60810546  0.74994147  0.12342358  1
  Mn  Mn116  1  0.10676544  0.08358504  0.37264197  1
  Mn  Mn117  1  0.14288751  0.58365359  0.49746031  1
  Mn  Mn118  1  0.60728748  0.08422862  0.62305249  1
  Mn  Mn119  1  0.64155517  0.24975292  0.74730119  1
  Mn  Mn120  1  0.85673116  0.08362286  0.25166106  1
  Mn  Mn121  1  0.89206583  0.91695418  0.87732566  1
  Mn  Mn122  1  0.85645894  0.08394614  0.00168860  1
  Mn  Mn123  1  0.64326646  0.58345661  0.24787741  1
  Mn  Mn124  1  0.10693129  0.74974006  0.37278811  1
  Mn  Mn125  1  0.39167992  0.58348421  0.12745577  1
  Mn  Mn126  1  0.14233884  0.91637493  0.49796229  1
  Mn  Mn127  1  0.60739500  0.41660532  0.87320287  1
  Mn  Mn128  1  0.85802182  0.75002370  0.75232154  1
  Mn  Mn129  1  0.35689986  0.41680308  0.00220633  1
  Mn  Mn130  1  0.89310976  0.58280474  0.87689370  1
  Mn  Mn131  1  0.89300542  0.24986412  0.62781708  1
  Mn  Mn132  1  0.89158720  0.24987291  0.12700480  1
  Mn  Mn133  1  0.14269860  0.25012138  0.49725294  1
  Mn  Mn134  1  0.85801546  0.41618341  0.75176521  1
  Mn  Mn135  1  0.64106465  0.58361021  0.74722145  1
  Mn  Mn136  1  0.14267416  0.91658086  0.74665208  1
  Mn  Mn137  1  0.39307978  0.91751401  0.37739584  1
  Mn  Mn138  1  0.60742915  0.74974209  0.87216630  1
  Mn  Mn139  1  0.89296848  0.25044656  0.87689934  1
  Mn  Mn140  1  0.35887798  0.08378634  0.25234260  1
  Mn  Mn141  1  0.89083371  0.91690925  0.12633888  1
  Mn  Mn142  1  0.89290277  0.58354091  0.62750925  1
  Mn  Mn143  1  0.60782709  0.41669735  0.12310391  1
  Fe  Fe144  1  0.10663971  0.41630453  0.37354412  1
  Fe  Fe145  1  0.64237142  0.58279183  0.99836345  1
  Fe  Fe146  1  0.85686781  0.41687687  0.50199089  1
  Fe  Fe147  1  0.10789990  0.41663708  0.62212435  1
  Fe  Fe148  1  0.85768216  0.41640979  0.25265637  1
  Fe  Fe149  1  0.39178341  0.58275769  0.87714306  1
  Fe  Fe150  1  0.64263216  0.25026875  0.24882247  1
  Fe  Fe151  1  0.39223574  0.25026925  0.62722078  1
  Fe  Fe152  1  0.85761297  0.41656715  0.00109304  1
  Fe  Fe153  1  0.35690600  0.08313916  0.75181742  1
  Fe  Fe154  1  0.39276773  0.25000982  0.37585951  1
  Fe  Fe155  1  0.85735671  0.08341741  0.75230060  1
  Fe  Fe156  1  0.35803790  0.74959943  0.25165161  1
  Fe  Fe157  1  0.10775529  0.41586991  0.87302937  1
  Fe  Fe158  1  0.85773910  0.08338187  0.50213597  1
  Fe  Fe159  1  0.35802807  0.74977070  0.50249236  1
  Fe  Fe160  1  0.39316753  0.24951807  0.12742813  1
  Fe  Fe161  1  0.14238585  0.58380689  0.99793064  1
  Fe  Fe162  1  0.89224191  0.25024961  0.37627146  1
  Fe  Fe163  1  0.64151754  0.91596774  0.99792173  1
  Fe  Fe164  1  0.60700890  0.41608701  0.37335319  1
  Fe  Fe165  1  0.35701202  0.75016112  0.75132346  1
  Fe  Fe166  1  0.39374702  0.91732571  0.12690394  1
  Fe  Fe167  1  0.35656090  0.41694836  0.25156063  1
  Fe  Fe168  1  0.64290244  0.91668759  0.74734658  1
  Fe  Fe169  1  0.14271511  0.25006847  0.24891255  1
  Fe  Fe170  1  0.10785936  0.08364007  0.87251410  1
  Fe  Fe171  1  0.35758453  0.41726792  0.50197377  1
  Fe  Fe172  1  0.39271631  0.58301266  0.62644249  1
  Fe  Fe173  1  0.64187887  0.25114050  0.99808721  1
  Fe  Fe174  1  0.60728444  0.08363888  0.12334846  1
  Fe  Fe175  1  0.89105133  0.91698629  0.37692756  1
  Fe  Fe176  1  0.60635999  0.41663337  0.62309729  1
  Fe  Fe177  1  0.89267030  0.91670419  0.62691422  1
  Fe  Fe178  1  0.39238575  0.25031645  0.87691149  1
  Fe  Fe179  1  0.60684905  0.08401857  0.87232977  1
  Fe  Fe180  1  0.89211308  0.58239595  0.37739229  1
  Fe  Fe181  1  0.64360761  0.91615344  0.49919458  1
  Fe  Fe182  1  0.39310433  0.91705908  0.62690771  1
  Fe  Fe183  1  0.10782443  0.75070125  0.62257652  1
  Fe  Fe184  1  0.10709216  0.41667891  0.12357227  1
  Fe  Fe185  1  0.10709206  0.08266482  0.62305131  1
  Fe  Fe186  1  0.14344077  0.24968397  0.74824256  1
  Fe  Fe187  1  0.85719885  0.74970350  0.50227745  1
  Fe  Fe188  1  0.85745455  0.74986089  0.25177210  1
  Fe  Fe189  1  0.14366440  0.58351493  0.74763368  1
  Fe  Fe190  1  0.64274142  0.58361537  0.49834518  1
  Fe  Fe191  1  0.64309933  0.91660388  0.24841976  1
  P  P192  1  0.05455597  0.25071984  0.11147402  1
  P  P193  1  0.05242553  0.25097150  0.35985788  1
  P  P194  1  0.05557691  0.24954158  0.61127079  1
  P  P195  1  0.05460660  0.24984655  0.85911231  1
  P  P196  1  0.05410549  0.58250819  0.10981665  1
  P  P197  1  0.05156433  0.58233133  0.36066812  1
  P  P198  1  0.05562028  0.58377588  0.61090482  1
  P  P199  1  0.05594257  0.58240139  0.86005033  1
  P  P200  1  0.05259886  0.91643806  0.10997301  1
  P  P201  1  0.05108377  0.91651882  0.36036025  1
  P  P202  1  0.05226668  0.91685344  0.60966488  1
  P  P203  1  0.05382380  0.91758940  0.85936863  1
  P  P204  1  0.55408167  0.24997810  0.11097117  1
  P  P205  1  0.55291590  0.25123460  0.35962240  1
  P  P206  1  0.55145238  0.25068325  0.61003131  1
  P  P207  1  0.55295471  0.25004632  0.86107208  1
  P  P208  1  0.55372918  0.58326037  0.10965158  1
  P  P209  1  0.55499129  0.58235057  0.36124889  1
  P  P210  1  0.55219138  0.58255957  0.60893474  1
  P  P211  1  0.55249684  0.58295867  0.86072011  1
  P  P212  1  0.55431235  0.91693120  0.11094018  1
  P  P213  1  0.55633683  0.91663699  0.36112736  1
  P  P214  1  0.55393322  0.91671914  0.61063806  1
  P  P215  1  0.55553792  0.91726122  0.85997514  1
  P  P216  1  0.44849893  0.08326205  0.13982694  1
  P  P217  1  0.44756241  0.08440789  0.39013990  1
  P  P218  1  0.44587316  0.08338928  0.64085726  1
  P  P219  1  0.44662019  0.08399293  0.88885673  1
  P  P220  1  0.44559744  0.41627807  0.14068537  1
  P  P221  1  0.44546608  0.41566913  0.38900865  1
  P  P222  1  0.44607044  0.41701143  0.63865201  1
  P  P223  1  0.44578341  0.41673706  0.89007550  1
  P  P224  1  0.44668903  0.75081040  0.14094335  1
  P  P225  1  0.44516326  0.74983166  0.38983587  1
  P  P226  1  0.44462578  0.74990155  0.63917151  1
  P  P227  1  0.44495229  0.74916034  0.88858103  1
  P  P228  1  0.94628535  0.08352940  0.13984290  1
  P  P229  1  0.94509445  0.08402003  0.39036025  1
  P  P230  1  0.94573532  0.08247316  0.63953984  1
  P  P231  1  0.94695347  0.08390655  0.88898188  1
  P  P232  1  0.94559979  0.41657313  0.13937170  1
  P  P233  1  0.94555880  0.41617359  0.38971139  1
  P  P234  1  0.94740381  0.41684178  0.63892800  1
  P  P235  1  0.94814514  0.41644134  0.89026821  1
  P  P236  1  0.94576715  0.74987570  0.14058872  1
  P  P237  1  0.94382386  0.74959769  0.38961534  1
  P  P238  1  0.94682674  0.75066755  0.63883136  1
  P  P239  1  0.94730787  0.74976172  0.88997189  1
  P  P240  1  0.19705681  0.08457816  0.23555354  1
  P  P241  1  0.19574391  0.08305722  0.48578158  1
  P  P242  1  0.19622903  0.08426761  0.73507852  1
  P  P243  1  0.19658064  0.08316526  0.98391513  1
  P  P244  1  0.19529309  0.41560268  0.23609387  1
  P  P245  1  0.19636137  0.41676647  0.48522330  1
  P  P246  1  0.19484167  0.41614559  0.73573052  1
  P  P247  1  0.19453300  0.41711040  0.98565374  1
  P  P248  1  0.19824106  0.74997945  0.23561513  1
  P  P249  1  0.19716845  0.75029406  0.48588888  1
  P  P250  1  0.19749375  0.74944879  0.73398932  1
  P  P251  1  0.19704186  0.74974495  0.98504688  1
  P  P252  1  0.69553772  0.08390899  0.23477388  1
  P  P253  1  0.69823395  0.08258906  0.48592777  1
  P  P254  1  0.69642597  0.08305535  0.73574419  1
  P  P255  1  0.69328847  0.08396108  0.98555176  1
  P  P256  1  0.69682973  0.41566344  0.23693154  1
  P  P257  1  0.69507771  0.41723326  0.48585886  1
  P  P258  1  0.69549743  0.41644662  0.73352710  1
  P  P259  1  0.69751634  0.41677957  0.98521173  1
  P  P260  1  0.69848807  0.75053947  0.23556543  1
  P  P261  1  0.69775963  0.74979412  0.48567657  1
  P  P262  1  0.69649578  0.75057601  0.73428230  1
  P  P263  1  0.69602504  0.74925062  0.98484431  1
  P  P264  1  0.30534837  0.24971433  0.01473970  1
  P  P265  1  0.30417144  0.25088582  0.26443656  1
  P  P266  1  0.30566522  0.25127370  0.51429585  1
  P  P267  1  0.30418735  0.24939393  0.76427764  1
  P  P268  1  0.30259174  0.58288185  0.01411530  1
  P  P269  1  0.30313718  0.58280374  0.26513298  1
  P  P270  1  0.30440112  0.58266830  0.51567518  1
  P  P271  1  0.30417661  0.58374350  0.76398549  1
  P  P272  1  0.30451197  0.91711916  0.01606701  1
  P  P273  1  0.30518486  0.91647066  0.26418206  1
  P  P274  1  0.30450267  0.91633309  0.51588196  1
  P  P275  1  0.30502950  0.91682784  0.76339454  1
  P  P276  1  0.80170327  0.25091278  0.01448963  1
  P  P277  1  0.80247279  0.25066205  0.26570410  1
  P  P278  1  0.80503333  0.25043696  0.51391822  1
  P  P279  1  0.80323695  0.24923903  0.76505250  1
  P  P280  1  0.80198672  0.58193621  0.01449096  1
  P  P281  1  0.80459203  0.58273784  0.26570367  1
  P  P282  1  0.80376483  0.58268938  0.51390342  1
  P  P283  1  0.80305147  0.58282554  0.76481166  1
  P  P284  1  0.80082353  0.91716661  0.01418859  1
  P  P285  1  0.80241605  0.91650926  0.26524676  1
  P  P286  1  0.80455389  0.91665998  0.51472592  1
  P  P287  1  0.80360487  0.91764288  0.76389996  1
  O  O288  1  0.05850162  0.25014259  0.18816791  1
  O  O289  1  0.05628795  0.25037838  0.43660344  1
  O  O290  1  0.05959265  0.24966110  0.68796524  1
  O  O291  1  0.05679460  0.24959243  0.93600832  1
  O  O292  1  0.05651267  0.58317973  0.18666513  1
  O  O293  1  0.05584859  0.58314581  0.43733081  1
  O  O294  1  0.05982527  0.58391935  0.68767165  1
  O  O295  1  0.05927209  0.58354385  0.93689155  1
  O  O296  1  0.05571088  0.91638366  0.18678902  1
  O  O297  1  0.05557411  0.91637590  0.43699601  1
  O  O298  1  0.05627661  0.91684168  0.68635481  1
  O  O299  1  0.05688172  0.91689947  0.93611879  1
  O  O300  1  0.55897951  0.25103196  0.18764088  1
  O  O301  1  0.55649684  0.25060458  0.43634290  1
  O  O302  1  0.55522031  0.25004189  0.68673844  1
  O  O303  1  0.55772279  0.25087474  0.93775444  1
  O  O304  1  0.55741770  0.58300875  0.18647469  1
  O  O305  1  0.55928567  0.58353050  0.43797870  1
  O  O306  1  0.55539446  0.58340525  0.68572781  1
  O  O307  1  0.55799775  0.58306103  0.93734171  1
  O  O308  1  0.55913565  0.91580913  0.18769895  1
  O  O309  1  0.56078582  0.91632631  0.43793059  1
  O  O310  1  0.55874907  0.91651318  0.68735967  1
  O  O311  1  0.55918701  0.91618689  0.93688029  1
  O  O312  1  0.44520055  0.08321886  0.06315132  1
  O  O313  1  0.44494472  0.08345568  0.31334967  1
  O  O314  1  0.44375635  0.08318990  0.56405502  1
  O  O315  1  0.44132877  0.08336279  0.81224326  1
  O  O316  1  0.44249364  0.41722876  0.06393202  1
  O  O317  1  0.44068639  0.41677471  0.31237039  1
  O  O318  1  0.44201849  0.41700852  0.56197043  1
  O  O319  1  0.44297558  0.41685680  0.81323814  1
  O  O320  1  0.44397899  0.75003278  0.06406565  1
  O  O321  1  0.44097376  0.74962673  0.31305567  1
  O  O322  1  0.44152118  0.75007391  0.56227533  1
  O  O323  1  0.44077418  0.74960848  0.81179969  1
  O  O324  1  0.94287709  0.08382183  0.06304329  1
  O  O325  1  0.94225030  0.08390369  0.31357196  1
  O  O326  1  0.94081966  0.08328259  0.56281031  1
  O  O327  1  0.94171276  0.08377477  0.81230566  1
  O  O328  1  0.94071582  0.41632905  0.06265609  1
  O  O329  1  0.94133021  0.41626876  0.31291533  1
  O  O330  1  0.94163592  0.41682331  0.56233537  1
  O  O331  1  0.94417995  0.41656037  0.81355186  1
  O  O332  1  0.94287896  0.74983563  0.06374670  1
  O  O333  1  0.93996723  0.74982766  0.31277732  1
  O  O334  1  0.94130526  0.74971529  0.56216750  1
  O  O335  1  0.94402042  0.74969685  0.81314713  1
  O  O336  1  0.19343342  0.08350532  0.06073496  1
  O  O337  1  0.19359889  0.08394574  0.31235702  1
  O  O338  1  0.19110810  0.08285413  0.56254356  1
  O  O339  1  0.19165692  0.08341106  0.81178225  1
  O  O340  1  0.19100270  0.41619120  0.06246125  1
  O  O341  1  0.19060762  0.41623945  0.31283829  1
  O  O342  1  0.19143138  0.41649381  0.56196124  1
  O  O343  1  0.19156790  0.41587484  0.81254634  1
  O  O344  1  0.19394996  0.75035507  0.06181301  1
  O  O345  1  0.19399904  0.75007818  0.31234680  1
  O  O346  1  0.19164048  0.75059514  0.56251294  1
  O  O347  1  0.19400658  0.75040823  0.81071814  1
  O  O348  1  0.68972118  0.08395722  0.06244591  1
  O  O349  1  0.69391479  0.08418956  0.31163086  1
  O  O350  1  0.69418520  0.08349189  0.56258126  1
  O  O351  1  0.69116906  0.08421790  0.81239957  1
  O  O352  1  0.69409283  0.41662967  0.06193330  1
  O  O353  1  0.69177887  0.41596390  0.31354079  1
  O  O354  1  0.68987356  0.41641770  0.56252641  1
  O  O355  1  0.69210197  0.41633185  0.81031770  1
  O  O356  1  0.69365218  0.74939889  0.06165328  1
  O  O357  1  0.69498708  0.74994140  0.31223364  1
  O  O358  1  0.69370051  0.74955291  0.56231412  1
  O  O359  1  0.69321585  0.74970244  0.81103965  1
  O  O360  1  0.30896858  0.24973876  0.18770545  1
  O  O361  1  0.30960579  0.25047700  0.43752473  1
  O  O362  1  0.30872261  0.25026906  0.68751662  1
  O  O363  1  0.30956052  0.24964144  0.93790106  1
  O  O364  1  0.30548792  0.58257156  0.18834818  1
  O  O365  1  0.30696526  0.58233899  0.43885642  1
  O  O366  1  0.30894337  0.58267837  0.68732248  1
  O  O367  1  0.30737556  0.58264140  0.93740284  1
  O  O368  1  0.30968870  0.91754954  0.18745913  1
  O  O369  1  0.30744477  0.91729222  0.43905548  1
  O  O370  1  0.30898262  0.91717206  0.68670061  1
  O  O371  1  0.30760061  0.91743406  0.93921950  1
  O  O372  1  0.80577328  0.25038492  0.18895718  1
  O  O373  1  0.80867367  0.25056535  0.43717979  1
  O  O374  1  0.80690003  0.24986339  0.68825263  1
  O  O375  1  0.80589801  0.25024456  0.93784491  1
  O  O376  1  0.80700600  0.58245812  0.18889930  1
  O  O377  1  0.80832725  0.58236551  0.43722947  1
  O  O378  1  0.80674392  0.58277089  0.68800747  1
  O  O379  1  0.80580817  0.58228962  0.93781461  1
  O  O380  1  0.80537425  0.91712326  0.18849019  1
  O  O381  1  0.80843391  0.91702255  0.43794098  1
  O  O382  1  0.80872343  0.91690317  0.68720773  1
  O  O383  1  0.80494414  0.91750357  0.93750136  1
  O  O384  1  0.23516390  0.25004382  0.03835760  1
  O  O385  1  0.23388746  0.25068375  0.28840906  1
  O  O386  1  0.23556215  0.25029524  0.53832947  1
  O  O387  1  0.23380456  0.24981062  0.78786381  1
  O  O388  1  0.23238131  0.58323257  0.03803215  1
  O  O389  1  0.23371767  0.58320664  0.29126469  1
  O  O390  1  0.23476651  0.58318495  0.54091505  1
  O  O391  1  0.23365945  0.58309523  0.78729009  1
  O  O392  1  0.23484713  0.91687515  0.04109346  1
  O  O393  1  0.23521826  0.91663010  0.28872585  1
  O  O394  1  0.23478204  0.91658196  0.54101064  1
  O  O395  1  0.23504607  0.91651739  0.78778506  1
  O  O396  1  0.73159568  0.25099602  0.03891665  1
  O  O397  1  0.73250463  0.24997936  0.29067403  1
  O  O398  1  0.73507026  0.25013567  0.53860145  1
  O  O399  1  0.73343879  0.24979972  0.78973364  1
  O  O400  1  0.73217019  0.58246963  0.03979873  1
  O  O401  1  0.73494086  0.58307887  0.29121133  1
  O  O402  1  0.73337424  0.58285455  0.53770501  1
  O  O403  1  0.73317218  0.58274219  0.78926700  1
  O  O404  1  0.73065487  0.91672456  0.03839903  1
  O  O405  1  0.73242768  0.91712993  0.29021694  1
  O  O406  1  0.73418530  0.91638301  0.53879532  1
  O  O407  1  0.73317884  0.91737632  0.78728024  1
  O  O408  1  0.26676904  0.08443659  0.21045581  1
  O  O409  1  0.26588737  0.08360111  0.46207221  1
  O  O410  1  0.26670682  0.08375053  0.71159285  1
  O  O411  1  0.26633746  0.08324500  0.95901686  1
  O  O412  1  0.26565436  0.41630219  0.21227364  1
  O  O413  1  0.26684119  0.41690842  0.46211308  1
  O  O414  1  0.26489924  0.41642212  0.71118802  1
  O  O415  1  0.26442038  0.41625053  0.96091638  1
  O  O416  1  0.26830673  0.74959675  0.21117533  1
  O  O417  1  0.26778317  0.74986762  0.46317294  1
  O  O418  1  0.26772190  0.74986841  0.70989912  1
  O  O419  1  0.26665498  0.74965013  0.95965580  1
  O  O420  1  0.76489095  0.08378775  0.20845474  1
  O  O421  1  0.76830243  0.08288388  0.46148298  1
  O  O422  1  0.76676908  0.08294937  0.71218997  1
  O  O423  1  0.76329205  0.08356348  0.96097763  1
  O  O424  1  0.76724266  0.41635201  0.21336845  1
  O  O425  1  0.76568499  0.41675784  0.46288918  1
  O  O426  1  0.76535510  0.41650047  0.70884956  1
  O  O427  1  0.76738383  0.41644208  0.95993413  1
  O  O428  1  0.76842529  0.75004157  0.21059272  1
  O  O429  1  0.76792347  0.75018902  0.46142118  1
  O  O430  1  0.76617533  0.74999531  0.70918501  1
  O  O431  1  0.76545579  0.74984612  0.95874503  1
  O  O432  1  0.01587098  0.08333042  0.16512261  1
  O  O433  1  0.01482793  0.08378525  0.41569651  1
  O  O434  1  0.01630548  0.08316909  0.66263582  1
  O  O435  1  0.01737874  0.08400086  0.91227559  1
  O  O436  1  0.01604975  0.41687756  0.16280496  1
  O  O437  1  0.01593490  0.41612219  0.41372993  1
  O  O438  1  0.01799623  0.41683380  0.66168763  1
  O  O439  1  0.01834430  0.41600567  0.91428638  1
  O  O440  1  0.01535088  0.74951419  0.16609680  1
  O  O441  1  0.01391292  0.74975792  0.41396388  1
  O  O442  1  0.01729760  0.75057681  0.66212471  1
  O  O443  1  0.01703283  0.74997007  0.91481394  1
  O  O444  1  0.51848698  0.08360035  0.16481217  1
  O  O445  1  0.51706174  0.08451943  0.41589829  1
  O  O446  1  0.51543532  0.08391800  0.66660358  1
  O  O447  1  0.51699073  0.08365091  0.91236111  1
  O  O448  1  0.51542331  0.41645060  0.16552686  1
  O  O449  1  0.51588076  0.41618757  0.41261415  1
  O  O450  1  0.51620597  0.41680591  0.66322021  1
  O  O451  1  0.51528001  0.41648617  0.91571748  1
  O  O452  1  0.51630758  0.74983655  0.16642481  1
  O  O453  1  0.51530402  0.75000111  0.41371052  1
  O  O454  1  0.51452349  0.74936369  0.66401589  1
  O  O455  1  0.51491815  0.75026830  0.91287086  1
  O  O456  1  0.48355697  0.25011795  0.08760489  1
  O  O457  1  0.48287876  0.25041421  0.33505813  1
  O  O458  1  0.48135526  0.25044404  0.58570708  1
  O  O459  1  0.48262119  0.25050711  0.83725202  1
  O  O460  1  0.48381687  0.58357834  0.08525216  1
  O  O461  1  0.48490186  0.58228195  0.33724624  1
  O  O462  1  0.48215228  0.58310293  0.58430604  1
  O  O463  1  0.48214716  0.58257289  0.83715596  1
  O  O464  1  0.48399989  0.91690901  0.08694416  1
  O  O465  1  0.48614941  0.91691410  0.33752894  1
  O  O466  1  0.48347259  0.91683803  0.58730970  1
  O  O467  1  0.48543349  0.91657148  0.83605337  1
  O  O468  1  0.98467336  0.25033776  0.08669394  1
  O  O469  1  0.98226209  0.25067022  0.33556229  1
  O  O470  1  0.98550022  0.24959868  0.58709615  1
  O  O471  1  0.98512695  0.25027710  0.83322882  1
  O  O472  1  0.98452786  0.58273591  0.08423330  1
  O  O473  1  0.98143626  0.58224916  0.33646168  1
  O  O474  1  0.98557764  0.58325953  0.58668311  1
  O  O475  1  0.98609556  0.58300376  0.83510830  1
  O  O476  1  0.98304937  0.91689619  0.08441196  1
  O  O477  1  0.98070991  0.91668604  0.33671216  1
  O  O478  1  0.98215466  0.91688044  0.58528578  1
  O  O479  1  0.98416133  0.91710859  0.83405793  1
  O  O480  1  0.08807801  0.31603253  0.07878070  1
  O  O481  1  0.08630186  0.31610665  0.32730948  1
  O  O482  1  0.08902694  0.31465307  0.57803074  1
  O  O483  1  0.08940835  0.31486625  0.82731591  1
  O  O484  1  0.08868510  0.64739209  0.07735614  1
  O  O485  1  0.08511154  0.64741181  0.32752560  1
  O  O486  1  0.08867522  0.64910801  0.57768811  1
  O  O487  1  0.09039111  0.64699771  0.82677353  1
  O  O488  1  0.08719049  0.98133346  0.07778929  1
  O  O489  1  0.08471534  0.98159195  0.32746488  1
  O  O490  1  0.08592903  0.98208233  0.57701751  1
  O  O491  1  0.08776688  0.98284787  0.82707998  1
  O  O492  1  0.58727450  0.31493360  0.07701756  1
  O  O493  1  0.58649522  0.31642717  0.32682848  1
  O  O494  1  0.58520915  0.31562682  0.57729060  1
  O  O495  1  0.58641833  0.31486960  0.82753852  1
  O  O496  1  0.58799630  0.64813786  0.07711622  1
  O  O497  1  0.58824833  0.64738537  0.32776820  1
  O  O498  1  0.58660414  0.64735602  0.57606696  1
  O  O499  1  0.58538216  0.64806181  0.82689600  1
  O  O500  1  0.58771442  0.98215314  0.07815905  1
  O  O501  1  0.58991945  0.98168305  0.32813956  1
  O  O502  1  0.58746161  0.98173533  0.57748718  1
  O  O503  1  0.58878374  0.98272971  0.82744587  1
  O  O504  1  0.41491877  0.01820072  0.17271303  1
  O  O505  1  0.41343588  0.01946504  0.42282142  1
  O  O506  1  0.41181602  0.01813958  0.67314553  1
  O  O507  1  0.41364649  0.01889966  0.92257667  1
  O  O508  1  0.41148040  0.35105139  0.17276866  1
  O  O509  1  0.41231985  0.35042797  0.42200496  1
  O  O510  1  0.41233332  0.35208035  0.67188320  1
  O  O511  1  0.41143228  0.35163461  0.92207556  1
  O  O512  1  0.41176581  0.68605010  0.17332874  1
  O  O513  1  0.41151572  0.68475218  0.42287309  1
  O  O514  1  0.41046872  0.68482103  0.67162001  1
  O  O515  1  0.41195882  0.68371772  0.92157262  1
  O  O516  1  0.91185120  0.01854746  0.17201460  1
  O  O517  1  0.91069995  0.01898773  0.42274219  1
  O  O518  1  0.91278199  0.01718203  0.67270180  1
  O  O519  1  0.91359336  0.01893006  0.92243781  1
  O  O520  1  0.91234873  0.35162137  0.17307591  1
  O  O521  1  0.91200474  0.35108669  0.42273749  1
  O  O522  1  0.91457617  0.35175002  0.67266886  1
  O  O523  1  0.91415480  0.35155609  0.92324765  1
  O  O524  1  0.91121518  0.68489946  0.17273528  1
  O  O525  1  0.91037571  0.68431711  0.42260193  1
  O  O526  1  0.91380775  0.68568333  0.67265256  1
  O  O527  1  0.91349171  0.68452970  0.92239067  1
  O  O528  1  0.16302487  0.01945922  0.20301326  1
  O  O529  1  0.16259516  0.01793829  0.45246953  1
  O  O530  1  0.16258139  0.01946883  0.70132487  1
  O  O531  1  0.16235637  0.01815906  0.95153223  1
  O  O532  1  0.16222253  0.35035526  0.20287916  1
  O  O533  1  0.16305665  0.35186162  0.45156743  1
  O  O534  1  0.16143320  0.35103924  0.70259074  1
  O  O535  1  0.16042031  0.35233471  0.95238910  1
  O  O536  1  0.16430128  0.68487450  0.20309592  1
  O  O537  1  0.16402743  0.68522160  0.45237632  1
  O  O538  1  0.16392096  0.68422736  0.70150480  1
  O  O539  1  0.16275743  0.68467281  0.95287591  1
  O  O540  1  0.66086368  0.01877554  0.20303178  1
  O  O541  1  0.66452846  0.01750529  0.45351049  1
  O  O542  1  0.66300080  0.01794217  0.70274680  1
  O  O543  1  0.65923829  0.01905702  0.95276507  1
  O  O544  1  0.66388445  0.35046349  0.20348088  1
  O  O545  1  0.66172106  0.35231231  0.45207599  1
  O  O546  1  0.66132233  0.35142303  0.70090693  1
  O  O547  1  0.66320643  0.35184294  0.95257495  1
  O  O548  1  0.66445301  0.68562210  0.20276189  1
  O  O549  1  0.66434112  0.68468123  0.45252232  1
  O  O550  1  0.66205703  0.68566242  0.70174693  1
  O  O551  1  0.66208413  0.68375239  0.95280251  1
  O  O552  1  0.33897126  0.31457770  0.04796749  1
  O  O553  1  0.33752650  0.31618726  0.29729177  1
  O  O554  1  0.33859749  0.31678280  0.54724651  1
  O  O555  1  0.33761712  0.31432525  0.79792166  1
  O  O556  1  0.33632714  0.64776280  0.04726851  1
  O  O557  1  0.33802413  0.64764418  0.29705229  1
  O  O558  1  0.33906335  0.64758948  0.54772428  1
  O  O559  1  0.33713012  0.64904306  0.79707469  1
  O  O560  1  0.33870677  0.98212227  0.04869350  1
  O  O561  1  0.33881503  0.98149258  0.29759529  1
  O  O562  1  0.33892787  0.98119231  0.54855966  1
  O  O563  1  0.33831396  0.98203600  0.79670548  1
  O  O564  1  0.83575914  0.31586956  0.04709355  1
  O  O565  1  0.83655408  0.31559576  0.29843745  1
  O  O566  1  0.83851683  0.31572681  0.54684699  1
  O  O567  1  0.83734843  0.31435218  0.79750944  1
  O  O568  1  0.83619054  0.64697823  0.04704267  1
  O  O569  1  0.83905449  0.64776358  0.29774663  1
  O  O570  1  0.83711425  0.64787066  0.54701442  1
  O  O571  1  0.83696627  0.64792242  0.79731219  1
  O  O572  1  0.83411200  0.98227016  0.04732660  1
  O  O573  1  0.83664925  0.98143425  0.29803501  1
  O  O574  1  0.83795244  0.98167526  0.54804442  1
  O  O575  1  0.83663084  0.98285365  0.79723374  1
  O  O576  1  0.41442978  0.14832420  0.17241377  1
  O  O577  1  0.41298748  0.14956127  0.42167262  1
  O  O578  1  0.41103950  0.14836059  0.67276981  1
  O  O579  1  0.41356210  0.14911595  0.92216790  1
  O  O580  1  0.41130914  0.48107866  0.17362158  1
  O  O581  1  0.41184986  0.48035720  0.42300118  1
  O  O582  1  0.41274969  0.48223378  0.67176838  1
  O  O583  1  0.41157492  0.48187674  0.92235050  1
  O  O584  1  0.41289908  0.81620393  0.17295410  1
  O  O585  1  0.41148652  0.81476442  0.42295949  1
  O  O586  1  0.41112881  0.81512033  0.67205514  1
  O  O587  1  0.41111108  0.81406257  0.92166483  1
  O  O588  1  0.91226752  0.14861355  0.17239002  1
  O  O589  1  0.91124042  0.14932682  0.42274173  1
  O  O590  1  0.91216840  0.14721104  0.67332493  1
  O  O591  1  0.91375892  0.14901099  0.92241866  1
  O  O592  1  0.91216236  0.48152936  0.17267099  1
  O  O593  1  0.91203628  0.48115891  0.42315953  1
  O  O594  1  0.91452854  0.48180167  0.67272612  1
  O  O595  1  0.91459752  0.48152500  0.92333631  1
  O  O596  1  0.91135471  0.81493306  0.17280653  1
  O  O597  1  0.90995373  0.81463314  0.42249591  1
  O  O598  1  0.91361544  0.81591432  0.67185279  1
  O  O599  1  0.91303362  0.81479270  0.92223089  1
  O  O600  1  0.08852070  0.18594862  0.07815810  1
  O  O601  1  0.08659014  0.18618165  0.32687025  1
  O  O602  1  0.08882391  0.18425731  0.57825998  1
  O  O603  1  0.08899714  0.18481414  0.82678961  1
  O  O604  1  0.08840488  0.51728784  0.07796524  1
  O  O605  1  0.08536011  0.51719139  0.32818480  1
  O  O606  1  0.08935905  0.51865569  0.57804691  1
  O  O607  1  0.08954618  0.51687724  0.82791302  1
  O  O608  1  0.08659768  0.85115133  0.07778077  1
  O  O609  1  0.08461336  0.85147079  0.32730693  1
  O  O610  1  0.08602123  0.85176194  0.57680025  1
  O  O611  1  0.08818092  0.85265807  0.82668988  1
  O  O612  1  0.58732403  0.18487740  0.07789589  1
  O  O613  1  0.58747892  0.18652468  0.32694412  1
  O  O614  1  0.58527567  0.18563076  0.57707759  1
  O  O615  1  0.58595806  0.18475128  0.82777472  1
  O  O616  1  0.58759142  0.51814280  0.07685930  1
  O  O617  1  0.58839178  0.51704199  0.32863592  1
  O  O618  1  0.58611901  0.51740947  0.57667135  1
  O  O619  1  0.58590661  0.51797075  0.82736633  1
  O  O620  1  0.58761030  0.85197460  0.07714138  1
  O  O621  1  0.58961571  0.85164445  0.32753977  1
  O  O622  1  0.58719205  0.85173400  0.57703367  1
  O  O623  1  0.58951906  0.85263069  0.82650651  1
  O  O624  1  0.33879524  0.18467102  0.04801491  1
  O  O625  1  0.33801904  0.18624150  0.29820923  1
  O  O626  1  0.33980324  0.18666229  0.54774938  1
  O  O627  1  0.33755098  0.18425358  0.79732072  1
  O  O628  1  0.33566385  0.51785485  0.04766061  1
  O  O629  1  0.33713815  0.51743264  0.29735237  1
  O  O630  1  0.33830761  0.51745512  0.54823171  1
  O  O631  1  0.33753790  0.51888628  0.79790874  1
  O  O632  1  0.33910226  0.85223810  0.04827707  1
  O  O633  1  0.33880693  0.85119812  0.29670726  1
  O  O634  1  0.33880456  0.85121074  0.54786734  1
  O  O635  1  0.33869907  0.85163001  0.79609249  1
  O  O636  1  0.83510538  0.18573946  0.04766510  1
  O  O637  1  0.83693023  0.18575303  0.29815584  1
  O  O638  1  0.83884715  0.18533553  0.54666492  1
  O  O639  1  0.83696396  0.18401144  0.79747905  1
  O  O640  1  0.83587348  0.51682992  0.04710183  1
  O  O641  1  0.83865467  0.51761190  0.29830387  1
  O  O642  1  0.83702396  0.51758324  0.54726525  1
  O  O643  1  0.83707897  0.51775719  0.79731504  1
  O  O644  1  0.83477922  0.85212657  0.04671041  1
  O  O645  1  0.83634221  0.85146918  0.29778313  1
  O  O646  1  0.83812927  0.85149279  0.54765393  1
  O  O647  1  0.83676154  0.85254651  0.79737553  1
  O  O648  1  0.16309885  0.14984066  0.20337541  1
  O  O649  1  0.16215019  0.14809829  0.45273289  1
  O  O650  1  0.16317306  0.14949158  0.70195867  1
  O  O651  1  0.16233180  0.14817267  0.95130548  1
  O  O652  1  0.16143288  0.48042894  0.20274653  1
  O  O653  1  0.16284790  0.48169187  0.45190455  1
  O  O654  1  0.16111893  0.48130578  0.70296349  1
  O  O655  1  0.16112127  0.48241880  0.95307956  1
  O  O656  1  0.16459972  0.81500701  0.20268229  1
  O  O657  1  0.16431369  0.81528026  0.45205858  1
  O  O658  1  0.16348717  0.81425362  0.70071806  1
  O  O659  1  0.16328232  0.81492694  0.95227709  1
  O  O660  1  0.66097523  0.14903567  0.20284795  1
  O  O661  1  0.66447919  0.14766482  0.45287838  1
  O  O662  1  0.66331208  0.14806200  0.70186818  1
  O  O663  1  0.65990060  0.14941746  0.95279810  1
  O  O664  1  0.66335595  0.48050489  0.20328465  1
  O  O665  1  0.66204245  0.48238064  0.45254808  1
  O  O666  1  0.66111375  0.48139954  0.70108097  1
  O  O667  1  0.66356788  0.48196172  0.95268821  1
  O  O668  1  0.66470155  0.81573096  0.20312575  1
  O  O669  1  0.66401771  0.81492405  0.45308478  1
  O  O670  1  0.66271347  0.81593898  0.70215264  1
  O  O671  1  0.66128629  0.81418606  0.95283314  1
