# generated using pymatgen
data_Na2MnFe(PO4)2
_symmetry_space_group_name_H-M   'P 1'
_cell_length_a   21.07194402
_cell_length_b   18.92227565
_cell_length_c   20.03211042
_cell_angle_alpha   89.99949755
_cell_angle_beta   89.99701397
_cell_angle_gamma   90.00112655
_symmetry_Int_Tables_number   1
_chemical_formula_structural   Na2MnFe(PO4)2
_chemical_formula_sum   'Na96 Mn48 Fe48 P96 O384'
_cell_volume   7987.38601102
_cell_formula_units_Z   48
loop_
 _symmetry_equiv_pos_site_id
 _symmetry_equiv_pos_as_xyz
  1  'x, y, z'
loop_
 _atom_site_type_symbol
 _atom_site_label
 _atom_site_symmetry_multiplicity
 _atom_site_fract_x
 _atom_site_fract_y
 _atom_site_fract_z
 _atom_site_occupancy
  Na  Na0  1  -0.00029932  0.00018798  0.00019082  1
  Na  Na1  1  -0.00171313  -0.00073889  0.25057511  1
  Na  Na2  1  -0.00041554  0.00057055  0.50026806  1
  Na  Na3  1  -0.00054655  -0.00012641  0.74882632  1
  Na  Na4  1  0.00255017  0.33365127  0.00063872  1
  Na  Na5  1  0.00135402  0.33331693  0.24982644  1
  Na  Na6  1  0.00174145  0.33397855  0.49888464  1
  Na  Na7  1  0.00105526  0.33274865  0.75106190  1
  Na  Na8  1  -0.00133512  0.66744101  -0.00112431  1
  Na  Na9  1  -0.00002530  0.66728673  0.25025246  1
  Na  Na10  1  -0.00006883  0.66680014  0.50110066  1
  Na  Na11  1  -0.00054944  0.66703451  0.74945065  1
  Na  Na12  1  0.50036707  0.00029059  0.00066715  1
  Na  Na13  1  0.49828242  -0.00008770  0.24911173  1
  Na  Na14  1  0.49814141  -0.00064638  0.50038598  1
  Na  Na15  1  0.49989541  -0.00057636  0.74988687  1
  Na  Na16  1  0.49972813  0.33299319  0.00039160  1
  Na  Na17  1  0.50125317  0.33316716  0.25005449  1
  Na  Na18  1  0.49959826  0.33306001  0.50021438  1
  Na  Na19  1  0.49896330  0.33298908  0.75021301  1
  Na  Na20  1  0.49812584  0.66636259  0.00087933  1
  Na  Na21  1  0.50050473  0.66717190  0.24900372  1
  Na  Na22  1  0.49961569  0.66671058  0.49933913  1
  Na  Na23  1  0.49839732  0.66629129  0.75059812  1
  Na  Na24  1  0.25039668  0.00032601  0.12456517  1
  Na  Na25  1  0.25193335  0.00080210  0.37485168  1
  Na  Na26  1  0.25207855  -0.00010938  0.62561410  1
  Na  Na27  1  0.25128167  0.00035230  0.87459760  1
  Na  Na28  1  0.24699665  0.33207779  0.12440939  1
  Na  Na29  1  0.24743863  0.33274789  0.37578739  1
  Na  Na30  1  0.25191670  0.33425434  0.62541853  1
  Na  Na31  1  0.25019348  0.33284080  0.87437768  1
  Na  Na32  1  0.24974906  0.66784764  0.12443627  1
  Na  Na33  1  0.24880976  0.66713735  0.37474797  1
  Na  Na34  1  0.25067705  0.66678705  0.62600990  1
  Na  Na35  1  0.25139342  0.66740059  0.87480673  1
  Na  Na36  1  0.75142814  0.00033618  0.12532478  1
  Na  Na37  1  0.75214916  0.00071244  0.37419458  1
  Na  Na38  1  0.74972430  0.00027727  0.62490517  1
  Na  Na39  1  0.74764613  -0.00142751  0.87496284  1
  Na  Na40  1  0.75094833  0.33343663  0.12487665  1
  Na  Na41  1  0.75044545  0.33312940  0.37661214  1
  Na  Na42  1  0.74832219  0.33278250  0.62489864  1
  Na  Na43  1  0.74881566  0.33305150  0.87398515  1
  Na  Na44  1  0.75165750  0.66693809  0.12552061  1
  Na  Na45  1  0.75086274  0.66631157  0.37551485  1
  Na  Na46  1  0.75013445  0.66746897  0.62392543  1
  Na  Na47  1  0.75028043  0.66737197  0.87483449  1
  Na  Na48  1  0.00155094  0.16613913  0.00031714  1
  Na  Na49  1  0.00235302  0.16520176  0.25005928  1
  Na  Na50  1  -0.00096854  0.16690602  0.49958063  1
  Na  Na51  1  0.00098057  0.16610554  0.75024103  1
  Na  Na52  1  -0.00063748  0.50038942  -0.00010052  1
  Na  Na53  1  -0.00190832  0.50124120  0.25101257  1
  Na  Na54  1  0.00229124  0.49917073  0.49952163  1
  Na  Na55  1  0.00265762  0.49901883  0.74995678  1
  Na  Na56  1  -0.00132145  0.83347326  -0.00090476  1
  Na  Na57  1  -0.00041179  0.83315672  0.24985269  1
  Na  Na58  1  -0.00096221  0.83362479  0.50093741  1
  Na  Na59  1  -0.00146605  0.83291329  0.74969962  1
  Na  Na60  1  0.49933340  0.16677975  0.00158715  1
  Na  Na61  1  0.50078746  0.16562402  0.24935490  1
  Na  Na62  1  0.49851241  0.16722299  0.49984668  1
  Na  Na63  1  0.49984589  0.16608100  0.74918642  1
  Na  Na64  1  0.49983355  0.50025021  0.00034794  1
  Na  Na65  1  0.50102558  0.50021840  0.24962733  1
  Na  Na66  1  0.50028459  0.50034853  0.50030326  1
  Na  Na67  1  0.49874591  0.50083126  0.75024600  1
  Na  Na68  1  0.49857606  0.83364157  -0.00013093  1
  Na  Na69  1  0.49848868  0.83372928  0.24937202  1
  Na  Na70  1  0.49836455  0.83374554  0.49973675  1
  Na  Na71  1  0.49924075  0.83362626  0.75132235  1
  Na  Na72  1  0.24830415  0.16607224  0.12432303  1
  Na  Na73  1  0.24895260  0.16622088  0.37494949  1
  Na  Na74  1  0.25260911  0.16543765  0.62609315  1
  Na  Na75  1  0.24970267  0.16686570  0.87443013  1
  Na  Na76  1  0.24954273  0.49990849  0.12481034  1
  Na  Na77  1  0.24838777  0.50070404  0.37565488  1
  Na  Na78  1  0.25008427  0.50002556  0.62565372  1
  Na  Na79  1  0.25108491  0.49962942  0.87429166  1
  Na  Na80  1  0.24977220  0.83309095  0.12425795  1
  Na  Na81  1  0.25038726  0.83314573  0.37508571  1
  Na  Na82  1  0.25286050  0.83240793  0.62509466  1
  Na  Na83  1  0.25183737  0.83262928  0.87514210  1
  Na  Na84  1  0.75031205  0.16625157  0.12527127  1
  Na  Na85  1  0.75013250  0.16660212  0.37499918  1
  Na  Na86  1  0.75059895  0.16572220  0.62614504  1
  Na  Na87  1  0.74748147  0.16725348  0.87399582  1
  Na  Na88  1  0.75261432  0.49992866  0.12531009  1
  Na  Na89  1  0.75182770  0.49945430  0.37615969  1
  Na  Na90  1  0.74728149  0.50121644  0.62389513  1
  Na  Na91  1  0.74847267  0.50099892  0.87449420  1
  Na  Na92  1  0.75105892  0.83400431  0.12530433  1
  Na  Na93  1  0.75257578  0.83294793  0.37494026  1
  Na  Na94  1  0.74923089  0.83401649  0.62401541  1
  Na  Na95  1  0.75110114  0.83291731  0.87504060  1
  Mn  Mn96  1  0.64203325  0.91720329  0.49721464  1
  Mn  Mn97  1  0.89249697  0.24957868  0.87686314  1
  Mn  Mn98  1  0.35877951  0.08328784  0.75340930  1
  Mn  Mn99  1  0.85857135  0.41595962  0.50338590  1
  Mn  Mn100  1  0.39185797  0.24982016  0.37655126  1
  Mn  Mn101  1  0.85885718  0.74985484  0.25278253  1
  Mn  Mn102  1  0.85666583  0.08284728  0.75291193  1
  Mn  Mn103  1  0.85719533  0.41730173  0.75158321  1
  Mn  Mn104  1  0.14165417  0.91689994  0.99694654  1
  Mn  Mn105  1  0.60719730  0.41634110  0.87244911  1
  Mn  Mn106  1  0.39208492  0.58336359  0.37684056  1
  Mn  Mn107  1  0.35708712  0.41647846  0.25280448  1
  Mn  Mn108  1  0.64303118  0.91674121  0.24816694  1
  Mn  Mn109  1  0.89307410  0.24980010  0.12737959  1
  Mn  Mn110  1  0.10797445  0.74977902  0.62319546  1
  Mn  Mn111  1  0.64199379  0.24921065  0.49818900  1
  Mn  Mn112  1  0.60850523  0.41621957  0.37212076  1
  Mn  Mn113  1  0.60912155  0.41684278  0.12326821  1
  Mn  Mn114  1  0.64294314  0.58410870  0.99799917  1
  Mn  Mn115  1  0.14252515  0.24969629  0.49846706  1
  Mn  Mn116  1  0.14160757  0.58311733  0.99724947  1
  Mn  Mn117  1  0.14298026  0.91621059  0.74842754  1
  Mn  Mn118  1  0.89287518  0.24983949  0.37707465  1
  Mn  Mn119  1  0.14112101  0.58357233  0.24734098  1
  Mn  Mn120  1  0.85778371  0.08322619  0.00147695  1
  Mn  Mn121  1  0.35733131  0.41659924  0.50212609  1
  Mn  Mn122  1  0.60791566  0.75093841  0.37234675  1
  Mn  Mn123  1  0.60794112  0.75023260  0.12288084  1
  Mn  Mn124  1  0.89150959  0.91722414  0.62765347  1
  Mn  Mn125  1  0.60738396  0.75024823  0.87306829  1
  Mn  Mn126  1  0.39158494  0.91674642  0.12697919  1
  Mn  Mn127  1  0.14297446  0.24996060  0.74734940  1
  Mn  Mn128  1  0.10717145  0.41709014  0.12258685  1
  Mn  Mn129  1  0.60806889  0.08289769  0.12323083  1
  Mn  Mn130  1  0.35731647  0.41632241  0.00247586  1
  Mn  Mn131  1  0.14188672  0.91706554  0.24811013  1
  Mn  Mn132  1  0.14298116  0.91640822  0.49790323  1
  Mn  Mn133  1  0.89255609  0.58192928  0.62764472  1
  Mn  Mn134  1  0.39125340  0.25043684  0.12779775  1
  Mn  Mn135  1  0.35792743  0.74992413  0.50244041  1
  Mn  Mn136  1  0.64205845  0.58377748  0.49762785  1
  Mn  Mn137  1  0.39174144  0.58296590  0.12771645  1
  Mn  Mn138  1  0.85857212  0.41684624  0.00152876  1
  Mn  Mn139  1  0.64189492  0.24964145  0.99748001  1
  Mn  Mn140  1  0.89187672  0.58314168  0.87613311  1
  Mn  Mn141  1  0.14338368  0.58366996  0.74824208  1
  Mn  Mn142  1  0.60703783  0.08306651  0.62198749  1
  Mn  Mn143  1  0.10780105  0.08375954  0.62238168  1
  Fe  Fe144  1  0.35858659  0.74947630  0.75237713  1
  Fe  Fe145  1  0.39239849  0.58346145  0.62660928  1
  Fe  Fe146  1  0.10815413  0.41686574  0.87299275  1
  Fe  Fe147  1  0.85786970  0.75032480  0.00148485  1
  Fe  Fe148  1  0.89281894  0.91682625  0.12624115  1
  Fe  Fe149  1  0.89322390  0.91636754  0.37701010  1
  Fe  Fe150  1  0.39307476  0.24957505  0.87725344  1
  Fe  Fe151  1  0.10674503  0.75048022  0.87301309  1
  Fe  Fe152  1  0.39277599  0.25055989  0.62702593  1
  Fe  Fe153  1  0.89269394  0.25066891  0.62694807  1
  Fe  Fe154  1  0.85786533  0.41600955  0.25194454  1
  Fe  Fe155  1  0.10717536  0.41696290  0.37281804  1
  Fe  Fe156  1  0.14281385  0.24951846  0.99750631  1
  Fe  Fe157  1  0.60711931  0.08305779  0.37316431  1
  Fe  Fe158  1  0.10846456  0.41618772  0.62380266  1
  Fe  Fe159  1  0.10757183  0.08270930  0.37334571  1
  Fe  Fe160  1  0.89198213  0.91701820  0.87617272  1
  Fe  Fe161  1  0.35804534  0.41709057  0.75200102  1
  Fe  Fe162  1  0.64135228  0.25027408  0.74781522  1
  Fe  Fe163  1  0.35773900  0.08356778  0.50087091  1
  Fe  Fe164  1  0.39223417  0.91679657  0.37629088  1
  Fe  Fe165  1  0.14260344  0.58390458  0.49877613  1
  Fe  Fe166  1  0.35694760  0.08328014  0.00121934  1
  Fe  Fe167  1  0.35660059  0.08327612  0.25204368  1
  Fe  Fe168  1  0.39314917  0.91596454  0.62736362  1
  Fe  Fe169  1  0.64323590  0.91632105  0.99844276  1
  Fe  Fe170  1  0.89341651  0.58400455  0.37718885  1
  Fe  Fe171  1  0.10676224  0.75048655  0.37375886  1
  Fe  Fe172  1  0.89260087  0.58387760  0.12704328  1
  Fe  Fe173  1  0.64109004  0.58396175  0.74815738  1
  Fe  Fe174  1  0.39271368  0.58323090  0.87735967  1
  Fe  Fe175  1  0.10763943  0.08238674  0.87329629  1
  Fe  Fe176  1  0.64346515  0.25039867  0.24890535  1
  Fe  Fe177  1  0.10740100  0.08194389  0.12316651  1
  Fe  Fe178  1  0.14227291  0.24946021  0.24845290  1
  Fe  Fe179  1  0.64422572  0.58283478  0.24877465  1
  Fe  Fe180  1  0.39329937  0.91706480  0.87758253  1
  Fe  Fe181  1  0.60675133  0.74963231  0.62357497  1
  Fe  Fe182  1  0.85776339  0.75046433  0.50196747  1
  Fe  Fe183  1  0.85815505  0.08441904  0.25195879  1
  Fe  Fe184  1  0.64189543  0.91586839  0.74858091  1
  Fe  Fe185  1  0.60648937  0.08333376  0.87416871  1
  Fe  Fe186  1  0.35650994  0.75024622  0.25160348  1
  Fe  Fe187  1  0.85769492  0.08342241  0.50126852  1
  Fe  Fe188  1  0.35653723  0.75030636  0.00172475  1
  Fe  Fe189  1  0.60615807  0.41730816  0.62422256  1
  Fe  Fe190  1  0.85611871  0.74989509  0.75097295  1
  Fe  Fe191  1  0.10674363  0.75048850  0.12290376  1
  P  P192  1  0.05580759  0.24844294  0.11065750  1
  P  P193  1  0.05458972  0.24949219  0.35966854  1
  P  P194  1  0.05234524  0.25054618  0.60990983  1
  P  P195  1  0.05537790  0.24940960  0.86117972  1
  P  P196  1  0.05158798  0.58451609  0.10975832  1
  P  P197  1  0.05355911  0.58422963  0.36166477  1
  P  P198  1  0.05462181  0.58250315  0.60982094  1
  P  P199  1  0.05349304  0.58409949  0.85973486  1
  P  P200  1  0.05226323  0.91661282  0.11003574  1
  P  P201  1  0.05236392  0.91642803  0.36063422  1
  P  P202  1  0.05338815  0.91660284  0.61006758  1
  P  P203  1  0.05182453  0.91637365  0.85966492  1
  P  P204  1  0.55467161  0.24998784  0.11132488  1
  P  P205  1  0.55399405  0.24851136  0.35935302  1
  P  P206  1  0.55283188  0.25089842  0.61111211  1
  P  P207  1  0.55227722  0.24874373  0.85967588  1
  P  P208  1  0.55490718  0.58340612  0.11102991  1
  P  P209  1  0.55418663  0.58367944  0.35875656  1
  P  P210  1  0.55302139  0.58398868  0.61139360  1
  P  P211  1  0.55245243  0.58377161  0.85994456  1
  P  P212  1  0.55413582  0.91650690  0.10930522  1
  P  P213  1  0.55178974  0.91785437  0.35966895  1
  P  P214  1  0.55327870  0.91514625  0.61118363  1
  P  P215  1  0.55381399  0.91731691  0.86131366  1
  P  P216  1  0.44426896  0.08344804  0.13968833  1
  P  P217  1  0.44580688  0.08280417  0.38907032  1
  P  P218  1  0.44503191  0.08305054  0.63860692  1
  P  P219  1  0.44723372  0.08335942  0.89086833  1
  P  P220  1  0.44683840  0.41649145  0.14070620  1
  P  P221  1  0.44704323  0.41656203  0.39019521  1
  P  P222  1  0.44655750  0.41715086  0.64030334  1
  P  P223  1  0.44537267  0.41653014  0.88911669  1
  P  P224  1  0.44446494  0.75016497  0.13959507  1
  P  P225  1  0.44534539  0.75068856  0.38848461  1
  P  P226  1  0.44700646  0.74978063  0.64064297  1
  P  P227  1  0.44483014  0.74990739  0.88994684  1
  P  P228  1  0.94730182  0.08270364  0.14033134  1
  P  P229  1  0.94645684  0.08277000  0.38930548  1
  P  P230  1  0.94503144  0.08474170  0.63909728  1
  P  P231  1  0.94791764  0.08255046  0.88962362  1
  P  P232  1  0.94614903  0.41732409  0.14068177  1
  P  P233  1  0.94668106  0.41709431  0.38883008  1
  P  P234  1  0.94874509  0.41557541  0.64038821  1
  P  P235  1  0.94849970  0.41644362  0.88958330  1
  P  P236  1  0.94647469  0.75041503  0.13850572  1
  P  P237  1  0.94720907  0.75013447  0.39095479  1
  P  P238  1  0.94465358  0.74980285  0.63990692  1
  P  P239  1  0.94499492  0.75081217  0.88848781  1
  P  P240  1  0.19564511  0.08325442  0.23548740  1
  P  P241  1  0.19771570  0.08297912  0.48468061  1
  P  P242  1  0.19613507  0.08272347  0.73597297  1
  P  P243  1  0.19603909  0.08338078  0.98503511  1
  P  P244  1  0.19491796  0.41614821  0.23597065  1
  P  P245  1  0.19460593  0.41754246  0.48590595  1
  P  P246  1  0.19692661  0.41676911  0.73560488  1
  P  P247  1  0.19582359  0.41601952  0.98403200  1
  P  P248  1  0.19528157  0.75071065  0.23522180  1
  P  P249  1  0.19619810  0.74940124  0.48471969  1
  P  P250  1  0.19764233  0.75028506  0.73637075  1
  P  P251  1  0.19532762  0.75023610  0.98495263  1
  P  P252  1  0.69719222  0.08386836  0.23639666  1
  P  P253  1  0.69729244  0.08313501  0.48409388  1
  P  P254  1  0.69390848  0.08276525  0.73643363  1
  P  P255  1  0.69599325  0.08222742  0.98438138  1
  P  P256  1  0.69881671  0.41678132  0.23561005  1
  P  P257  1  0.69535817  0.41650950  0.48647803  1
  P  P258  1  0.69509423  0.41709511  0.73402154  1
  P  P259  1  0.69722974  0.41700850  0.98445376  1
  P  P260  1  0.69750492  0.74942383  0.23523197  1
  P  P261  1  0.69674792  0.75044467  0.48571212  1
  P  P262  1  0.69626898  0.75034313  0.73437013  1
  P  P263  1  0.69817634  0.75104438  0.98527351  1
  P  P264  1  0.30317328  0.24886090  0.01372625  1
  P  P265  1  0.30117009  0.24909747  0.26502604  1
  P  P266  1  0.30402802  0.24909718  0.51574202  1
  P  P267  1  0.30597880  0.25090093  0.76471164  1
  P  P268  1  0.30394793  0.58406525  0.01392959  1
  P  P269  1  0.30231663  0.58437291  0.26512830  1
  P  P270  1  0.30257239  0.58343288  0.51577845  1
  P  P271  1  0.30618577  0.58330336  0.76451020  1
  P  P272  1  0.30421618  0.91690049  0.01344844  1
  P  P273  1  0.30363069  0.91660745  0.26519202  1
  P  P274  1  0.30563307  0.91757708  0.51456504  1
  P  P275  1  0.30611903  0.91559489  0.76506897  1
  P  P276  1  0.80337089  0.24965377  0.01489364  1
  P  P277  1  0.80296287  0.25008018  0.26513598  1
  P  P278  1  0.80418866  0.24864888  0.51604569  1
  P  P279  1  0.80252645  0.25044026  0.76376761  1
  P  P280  1  0.80466042  0.58446074  0.01535664  1
  P  P281  1  0.80505173  0.58259323  0.26510420  1
  P  P282  1  0.80519264  0.58405616  0.51404353  1
  P  P283  1  0.80107864  0.58401260  0.76414708  1
  P  P284  1  0.80438485  0.91628200  0.01429700  1
  P  P285  1  0.80621439  0.91762804  0.26445961  1
  P  P286  1  0.80484607  0.91713787  0.51352907  1
  P  P287  1  0.80198933  0.91581450  0.76535140  1
  O  O288  1  0.05934435  0.24918830  0.18749634  1
  O  O289  1  0.05716477  0.24930403  0.43648688  1
  O  O290  1  0.05630245  0.24966543  0.68666531  1
  O  O291  1  0.05890759  0.24943236  0.93804131  1
  O  O292  1  0.05506923  0.58408957  0.18655481  1
  O  O293  1  0.05800725  0.58397337  0.43829907  1
  O  O294  1  0.05787941  0.58361053  0.68663832  1
  O  O295  1  0.05569819  0.58421355  0.93655235  1
  O  O296  1  0.05574926  0.91656181  0.18673474  1
  O  O297  1  0.05606438  0.91681091  0.43728620  1
  O  O298  1  0.05702772  0.91635496  0.68684067  1
  O  O299  1  0.05530245  0.91646413  0.93639777  1
  O  O300  1  0.55990499  0.25000152  0.18805151  1
  O  O301  1  0.55661598  0.24931993  0.43622795  1
  O  O302  1  0.55744311  0.24997847  0.68781988  1
  O  O303  1  0.55575676  0.24955639  0.93648639  1
  O  O304  1  0.56020936  0.58340297  0.18772402  1
  O  O305  1  0.55706298  0.58374651  0.43569151  1
  O  O306  1  0.55731586  0.58415024  0.68813334  1
  O  O307  1  0.55665542  0.58393639  0.93666301  1
  O  O308  1  0.55767742  0.91647491  0.18610119  1
  O  O309  1  0.55545406  0.91716351  0.43646430  1
  O  O310  1  0.55789396  0.91577662  0.68789188  1
  O  O311  1  0.55869596  0.91620240  0.93797381  1
  O  O312  1  0.43988111  0.08360018  0.06289777  1
  O  O313  1  0.44110112  0.08361102  0.31232275  1
  O  O314  1  0.44157023  0.08336049  0.56178027  1
  O  O315  1  0.44447799  0.08313006  0.81412578  1
  O  O316  1  0.44302204  0.41635099  0.06387001  1
  O  O317  1  0.44352882  0.41653413  0.31342062  1
  O  O318  1  0.44336654  0.41708838  0.56352545  1
  O  O319  1  0.44206474  0.41669595  0.81232508  1
  O  O320  1  0.44007922  0.75014790  0.06278203  1
  O  O321  1  0.44108433  0.74993309  0.31175018  1
  O  O322  1  0.44384020  0.74962532  0.56382207  1
  O  O323  1  0.44183929  0.74995356  0.81309141  1
  O  O324  1  0.94355903  0.08369360  0.06360864  1
  O  O325  1  0.94192322  0.08385839  0.31256305  1
  O  O326  1  0.94121845  0.08378707  0.56229666  1
  O  O327  1  0.94366699  0.08317918  0.81289808  1
  O  O328  1  0.94372238  0.41623297  0.06381919  1
  O  O329  1  0.94163648  0.41629434  0.31215585  1
  O  O330  1  0.94507734  0.41634621  0.56361729  1
  O  O331  1  0.94404500  0.41644566  0.81288795  1
  O  O332  1  0.94220422  0.75045901  0.06182474  1
  O  O333  1  0.94420568  0.74981982  0.31405582  1
  O  O334  1  0.94069057  0.75015625  0.56312469  1
  O  O335  1  0.94001233  0.74991259  0.81177304  1
  O  O336  1  0.19144459  0.08202940  0.06177069  1
  O  O337  1  0.19085469  0.08212298  0.31223774  1
  O  O338  1  0.19411874  0.08277367  0.56146790  1
  O  O339  1  0.19127515  0.08252102  0.81275408  1
  O  O340  1  0.19255858  0.41717742  0.06089761  1
  O  O341  1  0.19083977  0.41725252  0.31283941  1
  O  O342  1  0.19137394  0.41651793  0.56280475  1
  O  O343  1  0.19179753  0.41661198  0.81229524  1
  O  O344  1  0.19007741  0.75044515  0.06171400  1
  O  O345  1  0.19014476  0.75070778  0.31192622  1
  O  O346  1  0.19347123  0.75025879  0.56157275  1
  O  O347  1  0.19201309  0.75062640  0.81300491  1
  O  O348  1  0.69363492  0.08300891  0.06123396  1
  O  O349  1  0.69221219  0.08285634  0.31303548  1
  O  O350  1  0.69286214  0.08283666  0.56088619  1
  O  O351  1  0.68984462  0.08301352  0.81318627  1
  O  O352  1  0.69469220  0.41702680  0.06128456  1
  O  O353  1  0.69548450  0.41675228  0.31239535  1
  O  O354  1  0.68981587  0.41683825  0.56314926  1
  O  O355  1  0.69250921  0.41696304  0.81090092  1
  O  O356  1  0.69449213  0.75052980  0.06195874  1
  O  O357  1  0.69443037  0.75023858  0.31204467  1
  O  O358  1  0.69124605  0.75045340  0.56235218  1
  O  O359  1  0.69299464  0.75023122  0.81116952  1
  O  O360  1  0.30447945  0.24973160  0.18826529  1
  O  O361  1  0.30632898  0.24994453  0.43890543  1
  O  O362  1  0.31008898  0.25027506  0.68786195  1
  O  O363  1  0.30836971  0.24933788  0.93704712  1
  O  O364  1  0.30535914  0.58368666  0.18829910  1
  O  O365  1  0.30631864  0.58350167  0.43904981  1
  O  O366  1  0.30967419  0.58339096  0.68763831  1
  O  O367  1  0.30815588  0.58334252  0.93713403  1
  O  O368  1  0.30587391  0.91651605  0.18834055  1
  O  O369  1  0.30910220  0.91678425  0.43772707  1
  O  O370  1  0.30989886  0.91607659  0.68818938  1
  O  O371  1  0.30853182  0.91713312  0.93668092  1
  O  O372  1  0.80656127  0.24987060  0.18842340  1
  O  O373  1  0.80761106  0.24977982  0.43923477  1
  O  O374  1  0.80797184  0.25050512  0.68716174  1
  O  O375  1  0.80647612  0.24951748  0.93803414  1
  O  O376  1  0.80948216  0.58375363  0.18831274  1
  O  O377  1  0.80987953  0.58332219  0.43724942  1
  O  O378  1  0.80527627  0.58301326  0.68747947  1
  O  O379  1  0.80700391  0.58374762  0.93846955  1
  O  O380  1  0.81003989  0.91690145  0.18759984  1
  O  O381  1  0.80916466  0.91683361  0.43673291  1
  O  O382  1  0.80567946  0.91710900  0.68859947  1
  O  O383  1  0.80868234  0.91705280  0.93753080  1
  O  O384  1  0.23273013  0.24920593  0.03718193  1
  O  O385  1  0.23128297  0.24916374  0.29013510  1
  O  O386  1  0.23446404  0.24953954  0.54154322  1
  O  O387  1  0.23578263  0.24995822  0.78840944  1
  O  O388  1  0.23393678  0.58384907  0.03833287  1
  O  O389  1  0.23261349  0.58416322  0.29023866  1
  O  O390  1  0.23253042  0.58361540  0.54035327  1
  O  O391  1  0.23615348  0.58348735  0.78897856  1
  O  O392  1  0.23421808  0.91659162  0.03784681  1
  O  O393  1  0.23403442  0.91693547  0.29085470  1
  O  O394  1  0.23572860  0.91612878  0.53936481  1
  O  O395  1  0.23609852  0.91649586  0.78945585  1
  O  O396  1  0.73372126  0.24951182  0.04009018  1
  O  O397  1  0.73303874  0.25006791  0.29031370  1
  O  O398  1  0.73426437  0.24901268  0.54064627  1
  O  O399  1  0.73191244  0.25041309  0.78684264  1
  O  O400  1  0.73509574  0.58375877  0.04098070  1
  O  O401  1  0.73476824  0.58306107  0.28919140  1
  O  O402  1  0.73495681  0.58400370  0.53765476  1
  O  O403  1  0.73096929  0.58397986  0.78867494  1
  O  O404  1  0.73414637  0.91693356  0.03852019  1
  O  O405  1  0.73615587  0.91666696  0.28875945  1
  O  O406  1  0.73481863  0.91742744  0.53790771  1
  O  O407  1  0.73180700  0.91578413  0.78961159  1
  O  O408  1  0.26606823  0.08269630  0.21190173  1
  O  O409  1  0.26779212  0.08359933  0.46019369  1
  O  O410  1  0.26641233  0.08288462  0.71277944  1
  O  O411  1  0.26641753  0.08328506  0.96112711  1
  O  O412  1  0.26474263  0.41626788  0.21113884  1
  O  O413  1  0.26455178  0.41666101  0.46123097  1
  O  O414  1  0.26742731  0.41717769  0.71244599  1
  O  O415  1  0.26563567  0.41617681  0.95930432  1
  O  O416  1  0.26574148  0.75074843  0.21186056  1
  O  O417  1  0.26598371  0.74997488  0.45976601  1
  O  O418  1  0.26812025  0.74952842  0.71312395  1
  O  O419  1  0.26592307  0.75035521  0.96204731  1
  O  O420  1  0.76755751  0.08356223  0.21245766  1
  O  O421  1  0.76755916  0.08341199  0.46033669  1
  O  O422  1  0.76401046  0.08268667  0.71215767  1
  O  O423  1  0.76554721  0.08292497  0.95865340  1
  O  O424  1  0.76876528  0.41659603  0.21054036  1
  O  O425  1  0.76575390  0.41617039  0.46343355  1
  O  O426  1  0.76477097  0.41711017  0.70845263  1
  O  O427  1  0.76672703  0.41702169  0.95862559  1
  O  O428  1  0.76734379  0.75031385  0.21030815  1
  O  O429  1  0.76720781  0.75009086  0.46230700  1
  O  O430  1  0.76635090  0.75062160  0.70953603  1
  O  O431  1  0.76816122  0.75046685  0.96049624  1
  O  O432  1  0.01748501  0.08232050  0.16469609  1
  O  O433  1  0.01691813  0.08350211  0.41301250  1
  O  O434  1  0.01502889  0.08345457  0.66348731  1
  O  O435  1  0.01799468  0.08281773  0.91412638  1
  O  O436  1  0.01586602  0.41718527  0.16595779  1
  O  O437  1  0.01723866  0.41661626  0.41206669  1
  O  O438  1  0.01877576  0.41593099  0.66505039  1
  O  O439  1  0.01863063  0.41697817  0.91390689  1
  O  O440  1  0.01663313  0.75047703  0.16308765  1
  O  O441  1  0.01720521  0.75040249  0.41583575  1
  O  O442  1  0.01483698  0.74979538  0.66376839  1
  O  O443  1  0.01543962  0.75047584  0.91212114  1
  O  O444  1  0.51454178  0.08278849  0.16317598  1
  O  O445  1  0.51605930  0.08335182  0.41327706  1
  O  O446  1  0.51494746  0.08265564  0.66332745  1
  O  O447  1  0.51717233  0.08340387  0.91603466  1
  O  O448  1  0.51668747  0.41658422  0.16521511  1
  O  O449  1  0.51676399  0.41647759  0.41516418  1
  O  O450  1  0.51657498  0.41722042  0.66528401  1
  O  O451  1  0.51518927  0.41655853  0.91422987  1
  O  O452  1  0.51467538  0.75058833  0.16325654  1
  O  O453  1  0.51530720  0.75037703  0.41306513  1
  O  O454  1  0.51691353  0.74976876  0.66582560  1
  O  O455  1  0.51478634  0.75003719  0.91480128  1
  O  O456  1  0.48443178  0.24988452  0.08782478  1
  O  O457  1  0.48430824  0.24917266  0.33404100  1
  O  O458  1  0.48248825  0.25052823  0.58722077  1
  O  O459  1  0.48215913  0.24916873  0.83518914  1
  O  O460  1  0.48466009  0.58336935  0.08756064  1
  O  O461  1  0.48440453  0.58369987  0.33386596  1
  O  O462  1  0.48274158  0.58377114  0.58708619  1
  O  O463  1  0.48216680  0.58370582  0.83618079  1
  O  O464  1  0.48414988  0.91680109  0.08508140  1
  O  O465  1  0.48184957  0.91735883  0.33481759  1
  O  O466  1  0.48293121  0.91598507  0.58739734  1
  O  O467  1  0.48327887  0.91671838  0.83793809  1
  O  O468  1  0.98578647  0.24969805  0.08626157  1
  O  O469  1  0.98485846  0.24941266  0.33434835  1
  O  O470  1  0.98253036  0.25074744  0.58482432  1
  O  O471  1  0.98548658  0.24919135  0.83631840  1
  O  O472  1  0.98164523  0.58390484  0.08491658  1
  O  O473  1  0.98324529  0.58432313  0.33742869  1
  O  O474  1  0.98482009  0.58291535  0.58497819  1
  O  O475  1  0.98400994  0.58356262  0.83370331  1
  O  O476  1  0.98226214  0.91704499  0.08514339  1
  O  O477  1  0.98235267  0.91608776  0.33575816  1
  O  O478  1  0.98348823  0.91701742  0.58566436  1
  O  O479  1  0.98185874  0.91632181  0.83460960  1
  O  O480  1  0.09033455  0.31301627  0.07749476  1
  O  O481  1  0.08877552  0.31467079  0.32738009  1
  O  O482  1  0.08677127  0.31554600  0.57780262  1
  O  O483  1  0.08901685  0.31470583  0.82839870  1
  O  O484  1  0.08535274  0.64962134  0.07717256  1
  O  O485  1  0.08670848  0.64957297  0.32846814  1
  O  O486  1  0.08899653  0.64739980  0.57696962  1
  O  O487  1  0.08751931  0.64952126  0.82758751  1
  O  O488  1  0.08644848  0.98166145  0.07742301  1
  O  O489  1  0.08594910  0.98160178  0.32759079  1
  O  O490  1  0.08750021  0.98153204  0.57734693  1
  O  O491  1  0.08597716  0.98146382  0.82721617  1
  O  O492  1  0.58794669  0.31501826  0.07782187  1
  O  O493  1  0.58883789  0.31328075  0.32677827  1
  O  O494  1  0.58597877  0.31616933  0.57826223  1
  O  O495  1  0.58643659  0.31363569  0.82665602  1
  O  O496  1  0.58793007  0.64868079  0.07750856  1
  O  O497  1  0.58866130  0.64857142  0.32638138  1
  O  O498  1  0.58635912  0.64922942  0.57813946  1
  O  O499  1  0.58611240  0.64886045  0.82682332  1
  O  O500  1  0.58836032  0.98145583  0.07676222  1
  O  O501  1  0.58561635  0.98311853  0.32725072  1
  O  O502  1  0.58690392  0.97997660  0.57748052  1
  O  O503  1  0.58665174  0.98260184  0.82800169  1
  O  O504  1  0.41039723  0.01853854  0.17276448  1
  O  O505  1  0.41235432  0.01757802  0.42206855  1
  O  O506  1  0.41132502  0.01791318  0.67149335  1
  O  O507  1  0.41296899  0.01833468  0.92347656  1
  O  O508  1  0.41285286  0.35141173  0.17338192  1
  O  O509  1  0.41287493  0.35138345  0.42247531  1
  O  O510  1  0.41249888  0.35212756  0.67300804  1
  O  O511  1  0.41174781  0.35110158  0.92173010  1
  O  O512  1  0.41093709  0.68524331  0.17302374  1
  O  O513  1  0.41168994  0.68577321  0.42203614  1
  O  O514  1  0.41269576  0.68480739  0.67317343  1
  O  O515  1  0.41091848  0.68478213  0.92264263  1
  O  O516  1  0.91300755  0.01775159  0.17262969  1
  O  O517  1  0.91336201  0.01742102  0.42233368  1
  O  O518  1  0.91066296  0.02006065  0.67234916  1
  O  O519  1  0.91417882  0.01726866  0.92205469  1
  O  O520  1  0.91188261  0.35233178  0.17346122  1
  O  O521  1  0.91351330  0.35203264  0.42250663  1
  O  O522  1  0.91469747  0.35056816  0.67287505  1
  O  O523  1  0.91516967  0.35126023  0.92266843  1
  O  O524  1  0.91309550  0.68527907  0.17187600  1
  O  O525  1  0.91311707  0.68518445  0.42362017  1
  O  O526  1  0.91100140  0.68472586  0.67295774  1
  O  O527  1  0.91145233  0.68595005  0.92217347  1
  O  O528  1  0.16207576  0.01840409  0.20155470  1
  O  O529  1  0.16411855  0.01784553  0.45159237  1
  O  O530  1  0.16298308  0.01769024  0.70257690  1
  O  O531  1  0.16255152  0.01851199  0.95113511  1
  O  O532  1  0.16126711  0.35076760  0.20372039  1
  O  O533  1  0.16020227  0.35286028  0.45285701  1
  O  O534  1  0.16386574  0.35169336  0.70183291  1
  O  O535  1  0.16184328  0.35074952  0.95192197  1
  O  O536  1  0.16181215  0.68578297  0.20155581  1
  O  O537  1  0.16226908  0.68407465  0.45255972  1
  O  O538  1  0.16406805  0.68535275  0.70303444  1
  O  O539  1  0.16214214  0.68524800  0.95135826  1
  O  O540  1  0.66384281  0.01887171  0.20266959  1
  O  O541  1  0.66357492  0.01820812  0.45079041  1
  O  O542  1  0.66063012  0.01731843  0.70350085  1
  O  O543  1  0.66185125  0.01681303  0.95255557  1
  O  O544  1  0.66470795  0.35169107  0.20312557  1
  O  O545  1  0.66223029  0.35129094  0.45318913  1
  O  O546  1  0.66055801  0.35198009  0.70188283  1
  O  O547  1  0.66278487  0.35187429  0.95235961  1
  O  O548  1  0.66407902  0.68390240  0.20302135  1
  O  O549  1  0.66327563  0.68552175  0.45231783  1
  O  O550  1  0.66230149  0.68528180  0.70156703  1
  O  O551  1  0.66400094  0.68622444  0.95225003  1
  O  O552  1  0.33626192  0.31394286  0.04750471  1
  O  O553  1  0.33512736  0.31402218  0.29799456  1
  O  O554  1  0.33868854  0.31403495  0.54819671  1
  O  O555  1  0.33902493  0.31628122  0.79759825  1
  O  O556  1  0.33739863  0.64941165  0.04658363  1
  O  O557  1  0.33628037  0.64972832  0.29722324  1
  O  O558  1  0.33688252  0.64830980  0.54860308  1
  O  O559  1  0.34001197  0.64826807  0.79755833  1
  O  O560  1  0.33758457  0.98213361  0.04650213  1
  O  O561  1  0.33823743  0.98167254  0.29731703  1
  O  O562  1  0.33873141  0.98316837  0.54707147  1
  O  O563  1  0.34032977  0.98046056  0.79816800  1
  O  O564  1  0.83761931  0.31475982  0.04710482  1
  O  O565  1  0.83689278  0.31513938  0.29789927  1
  O  O566  1  0.83850687  0.31348991  0.54912353  1
  O  O567  1  0.83577022  0.31548151  0.79728335  1
  O  O568  1  0.83859476  0.64992600  0.04741895  1
  O  O569  1  0.83882874  0.64762132  0.29852532  1
  O  O570  1  0.83848807  0.64926027  0.54686277  1
  O  O571  1  0.83489387  0.64926619  0.79653892  1
  O  O572  1  0.83833482  0.98109592  0.04771484  1
  O  O573  1  0.83957749  0.98295127  0.29716569  1
  O  O574  1  0.83833209  0.98245924  0.54639092  1
  O  O575  1  0.83592642  0.98059555  0.79889700  1
  O  O576  1  0.41096405  0.14841637  0.17331774  1
  O  O577  1  0.41185622  0.14762402  0.42254536  1
  O  O578  1  0.41159772  0.14820902  0.67170107  1
  O  O579  1  0.41291872  0.14844517  0.92327305  1
  O  O580  1  0.41275614  0.48154891  0.17319761  1
  O  O581  1  0.41298978  0.48169439  0.42270765  1
  O  O582  1  0.41252961  0.48223498  0.67289060  1
  O  O583  1  0.41160338  0.48172778  0.92190462  1
  O  O584  1  0.41063048  0.81511503  0.17267649  1
  O  O585  1  0.41192591  0.81606192  0.42122360  1
  O  O586  1  0.41287700  0.81485292  0.67323002  1
  O  O587  1  0.41080687  0.81503104  0.92260717  1
  O  O588  1  0.91376029  0.14781099  0.17377116  1
  O  O589  1  0.91249291  0.14743424  0.42286837  1
  O  O590  1  0.91212677  0.15033211  0.67190238  1
  O  O591  1  0.91413026  0.14750861  0.92272030  1
  O  O592  1  0.91200498  0.48263758  0.17249736  1
  O  O593  1  0.91385732  0.48224831  0.42232766  1
  O  O594  1  0.91480008  0.48069959  0.67325207  1
  O  O595  1  0.91446163  0.48158391  0.92203333  1
  O  O596  1  0.91299895  0.81550608  0.17167300  1
  O  O597  1  0.91287299  0.81523506  0.42316246  1
  O  O598  1  0.91082032  0.81470862  0.67311610  1
  O  O599  1  0.91178112  0.81607561  0.92170700  1
  O  O600  1  0.08887977  0.18278156  0.07808262  1
  O  O601  1  0.08889621  0.18435349  0.32736241  1
  O  O602  1  0.08614582  0.18541441  0.57694614  1
  O  O603  1  0.08920996  0.18427740  0.82838778  1
  O  O604  1  0.08580063  0.51945661  0.07726341  1
  O  O605  1  0.08678411  0.51916865  0.32805051  1
  O  O606  1  0.08857879  0.51719045  0.57777059  1
  O  O607  1  0.08837465  0.51910474  0.82797164  1
  O  O608  1  0.08588779  0.85153960  0.07703979  1
  O  O609  1  0.08624224  0.85130674  0.32795189  1
  O  O610  1  0.08706930  0.85135196  0.57747503  1
  O  O611  1  0.08588493  0.85112331  0.82719886  1
  O  O612  1  0.58785251  0.18472872  0.07808058  1
  O  O613  1  0.58804349  0.18315015  0.32735981  1
  O  O614  1  0.58612856  0.18586434  0.57743558  1
  O  O615  1  0.58604739  0.18354026  0.82721328  1
  O  O616  1  0.58820425  0.51835503  0.07760866  1
  O  O617  1  0.58855337  0.51854896  0.32649901  1
  O  O618  1  0.58658677  0.51888944  0.57836931  1
  O  O619  1  0.58622727  0.51888863  0.82677703  1
  O  O620  1  0.58802115  0.85150835  0.07633825  1
  O  O621  1  0.58603194  0.85296866  0.32688633  1
  O  O622  1  0.58613581  0.84975872  0.57795524  1
  O  O623  1  0.58729969  0.85246572  0.82734648  1
  O  O624  1  0.33616962  0.18366777  0.04709431  1
  O  O625  1  0.33517709  0.18385211  0.29726984  1
  O  O626  1  0.33829475  0.18383086  0.54756005  1
  O  O627  1  0.33987863  0.18607391  0.79817445  1
  O  O628  1  0.33754386  0.51901772  0.04721017  1
  O  O629  1  0.33640354  0.51935468  0.29786729  1
  O  O630  1  0.33660348  0.51839931  0.54853707  1
  O  O631  1  0.33973983  0.51805780  0.79739555  1
  O  O632  1  0.33781237  0.85170265  0.04635924  1
  O  O633  1  0.33787710  0.85149287  0.29754809  1
  O  O634  1  0.34032428  0.85298495  0.54770217  1
  O  O635  1  0.33956843  0.85037695  0.79783835  1
  O  O636  1  0.83755945  0.18457915  0.04737584  1
  O  O637  1  0.83696107  0.18492157  0.29774728  1
  O  O638  1  0.83794190  0.18323047  0.54806769  1
  O  O639  1  0.83555494  0.18528650  0.79743693  1
  O  O640  1  0.83957054  0.51971516  0.04772308  1
  O  O641  1  0.83852714  0.51738803  0.29790543  1
  O  O642  1  0.83835636  0.51886608  0.54759958  1
  O  O643  1  0.83500913  0.51906682  0.79730791  1
  O  O644  1  0.83782627  0.85100299  0.04724441  1
  O  O645  1  0.84041343  0.85280401  0.29769057  1
  O  O646  1  0.83816484  0.85193138  0.54672094  1
  O  O647  1  0.83604955  0.85061258  0.79747760  1
  O  O648  1  0.16241235  0.14843949  0.20246831  1
  O  O649  1  0.16324715  0.14781829  0.45219674  1
  O  O650  1  0.16293837  0.14791912  0.70265614  1
  O  O651  1  0.16253731  0.14852738  0.95218428  1
  O  O652  1  0.16117854  0.48113316  0.20260936  1
  O  O653  1  0.16121261  0.48304923  0.45337694  1
  O  O654  1  0.16327023  0.48161928  0.70229029  1
  O  O655  1  0.16168475  0.48098117  0.95110570  1
  O  O656  1  0.16203284  0.81581572  0.20165959  1
  O  O657  1  0.16174011  0.81418706  0.45181162  1
  O  O658  1  0.16493622  0.81538046  0.70244410  1
  O  O659  1  0.16205270  0.81519231  0.95119670  1
  O  O660  1  0.66392169  0.14913432  0.20339203  1
  O  O661  1  0.66324156  0.14813242  0.45149825  1
  O  O662  1  0.66050804  0.14794744  0.70315851  1
  O  O663  1  0.66096594  0.14684969  0.95181493  1
  O  O664  1  0.66512247  0.48205915  0.20298188  1
  O  O665  1  0.66247993  0.48162643  0.45275638  1
  O  O666  1  0.66067804  0.48230816  0.70196206  1
  O  O667  1  0.66277092  0.48205128  0.95233904  1
  O  O668  1  0.66309525  0.81431293  0.20267836  1
  O  O669  1  0.66384949  0.81566451  0.45205035  1
  O  O670  1  0.66215002  0.81547067  0.70182392  1
  O  O671  1  0.66446289  0.81625569  0.95257170  1
