# generated using pymatgen
data_Na2MnFe(PO4)2
_symmetry_space_group_name_H-M   'P 1'
_cell_length_a   21.07906185
_cell_length_b   18.93097016
_cell_length_c   20.03816337
_cell_angle_alpha   89.99971319
_cell_angle_beta   90.00133023
_cell_angle_gamma   90.00045867
_symmetry_Int_Tables_number   1
_chemical_formula_structural   Na2MnFe(PO4)2
_chemical_formula_sum   'Na96 Mn48 Fe48 P96 O384'
_cell_volume   7996.17079908
_cell_formula_units_Z   48
loop_
 _symmetry_equiv_pos_site_id
 _symmetry_equiv_pos_as_xyz
  1  'x, y, z'
loop_
 _atom_site_type_symbol
 _atom_site_label
 _atom_site_symmetry_multiplicity
 _atom_site_fract_x
 _atom_site_fract_y
 _atom_site_fract_z
 _atom_site_occupancy
  Na  Na0  1  -0.00088547  0.00016086  -0.00092956  1
  Na  Na1  1  0.00109035  0.00035348  0.25025689  1
  Na  Na2  1  0.00296098  0.00057538  0.50056921  1
  Na  Na3  1  0.00108021  0.00060065  0.74992598  1
  Na  Na4  1  0.00020835  0.33359630  -0.00105944  1
  Na  Na5  1  0.00101356  0.33333923  0.25069384  1
  Na  Na6  1  -0.00099914  0.33248876  0.50084264  1
  Na  Na7  1  -0.00064242  0.33365023  0.74928092  1
  Na  Na8  1  0.00000791  0.66606796  -0.00008019  1
  Na  Na9  1  0.00200123  0.66681646  0.24998744  1
  Na  Na10  1  0.00240459  0.66706222  0.50055336  1
  Na  Na11  1  -0.00052157  0.66601047  0.75026190  1
  Na  Na12  1  0.49814903  -0.00054703  -0.00023180  1
  Na  Na13  1  0.49951772  0.00034588  0.25080382  1
  Na  Na14  1  0.50050495  0.00094853  0.49966595  1
  Na  Na15  1  0.49896227  0.00006681  0.74970708  1
  Na  Na16  1  0.49755508  0.33250139  -0.00024736  1
  Na  Na17  1  0.49700580  0.33243334  0.25037770  1
  Na  Na18  1  0.49764948  0.33253757  0.50015391  1
  Na  Na19  1  0.49931124  0.33341001  0.74943885  1
  Na  Na20  1  0.50056728  0.66693121  -0.00036095  1
  Na  Na21  1  0.49972091  0.66659629  0.25144591  1
  Na  Na22  1  0.50115828  0.66686546  0.50076081  1
  Na  Na23  1  0.50139663  0.66684350  0.74814986  1
  Na  Na24  1  0.25181453  0.00047318  0.12473729  1
  Na  Na25  1  0.24997352  0.00082876  0.37401396  1
  Na  Na26  1  0.24698161  -0.00109112  0.62507651  1
  Na  Na27  1  0.25119576  0.00058635  0.87597732  1
  Na  Na28  1  0.25089753  0.33318923  0.12427061  1
  Na  Na29  1  0.25166383  0.33340181  0.37417513  1
  Na  Na30  1  0.24993807  0.33284329  0.62582111  1
  Na  Na31  1  0.24856735  0.33276262  0.87530262  1
  Na  Na32  1  0.25005748  0.66598886  0.12470115  1
  Na  Na33  1  0.24896488  0.66616925  0.37418876  1
  Na  Na34  1  0.24916622  0.66633168  0.62530358  1
  Na  Na35  1  0.24993844  0.66600169  0.87549012  1
  Na  Na36  1  0.74873718  0.00019838  0.12615399  1
  Na  Na37  1  0.74740933  -0.00046677  0.37351568  1
  Na  Na38  1  0.74904465  -0.00024098  0.62462254  1
  Na  Na39  1  0.75159107  0.00111533  0.87595834  1
  Na  Na40  1  0.75229764  0.33369418  0.12533739  1
  Na  Na41  1  0.75159868  0.33372256  0.37501295  1
  Na  Na42  1  0.75258059  0.33431016  0.62517421  1
  Na  Na43  1  0.75221678  0.33365302  0.87425989  1
  Na  Na44  1  0.74922547  0.66701553  0.12438635  1
  Na  Na45  1  0.74713136  0.66581803  0.37441000  1
  Na  Na46  1  0.74963793  0.66681724  0.62552500  1
  Na  Na47  1  0.74965754  0.66684704  0.87670221  1
  Na  Na48  1  -0.00136378  0.16656322  -0.00071190  1
  Na  Na49  1  0.00048990  0.16643376  0.25030637  1
  Na  Na50  1  0.00213317  0.16619636  0.50037609  1
  Na  Na51  1  0.00029766  0.16670125  0.75023770  1
  Na  Na52  1  0.00182854  0.49953129  -0.00005400  1
  Na  Na53  1  0.00308660  0.49963309  0.24979291  1
  Na  Na54  1  0.00028386  0.50072996  0.50058899  1
  Na  Na55  1  -0.00012672  0.49985907  0.74936843  1
  Na  Na56  1  -0.00071614  0.83339453  -0.00098792  1
  Na  Na57  1  0.00012807  0.83404025  0.25073549  1
  Na  Na58  1  0.00215704  0.83319288  0.50089165  1
  Na  Na59  1  -0.00062892  0.83376616  0.74987598  1
  Na  Na60  1  0.49755337  0.16696854  -0.00023931  1
  Na  Na61  1  0.49820182  0.16629061  0.24975019  1
  Na  Na62  1  0.49827264  0.16676937  0.50003628  1
  Na  Na63  1  0.49756796  0.16727563  0.74935547  1
  Na  Na64  1  0.49788027  0.50127839  -0.00037810  1
  Na  Na65  1  0.49911444  0.50026136  0.25135805  1
  Na  Na66  1  0.50103342  0.49936699  0.50084637  1
  Na  Na67  1  0.50151384  0.49952966  0.74855378  1
  Na  Na68  1  0.50089753  0.83289581  -0.00027652  1
  Na  Na69  1  0.49922980  0.83356939  0.25133071  1
  Na  Na70  1  0.50045443  0.83270587  0.49992559  1
  Na  Na71  1  0.49998802  0.83350621  0.74917038  1
  Na  Na72  1  0.25184077  0.16589704  0.12475487  1
  Na  Na73  1  0.24963445  0.16712593  0.37489178  1
  Na  Na74  1  0.25012733  0.16662745  0.62454294  1
  Na  Na75  1  0.25092912  0.16639055  0.87540824  1
  Na  Na76  1  0.24821258  0.50099757  0.12386236  1
  Na  Na77  1  0.24906102  0.50042472  0.37405948  1
  Na  Na78  1  0.24841594  0.50039417  0.62622989  1
  Na  Na79  1  0.24885653  0.50042355  0.87605064  1
  Na  Na80  1  0.25328197  0.83230946  0.12491402  1
  Na  Na81  1  0.25004882  0.83372532  0.37380639  1
  Na  Na82  1  0.24913146  0.83353165  0.62501602  1
  Na  Na83  1  0.24963167  0.83407200  0.87562244  1
  Na  Na84  1  0.75042081  0.16606544  0.12565509  1
  Na  Na85  1  0.74833814  0.16725448  0.37389621  1
  Na  Na86  1  0.75201284  0.16589478  0.62464365  1
  Na  Na87  1  0.75201771  0.16626698  0.87568128  1
  Na  Na88  1  0.75063948  0.50024159  0.12460505  1
  Na  Na89  1  0.75057706  0.49935039  0.37521895  1
  Na  Na90  1  0.74864041  0.50069854  0.62482186  1
  Na  Na91  1  0.75192676  0.49904729  0.87529800  1
  Na  Na92  1  0.74849825  0.83354215  0.12572801  1
  Na  Na93  1  0.74754649  0.83394652  0.37365212  1
  Na  Na94  1  0.75006412  0.83269530  0.62578248  1
  Na  Na95  1  0.74878202  0.83361358  0.87619618  1
  Mn  Mn96  1  0.89296427  0.91651602  0.37776639  1
  Mn  Mn97  1  0.39174312  0.58276570  0.37833307  1
  Mn  Mn98  1  0.60850038  0.74991873  0.62234950  1
  Mn  Mn99  1  0.64177182  0.58282755  0.99754470  1
  Mn  Mn100  1  0.60722894  0.08358905  0.87301856  1
  Mn  Mn101  1  0.14277337  0.91631301  0.99833868  1
  Mn  Mn102  1  0.14305153  0.91645373  0.24655620  1
  Mn  Mn103  1  0.89298192  0.24950387  0.37756169  1
  Mn  Mn104  1  0.60790077  0.41670991  0.87301988  1
  Mn  Mn105  1  0.64227662  0.24995664  0.99817736  1
  Mn  Mn106  1  0.39235197  0.58277221  0.62689793  1
  Mn  Mn107  1  0.35731162  0.41713364  0.75252917  1
  Mn  Mn108  1  0.85766328  0.74976599  0.25244778  1
  Mn  Mn109  1  0.39210570  0.91683480  0.37803000  1
  Mn  Mn110  1  0.85689246  0.75064372  0.00287648  1
  Mn  Mn111  1  0.10835282  0.75090036  0.12231930  1
  Mn  Mn112  1  0.89179204  0.58334544  0.62738265  1
  Mn  Mn113  1  0.89342359  0.58349642  0.12745249  1
  Mn  Mn114  1  0.85768114  0.08321303  0.25224828  1
  Mn  Mn115  1  0.64208057  0.91697635  0.74814355  1
  Mn  Mn116  1  0.64245850  0.25041399  0.74776321  1
  Mn  Mn117  1  0.35891672  0.74996224  0.00214058  1
  Mn  Mn118  1  0.89240197  0.25064159  0.87709631  1
  Mn  Mn119  1  0.10759852  0.41610139  0.62251261  1
  Mn  Mn120  1  0.89334012  0.58408540  0.37721572  1
  Mn  Mn121  1  0.39148477  0.91705834  0.62649366  1
  Mn  Mn122  1  0.60794622  0.08439313  0.62281206  1
  Mn  Mn123  1  0.14289980  0.25019284  0.24692609  1
  Mn  Mn124  1  0.60722740  0.41637891  0.12217997  1
  Mn  Mn125  1  0.60747143  0.41562588  0.37312352  1
  Mn  Mn126  1  0.64110279  0.91672110  0.24723103  1
  Mn  Mn127  1  0.10777509  0.08376016  0.87290082  1
  Mn  Mn128  1  0.64148912  0.58252640  0.24750844  1
  Mn  Mn129  1  0.35733067  0.41668681  0.00183806  1
  Mn  Mn130  1  0.35765055  0.74983442  0.75251369  1
  Mn  Mn131  1  0.64222208  0.24983822  0.49792472  1
  Mn  Mn132  1  0.35678014  0.08292761  0.75186203  1
  Mn  Mn133  1  0.14234219  0.24988480  0.99790099  1
  Mn  Mn134  1  0.35741132  0.41680518  0.25183799  1
  Mn  Mn135  1  0.10758233  0.74960759  0.87243540  1
  Mn  Mn136  1  0.89161511  0.91615997  0.87736983  1
  Mn  Mn137  1  0.10868754  0.41665158  0.37343007  1
  Mn  Mn138  1  0.85765455  0.74992512  0.50125093  1
  Mn  Mn139  1  0.85791609  0.08305170  0.50152601  1
  Mn  Mn140  1  0.10808236  0.75055195  0.62302556  1
  Mn  Mn141  1  0.85911775  0.41725403  0.25211217  1
  Mn  Mn142  1  0.64130561  0.25066561  0.24756274  1
  Mn  Mn143  1  0.89237104  0.91732860  0.62668857  1
  Fe  Fe144  1  0.85750674  0.41695876  0.50170131  1
  Fe  Fe145  1  0.14309229  0.91643689  0.49789582  1
  Fe  Fe146  1  0.60694263  0.74985857  0.87329334  1
  Fe  Fe147  1  0.85712220  0.41732921  0.75166767  1
  Fe  Fe148  1  0.10894620  0.75055934  0.37292483  1
  Fe  Fe149  1  0.14340751  0.25019940  0.49852134  1
  Fe  Fe150  1  0.89332613  0.24948958  0.12646469  1
  Fe  Fe151  1  0.35702007  0.41694035  0.50209755  1
  Fe  Fe152  1  0.14342569  0.58362108  0.24780597  1
  Fe  Fe153  1  0.60603367  0.08375636  0.37370458  1
  Fe  Fe154  1  0.10867659  0.08305368  0.37291856  1
  Fe  Fe155  1  0.14238464  0.91673745  0.74894174  1
  Fe  Fe156  1  0.35789437  0.08327427  0.00210743  1
  Fe  Fe157  1  0.85704316  0.74965339  0.75211723  1
  Fe  Fe158  1  0.39232635  0.91635848  0.87673458  1
  Fe  Fe159  1  0.35791076  0.74970795  0.25196427  1
  Fe  Fe160  1  0.85710873  0.08335606  0.00322052  1
  Fe  Fe161  1  0.39214948  0.58362215  0.12662687  1
  Fe  Fe162  1  0.85851741  0.41639127  0.00220552  1
  Fe  Fe163  1  0.89264425  0.58316068  0.87645037  1
  Fe  Fe164  1  0.39178826  0.25037162  0.62657197  1
  Fe  Fe165  1  0.14289136  0.58380985  0.99768562  1
  Fe  Fe166  1  0.64204326  0.91651037  0.49840624  1
  Fe  Fe167  1  0.10672774  0.41681604  0.87296136  1
  Fe  Fe168  1  0.60779681  0.41576911  0.62302107  1
  Fe  Fe169  1  0.14219395  0.58352864  0.74881222  1
  Fe  Fe170  1  0.89325819  0.24921080  0.62637471  1
  Fe  Fe171  1  0.60588534  0.08327582  0.12303385  1
  Fe  Fe172  1  0.64296628  0.58341338  0.49820775  1
  Fe  Fe173  1  0.39238067  0.24993201  0.12679532  1
  Fe  Fe174  1  0.35626629  0.08325767  0.50164711  1
  Fe  Fe175  1  0.39190152  0.24977607  0.37739695  1
  Fe  Fe176  1  0.10735992  0.08349285  0.12320130  1
  Fe  Fe177  1  0.60613486  0.75007670  0.12401637  1
  Fe  Fe178  1  0.14299750  0.58334742  0.49845884  1
  Fe  Fe179  1  0.39270983  0.58353454  0.87571596  1
  Fe  Fe180  1  0.64316171  0.58294696  0.74937654  1
  Fe  Fe181  1  0.35669663  0.74981561  0.50104423  1
  Fe  Fe182  1  0.89219224  0.91711187  0.12635098  1
  Fe  Fe183  1  0.64181674  0.91746458  0.99876672  1
  Fe  Fe184  1  0.39353457  0.91635851  0.12660565  1
  Fe  Fe185  1  0.39160649  0.25029177  0.87630900  1
  Fe  Fe186  1  0.14252281  0.24982463  0.74794645  1
  Fe  Fe187  1  0.35758130  0.08284225  0.25177008  1
  Fe  Fe188  1  0.10756200  0.41563623  0.12272523  1
  Fe  Fe189  1  0.10768729  0.08386370  0.62337147  1
  Fe  Fe190  1  0.60667438  0.75015868  0.37363029  1
  Fe  Fe191  1  0.85824868  0.08303558  0.75117815  1
  P  P192  1  0.05255602  0.24936199  0.10978043  1
  P  P193  1  0.05570898  0.24936838  0.36128414  1
  P  P194  1  0.05438413  0.24928113  0.61071596  1
  P  P195  1  0.05406184  0.25086700  0.85926098  1
  P  P196  1  0.05610421  0.58285191  0.11031479  1
  P  P197  1  0.05651613  0.58420508  0.36054302  1
  P  P198  1  0.05510305  0.58335561  0.61059950  1
  P  P199  1  0.05367274  0.58247741  0.86049823  1
  P  P200  1  0.05201571  0.91777552  0.10961144  1
  P  P201  1  0.05611146  0.91674215  0.36109804  1
  P  P202  1  0.05566055  0.91771402  0.61079427  1
  P  P203  1  0.05376328  0.91670560  0.85948385  1
  P  P204  1  0.55132451  0.24919730  0.10993969  1
  P  P205  1  0.55137150  0.24916864  0.36022509  1
  P  P206  1  0.55190927  0.25082414  0.60993157  1
  P  P207  1  0.55150662  0.24984121  0.85986030  1
  P  P208  1  0.55145245  0.58385298  0.11016648  1
  P  P209  1  0.55436026  0.58360245  0.36185594  1
  P  P210  1  0.55592885  0.58210192  0.61069475  1
  P  P211  1  0.55264607  0.58381988  0.85907508  1
  P  P212  1  0.55228942  0.91679090  0.10985712  1
  P  P213  1  0.55439815  0.91683611  0.36163140  1
  P  P214  1  0.55371636  0.91705853  0.60919899  1
  P  P215  1  0.55279798  0.91645735  0.86111276  1
  P  P216  1  0.44562025  0.08277584  0.13929177  1
  P  P217  1  0.44513636  0.08390924  0.38964770  1
  P  P218  1  0.44473128  0.08401853  0.63848543  1
  P  P219  1  0.44515780  0.08330626  0.89002474  1
  P  P220  1  0.44614514  0.41706048  0.13993573  1
  P  P221  1  0.44539473  0.41598422  0.39113295  1
  P  P222  1  0.44609027  0.41603376  0.63878522  1
  P  P223  1  0.44637080  0.41725349  0.88940244  1
  P  P224  1  0.44705103  0.75001693  0.14067549  1
  P  P225  1  0.44585226  0.74976793  0.39017821  1
  P  P226  1  0.44522904  0.74998937  0.63852197  1
  P  P227  1  0.44774256  0.74951741  0.88914314  1
  P  P228  1  0.94662825  0.08324304  0.13899856  1
  P  P229  1  0.94895757  0.08292920  0.39028446  1
  P  P230  1  0.94768251  0.08398261  0.64012447  1
  P  P231  1  0.94462635  0.08326542  0.88959678  1
  P  P232  1  0.94765983  0.41578020  0.13885535  1
  P  P233  1  0.94698402  0.41710803  0.39115035  1
  P  P234  1  0.94459751  0.41598734  0.63920320  1
  P  P235  1  0.94583516  0.41786558  0.88905642  1
  P  P236  1  0.94700706  0.75101449  0.14019881  1
  P  P237  1  0.94935477  0.75007776  0.39035603  1
  P  P238  1  0.94594753  0.75012380  0.64068737  1
  P  P239  1  0.94496931  0.74885679  0.88902126  1
  P  P240  1  0.19679315  0.08336560  0.23478647  1
  P  P241  1  0.19603634  0.08369603  0.48572843  1
  P  P242  1  0.19561041  0.08362227  0.73476281  1
  P  P243  1  0.19696742  0.08321952  0.98634801  1
  P  P244  1  0.19615468  0.41718592  0.23386383  1
  P  P245  1  0.19816993  0.41623274  0.48544209  1
  P  P246  1  0.19478949  0.41662795  0.73667516  1
  P  P247  1  0.19434861  0.41713051  0.98538172  1
  P  P248  1  0.19762259  0.74963125  0.23544986  1
  P  P249  1  0.19735869  0.74996455  0.48453262  1
  P  P250  1  0.19652908  0.74994608  0.73546905  1
  P  P251  1  0.19717670  0.74950695  0.98493901  1
  P  P252  1  0.69377799  0.08381756  0.23522052  1
  P  P253  1  0.69594650  0.08290532  0.48385233  1
  P  P254  1  0.69820582  0.08375228  0.73529949  1
  P  P255  1  0.69611621  0.08291338  0.98671684  1
  P  P256  1  0.69696890  0.41647184  0.23442600  1
  P  P257  1  0.69685202  0.41673478  0.48617609  1
  P  P258  1  0.69723963  0.41732824  0.73480427  1
  P  P259  1  0.69856159  0.41601717  0.98493063  1
  P  P260  1  0.69423912  0.74978531  0.23509364  1
  P  P261  1  0.69591937  0.75010936  0.48420447  1
  P  P262  1  0.69627275  0.74909228  0.73700316  1
  P  P263  1  0.69349166  0.75114572  0.98628663  1
  P  P264  1  0.30522817  0.24941237  0.01433678  1
  P  P265  1  0.30553275  0.24886724  0.26422470  1
  P  P266  1  0.30384484  0.24993788  0.51431734  1
  P  P267  1  0.30315345  0.25005583  0.76445886  1
  P  P268  1  0.30418507  0.58335964  0.01416518  1
  P  P269  1  0.30387398  0.58395234  0.26366144  1
  P  P270  1  0.30189671  0.58328291  0.51503785  1
  P  P271  1  0.30229485  0.58314009  0.76572816  1
  P  P272  1  0.30582330  0.91711167  0.01472804  1
  P  P273  1  0.30562826  0.91666578  0.26335084  1
  P  P274  1  0.30181260  0.91682718  0.51441653  1
  P  P275  1  0.30228973  0.91665487  0.76554833  1
  P  P276  1  0.80456398  0.25006131  0.01576817  1
  P  P277  1  0.80478690  0.24992802  0.26413023  1
  P  P278  1  0.80433036  0.25024719  0.51539961  1
  P  P279  1  0.80513926  0.24993228  0.76343398  1
  P  P280  1  0.80475587  0.58266463  0.01410916  1
  P  P281  1  0.80342467  0.58350179  0.26524779  1
  P  P282  1  0.80239736  0.58328601  0.51470673  1
  P  P283  1  0.80288264  0.58331957  0.76570733  1
  P  P284  1  0.80209122  0.91741229  0.01629658  1
  P  P285  1  0.80438435  0.91674166  0.26413322  1
  P  P286  1  0.80165775  0.91648702  0.51454119  1
  P  P287  1  0.80335278  0.91661817  0.76508601  1
  O  O288  1  0.05616867  0.24947834  0.18652157  1
  O  O289  1  0.05991209  0.25019321  0.43807929  1
  O  O290  1  0.05868392  0.25023128  0.68741803  1
  O  O291  1  0.05696608  0.24969708  0.93606097  1
  O  O292  1  0.06015431  0.58385061  0.18716571  1
  O  O293  1  0.06047749  0.58336335  0.43744149  1
  O  O294  1  0.05918312  0.58330219  0.68738091  1
  O  O295  1  0.05841601  0.58353519  0.93720172  1
  O  O296  1  0.05625035  0.91707300  0.18634424  1
  O  O297  1  0.06021432  0.91653854  0.43795608  1
  O  O298  1  0.05938396  0.91657225  0.68756659  1
  O  O299  1  0.05721236  0.91658210  0.93626351  1
  O  O300  1  0.55494690  0.24985261  0.18663482  1
  O  O301  1  0.55554197  0.24981563  0.43688709  1
  O  O302  1  0.55604193  0.25027734  0.68663080  1
  O  O303  1  0.55577595  0.24979714  0.93653128  1
  O  O304  1  0.55502364  0.58294922  0.18689534  1
  O  O305  1  0.55883190  0.58299063  0.43861640  1
  O  O306  1  0.56009597  0.58293828  0.68745252  1
  O  O307  1  0.55598936  0.58301783  0.93586294  1
  O  O308  1  0.55515072  0.91708699  0.18663418  1
  O  O309  1  0.55824380  0.91673037  0.43837740  1
  O  O310  1  0.55671984  0.91703889  0.68607928  1
  O  O311  1  0.55753337  0.91736800  0.93776786  1
  O  O312  1  0.44157873  0.08294824  0.06254306  1
  O  O313  1  0.44102191  0.08298890  0.31291007  1
  O  O314  1  0.44024000  0.08301193  0.56173349  1
  O  O315  1  0.44231753  0.08318850  0.81317919  1
  O  O316  1  0.44330661  0.41728795  0.06314090  1
  O  O317  1  0.44216668  0.41727642  0.31436007  1
  O  O318  1  0.44078406  0.41700617  0.56213968  1
  O  O319  1  0.44388387  0.41723693  0.81258684  1
  O  O320  1  0.44417657  0.74969825  0.06390410  1
  O  O321  1  0.44107560  0.74964422  0.31345610  1
  O  O322  1  0.44016671  0.74985550  0.56178920  1
  O  O323  1  0.44447149  0.74971731  0.81238436  1
  O  O324  1  0.94183762  0.08298994  0.06225770  1
  O  O325  1  0.94431852  0.08292935  0.31361085  1
  O  O326  1  0.94403513  0.08317448  0.56342741  1
  O  O327  1  0.94068636  0.08306528  0.81278265  1
  O  O328  1  0.94303920  0.41656420  0.06211907  1
  O  O329  1  0.94448077  0.41727567  0.31426212  1
  O  O330  1  0.94052264  0.41728340  0.56242934  1
  O  O331  1  0.94102490  0.41741911  0.81232982  1
  O  O332  1  0.94343407  0.75023295  0.06338447  1
  O  O333  1  0.94477957  0.74988277  0.31368559  1
  O  O334  1  0.94305393  0.74990076  0.56387504  1
  O  O335  1  0.94068785  0.74956834  0.81225551  1
  O  O336  1  0.19171661  0.08334632  0.06302121  1
  O  O337  1  0.19212929  0.08348759  0.31151900  1
  O  O338  1  0.19174565  0.08379778  0.56243800  1
  O  O339  1  0.19351544  0.08384916  0.81162995  1
  O  O340  1  0.19069032  0.41580590  0.06218697  1
  O  O341  1  0.19376057  0.41603972  0.31068428  1
  O  O342  1  0.19442081  0.41591788  0.56216861  1
  O  O343  1  0.19112905  0.41665263  0.81344567  1
  O  O344  1  0.19432813  0.75023059  0.06174220  1
  O  O345  1  0.19302872  0.75052938  0.31211182  1
  O  O346  1  0.19394631  0.75011017  0.56127579  1
  O  O347  1  0.19392813  0.74990961  0.81224465  1
  O  O348  1  0.69037028  0.08350025  0.06333935  1
  O  O349  1  0.68898346  0.08405752  0.31195557  1
  O  O350  1  0.69337368  0.08386592  0.56071889  1
  O  O351  1  0.69409605  0.08411688  0.81202838  1
  O  O352  1  0.69389959  0.41621474  0.06159323  1
  O  O353  1  0.69311779  0.41609516  0.31123413  1
  O  O354  1  0.69212696  0.41569184  0.56286050  1
  O  O355  1  0.69362089  0.41617525  0.81155803  1
  O  O356  1  0.68906358  0.75014561  0.06306690  1
  O  O357  1  0.68976670  0.74992856  0.31185022  1
  O  O358  1  0.69397597  0.75023013  0.56114264  1
  O  O359  1  0.69130631  0.74986569  0.81369978  1
  O  O360  1  0.30960220  0.24955020  0.18736109  1
  O  O361  1  0.30797748  0.24992488  0.43753560  1
  O  O362  1  0.30794496  0.25032114  0.68773934  1
  O  O363  1  0.30879996  0.25022853  0.93749286  1
  O  O364  1  0.30857371  0.58354888  0.18694974  1
  O  O365  1  0.30521521  0.58303977  0.43828311  1
  O  O366  1  0.30663215  0.58293614  0.68905150  1
  O  O367  1  0.30930241  0.58348520  0.93751426  1
  O  O368  1  0.30980127  0.91653619  0.18659070  1
  O  O369  1  0.30549010  0.91720430  0.43769631  1
  O  O370  1  0.30599040  0.91660000  0.68881806  1
  O  O371  1  0.30954821  0.91626402  0.93789309  1
  O  O372  1  0.80971573  0.24949357  0.18740633  1
  O  O373  1  0.80706092  0.24950032  0.43853523  1
  O  O374  1  0.80904707  0.24945746  0.68670862  1
  O  O375  1  0.80723760  0.25026623  0.93891148  1
  O  O376  1  0.80726467  0.58394110  0.18845322  1
  O  O377  1  0.80641951  0.58365104  0.43805032  1
  O  O378  1  0.80587150  0.58360739  0.68893566  1
  O  O379  1  0.80884278  0.58307404  0.93737403  1
  O  O380  1  0.80915728  0.91694354  0.18740481  1
  O  O381  1  0.80573470  0.91668388  0.43781470  1
  O  O382  1  0.80616078  0.91657634  0.68828157  1
  O  O383  1  0.80604936  0.91667712  0.93957148  1
  O  O384  1  0.23521794  0.24979765  0.03871360  1
  O  O385  1  0.23542598  0.25002324  0.28807646  1
  O  O386  1  0.23347133  0.24967483  0.53835579  1
  O  O387  1  0.23279819  0.24969625  0.78808314  1
  O  O388  1  0.23369370  0.58340336  0.03734313  1
  O  O389  1  0.23353569  0.58338096  0.28735523  1
  O  O390  1  0.23189474  0.58336309  0.53997847  1
  O  O391  1  0.23205274  0.58318457  0.78964645  1
  O  O392  1  0.23587820  0.91620414  0.03927787  1
  O  O393  1  0.23564374  0.91711735  0.28756393  1
  O  O394  1  0.23172535  0.91650154  0.53902501  1
  O  O395  1  0.23217104  0.91728869  0.78996650  1
  O  O396  1  0.73487633  0.24986491  0.04113023  1
  O  O397  1  0.73461815  0.25026711  0.28785328  1
  O  O398  1  0.73461895  0.24990463  0.54064848  1
  O  O399  1  0.73528706  0.25035511  0.78849029  1
  O  O400  1  0.73463772  0.58340021  0.03831008  1
  O  O401  1  0.73358435  0.58279278  0.28970554  1
  O  O402  1  0.73231633  0.58386992  0.53925313  1
  O  O403  1  0.73289488  0.58289284  0.79083099  1
  O  O404  1  0.73191814  0.91699902  0.04056876  1
  O  O405  1  0.73403621  0.91680285  0.28719803  1
  O  O406  1  0.73165596  0.91633082  0.53915748  1
  O  O407  1  0.73378786  0.91700463  0.79084389  1
  O  O408  1  0.26725081  0.08301830  0.21151873  1
  O  O409  1  0.26642723  0.08395368  0.46161079  1
  O  O410  1  0.26516251  0.08312086  0.70904697  1
  O  O411  1  0.26734252  0.08344124  0.96289201  1
  O  O412  1  0.26577880  0.41700542  0.20844338  1
  O  O413  1  0.26810067  0.41659752  0.46040755  1
  O  O414  1  0.26466663  0.41683738  0.71189150  1
  O  O415  1  0.26440587  0.41656202  0.96119593  1
  O  O416  1  0.26789090  0.74959947  0.21147036  1
  O  O417  1  0.26745278  0.74995690  0.45963115  1
  O  O418  1  0.26602040  0.74971961  0.70965454  1
  O  O419  1  0.26683622  0.74983966  0.95976127  1
  O  O420  1  0.76413438  0.08320741  0.21204561  1
  O  O421  1  0.76557875  0.08350749  0.45826320  1
  O  O422  1  0.76826469  0.08313201  0.71075468  1
  O  O423  1  0.76671062  0.08343434  0.96378063  1
  O  O424  1  0.76683608  0.41691313  0.20996805  1
  O  O425  1  0.76718284  0.41647110  0.46224164  1
  O  O426  1  0.76745218  0.41741814  0.71059728  1
  O  O427  1  0.76876989  0.41597038  0.96099872  1
  O  O428  1  0.76436403  0.75009578  0.21124495  1
  O  O429  1  0.76536976  0.74994545  0.45808521  1
  O  O430  1  0.76657334  0.74938702  0.71308740  1
  O  O431  1  0.76375884  0.75045778  0.96275098  1
  O  O432  1  0.01693402  0.08342688  0.16307984  1
  O  O433  1  0.01914775  0.08298002  0.41422188  1
  O  O434  1  0.01778568  0.08387631  0.66461514  1
  O  O435  1  0.01484956  0.08337451  0.91337723  1
  O  O436  1  0.01795611  0.41619038  0.16290353  1
  O  O437  1  0.01667432  0.41675849  0.41640034  1
  O  O438  1  0.01477198  0.41661749  0.66304159  1
  O  O439  1  0.01628729  0.41684951  0.91248624  1
  O  O440  1  0.01684197  0.75064516  0.16499715  1
  O  O441  1  0.01950093  0.75025949  0.41449049  1
  O  O442  1  0.01576910  0.74999133  0.66555445  1
  O  O443  1  0.01500835  0.74949963  0.91320840  1
  O  O444  1  0.51592837  0.08294876  0.16344382  1
  O  O445  1  0.51547308  0.08350170  0.41351937  1
  O  O446  1  0.51470826  0.08396664  0.66288082  1
  O  O447  1  0.51487197  0.08338606  0.91529953  1
  O  O448  1  0.51558865  0.41651225  0.16590355  1
  O  O449  1  0.51521532  0.41612228  0.41590632  1
  O  O450  1  0.51648538  0.41614578  0.66226596  1
  O  O451  1  0.51582582  0.41694486  0.91542754  1
  O  O452  1  0.51703405  0.75022969  0.16576495  1
  O  O453  1  0.51626508  0.74998022  0.41354467  1
  O  O454  1  0.51551551  0.75006133  0.66192643  1
  O  O455  1  0.51759112  0.74962992  0.91436412  1
  O  O456  1  0.48114478  0.24939334  0.08559825  1
  O  O457  1  0.48120943  0.24943891  0.33600202  1
  O  O458  1  0.48181044  0.25025976  0.58556441  1
  O  O459  1  0.48128669  0.25010011  0.83567255  1
  O  O460  1  0.48139322  0.58409943  0.08546098  1
  O  O461  1  0.48421351  0.58326768  0.33798372  1
  O  O462  1  0.48574692  0.58286026  0.58670695  1
  O  O463  1  0.48270251  0.58332418  0.83398004  1
  O  O464  1  0.48224256  0.91643836  0.08501525  1
  O  O465  1  0.48442157  0.91689468  0.33722694  1
  O  O466  1  0.48398181  0.91692323  0.58415995  1
  O  O467  1  0.48246293  0.91671669  0.83703894  1
  O  O468  1  0.98270726  0.24949371  0.08462633  1
  O  O469  1  0.98574544  0.24976217  0.33691986  1
  O  O470  1  0.98405243  0.24947927  0.58688053  1
  O  O471  1  0.98426854  0.25046479  0.83445037  1
  O  O472  1  0.98599715  0.58331985  0.08630323  1
  O  O473  1  0.98652604  0.58329479  0.33617328  1
  O  O474  1  0.98495556  0.58357748  0.58675719  1
  O  O475  1  0.98335340  0.58277093  0.83663391  1
  O  O476  1  0.98201470  0.91729938  0.08497786  1
  O  O477  1  0.98615492  0.91699265  0.33675411  1
  O  O478  1  0.98564920  0.91701005  0.58629529  1
  O  O479  1  0.98391555  0.91690294  0.83492478  1
  O  O480  1  0.08662406  0.31436511  0.07716974  1
  O  O481  1  0.08930286  0.31437772  0.32803779  1
  O  O482  1  0.08796771  0.31412623  0.57694814  1
  O  O483  1  0.08791754  0.31610813  0.82706816  1
  O  O484  1  0.08994710  0.64767837  0.07681067  1
  O  O485  1  0.08989612  0.64959258  0.32779794  1
  O  O486  1  0.08897429  0.64826867  0.57756409  1
  O  O487  1  0.08731337  0.64727066  0.82677673  1
  O  O488  1  0.08582467  0.98293123  0.07708871  1
  O  O489  1  0.08984333  0.98188847  0.32823489  1
  O  O490  1  0.08910800  0.98313751  0.57828357  1
  O  O491  1  0.08803376  0.98170368  0.82708643  1
  O  O492  1  0.58506083  0.31417203  0.07684219  1
  O  O493  1  0.58503073  0.31426676  0.32712335  1
  O  O494  1  0.58552716  0.31598837  0.57713689  1
  O  O495  1  0.58541652  0.31489584  0.82713048  1
  O  O496  1  0.58544425  0.64896085  0.07791502  1
  O  O497  1  0.58748181  0.64893359  0.32891420  1
  O  O498  1  0.58987285  0.64691143  0.57735397  1
  O  O499  1  0.58671089  0.64900713  0.82684266  1
  O  O500  1  0.58608910  0.98185619  0.07689325  1
  O  O501  1  0.58781520  0.98202498  0.32864347  1
  O  O502  1  0.58804243  0.98203433  0.57691348  1
  O  O503  1  0.58617469  0.98144522  0.82751059  1
  O  O504  1  0.41247046  0.01750999  0.17251784  1
  O  O505  1  0.41143294  0.01914203  0.42333658  1
  O  O506  1  0.41126862  0.01899039  0.67186384  1
  O  O507  1  0.41098259  0.01820242  0.92245141  1
  O  O508  1  0.41153919  0.35190441  0.17175801  1
  O  O509  1  0.41126490  0.35065482  0.42295823  1
  O  O510  1  0.41263303  0.35087035  0.67176684  1
  O  O511  1  0.41165663  0.35229085  0.92138825  1
  O  O512  1  0.41291964  0.68507171  0.17344831  1
  O  O513  1  0.41245166  0.68487208  0.42372792  1
  O  O514  1  0.41216038  0.68483634  0.67191679  1
  O  O515  1  0.41392028  0.68425971  0.92159067  1
  O  O516  1  0.91330607  0.01816610  0.17234191  1
  O  O517  1  0.91532935  0.01796411  0.42345220  1
  O  O518  1  0.91370382  0.01901458  0.67316347  1
  O  O519  1  0.91095842  0.01840497  0.92293957  1
  O  O520  1  0.91451635  0.35048040  0.17177488  1
  O  O521  1  0.91235880  0.35216160  0.42322341  1
  O  O522  1  0.91151088  0.35052991  0.67183722  1
  O  O523  1  0.91220134  0.35295152  0.92258461  1
  O  O524  1  0.91313803  0.68586832  0.17296826  1
  O  O525  1  0.91577950  0.68495612  0.42335779  1
  O  O526  1  0.91163484  0.68517281  0.67328513  1
  O  O527  1  0.91176871  0.68358114  0.92188850  1
  O  O528  1  0.16317516  0.01855084  0.20128060  1
  O  O529  1  0.16291988  0.01848627  0.45235022  1
  O  O530  1  0.16095258  0.01866305  0.70279063  1
  O  O531  1  0.16388222  0.01811035  0.95298270  1
  O  O532  1  0.16183720  0.35223211  0.20107724  1
  O  O533  1  0.16459004  0.35108690  0.45253965  1
  O  O534  1  0.16136129  0.35137748  0.70357931  1
  O  O535  1  0.16025441  0.35252781  0.95196938  1
  O  O536  1  0.16402560  0.68457068  0.20268573  1
  O  O537  1  0.16347180  0.68483575  0.45201205  1
  O  O538  1  0.16212831  0.68488377  0.70331282  1
  O  O539  1  0.16306793  0.68428660  0.95279543  1
  O  O540  1  0.66004332  0.01886711  0.20194353  1
  O  O541  1  0.66174441  0.01761205  0.45204260  1
  O  O542  1  0.66390682  0.01885695  0.70284651  1
  O  O543  1  0.66330781  0.01755645  0.95327941  1
  O  O544  1  0.66322993  0.35137090  0.20158583  1
  O  O545  1  0.66351174  0.35176356  0.45243290  1
  O  O546  1  0.66342566  0.35245540  0.70135341  1
  O  O547  1  0.66492399  0.35096523  0.95193924  1
  O  O548  1  0.66070769  0.68475395  0.20186807  1
  O  O549  1  0.66119628  0.68499312  0.45246396  1
  O  O550  1  0.66316437  0.68383657  0.70390993  1
  O  O551  1  0.65971564  0.68639163  0.95258239  1
  O  O552  1  0.33911682  0.31433228  0.04746066  1
  O  O553  1  0.33967665  0.31355473  0.29748190  1
  O  O554  1  0.33711058  0.31500111  0.54779230  1
  O  O555  1  0.33646003  0.31501605  0.79804230  1
  O  O556  1  0.33759661  0.64827381  0.04780690  1
  O  O557  1  0.33695759  0.64903600  0.29709550  1
  O  O558  1  0.33578918  0.64847657  0.54737552  1
  O  O559  1  0.33622613  0.64810739  0.79863402  1
  O  O560  1  0.33912185  0.98249020  0.04739494  1
  O  O561  1  0.33919050  0.98181253  0.29640616  1
  O  O562  1  0.33516624  0.98204918  0.54737974  1
  O  O563  1  0.33662975  0.98142615  0.79822207  1
  O  O564  1  0.83908203  0.31508324  0.04799346  1
  O  O565  1  0.83855908  0.31491829  0.29705952  1
  O  O566  1  0.83869932  0.31530371  0.54743122  1
  O  O567  1  0.83890994  0.31537048  0.79591570  1
  O  O568  1  0.83847248  0.64762276  0.04732251  1
  O  O569  1  0.83690421  0.64870105  0.29825218  1
  O  O570  1  0.83631353  0.64825709  0.54763707  1
  O  O571  1  0.83692785  0.64821067  0.79858368  1
  O  O572  1  0.83603785  0.98250961  0.04893650  1
  O  O573  1  0.83760171  0.98176200  0.29765977  1
  O  O574  1  0.83549062  0.98164517  0.54732281  1
  O  O575  1  0.83777883  0.98171223  0.79714272  1
  O  O576  1  0.41181831  0.14764429  0.17249930  1
  O  O577  1  0.41161195  0.14903604  0.42251055  1
  O  O578  1  0.41103812  0.14929884  0.67099418  1
  O  O579  1  0.41082263  0.14839463  0.92227716  1
  O  O580  1  0.41221620  0.48234611  0.17230887  1
  O  O581  1  0.41117908  0.48076612  0.42433288  1
  O  O582  1  0.41289131  0.48102463  0.67252963  1
  O  O583  1  0.41218445  0.48254582  0.92140767  1
  O  O584  1  0.41304108  0.81521183  0.17304190  1
  O  O585  1  0.41233358  0.81475985  0.42346170  1
  O  O586  1  0.41202291  0.81513153  0.67177740  1
  O  O587  1  0.41365646  0.81444602  0.92185731  1
  O  O588  1  0.91333212  0.14851245  0.17209691  1
  O  O589  1  0.91535103  0.14800581  0.42318106  1
  O  O590  1  0.91371068  0.14903532  0.67274087  1
  O  O591  1  0.91112470  0.14839215  0.92254882  1
  O  O592  1  0.91438622  0.48082774  0.17241125  1
  O  O593  1  0.91274222  0.48217148  0.42353352  1
  O  O594  1  0.91075144  0.48071390  0.67289615  1
  O  O595  1  0.91295880  0.48297448  0.92263800  1
  O  O596  1  0.91319524  0.81630952  0.17236188  1
  O  O597  1  0.91551071  0.81507954  0.42325867  1
  O  O598  1  0.91175095  0.81523683  0.67292941  1
  O  O599  1  0.91117457  0.81379309  0.92231156  1
  O  O600  1  0.08645715  0.18420034  0.07714467  1
  O  O601  1  0.08916188  0.18412506  0.32840848  1
  O  O602  1  0.08804306  0.18421619  0.57782687  1
  O  O603  1  0.08845394  0.18601083  0.82656290  1
  O  O604  1  0.08944519  0.51753877  0.07761895  1
  O  O605  1  0.09075303  0.51943735  0.32744083  1
  O  O606  1  0.08867954  0.51834994  0.57731200  1
  O  O607  1  0.08704301  0.51730653  0.82743494  1
  O  O608  1  0.08610086  0.85276455  0.07684033  1
  O  O609  1  0.08963695  0.85156752  0.32798498  1
  O  O610  1  0.08982018  0.85301816  0.57735424  1
  O  O611  1  0.08779381  0.85173462  0.82672609  1
  O  O612  1  0.58487907  0.18402790  0.07723317  1
  O  O613  1  0.58494744  0.18406697  0.32747928  1
  O  O614  1  0.58582997  0.18587921  0.57702263  1
  O  O615  1  0.58501655  0.18473414  0.82682540  1
  O  O616  1  0.58520323  0.51888707  0.07688565  1
  O  O617  1  0.58774596  0.51854294  0.32847402  1
  O  O618  1  0.58914415  0.51666858  0.57794719  1
  O  O619  1  0.58718103  0.51893764  0.82651674  1
  O  O620  1  0.58640688  0.85177691  0.07753092  1
  O  O621  1  0.58779677  0.85164080  0.32855901  1
  O  O622  1  0.58811708  0.85201324  0.57694604  1
  O  O623  1  0.58607917  0.85116460  0.82816677  1
  O  O624  1  0.33886830  0.18428570  0.04711954  1
  O  O625  1  0.33839098  0.18341343  0.29723550  1
  O  O626  1  0.33738815  0.18487712  0.54743893  1
  O  O627  1  0.33681267  0.18509835  0.79755878  1
  O  O628  1  0.33727233  0.51828692  0.04775021  1
  O  O629  1  0.33714914  0.51894764  0.29719719  1
  O  O630  1  0.33569278  0.51824391  0.54792169  1
  O  O631  1  0.33602718  0.51827100  0.79893725  1
  O  O632  1  0.34022655  0.85238939  0.04772314  1
  O  O633  1  0.33894099  0.85145918  0.29649450  1
  O  O634  1  0.33567545  0.85170994  0.54687744  1
  O  O635  1  0.33603344  0.85155930  0.79844351  1
  O  O636  1  0.83892248  0.18494387  0.04806006  1
  O  O637  1  0.83793938  0.18476300  0.29764033  1
  O  O638  1  0.83888643  0.18526543  0.54782930  1
  O  O639  1  0.83869935  0.18491782  0.79658678  1
  O  O640  1  0.83810465  0.51732838  0.04697686  1
  O  O641  1  0.83782803  0.51859174  0.29758466  1
  O  O642  1  0.83589156  0.51812591  0.54763462  1
  O  O643  1  0.83728321  0.51815923  0.79784657  1
  O  O644  1  0.83619733  0.85253422  0.04928535  1
  O  O645  1  0.83755724  0.85164739  0.29752458  1
  O  O646  1  0.83573242  0.85156084  0.54718450  1
  O  O647  1  0.83714611  0.85127381  0.79755446  1
  O  O648  1  0.16354499  0.14841968  0.20132765  1
  O  O649  1  0.16260846  0.14873381  0.45239796  1
  O  O650  1  0.16158782  0.14882280  0.70226220  1
  O  O651  1  0.16359524  0.14812981  0.95277755  1
  O  O652  1  0.16186951  0.48236229  0.20215393  1
  O  O653  1  0.16409327  0.48132530  0.45309012  1
  O  O654  1  0.16091806  0.48164941  0.70386237  1
  O  O655  1  0.16095546  0.48260521  0.95292635  1
  O  O656  1  0.16448188  0.81469331  0.20171469  1
  O  O657  1  0.16349630  0.81501627  0.45167790  1
  O  O658  1  0.16252563  0.81525168  0.70331099  1
  O  O659  1  0.16275896  0.81439402  0.95259388  1
  O  O660  1  0.66065443  0.14882452  0.20157146  1
  O  O661  1  0.66114019  0.14777265  0.45141859  1
  O  O662  1  0.66468271  0.14884468  0.70215713  1
  O  O663  1  0.66308256  0.14785732  0.95269309  1
  O  O664  1  0.66283802  0.48148315  0.20186881  1
  O  O665  1  0.66357934  0.48199961  0.45332846  1
  O  O666  1  0.66324634  0.48250839  0.70270321  1
  O  O667  1  0.66483928  0.48115713  0.95206214  1
  O  O668  1  0.66034575  0.81473547  0.20196817  1
  O  O669  1  0.66133175  0.81513794  0.45214708  1
  O  O670  1  0.66276948  0.81396152  0.70334724  1
  O  O671  1  0.66048947  0.81666120  0.95341484  1
