# generated using pymatgen
data_Na2MnFe(PO4)2
_symmetry_space_group_name_H-M   'P 1'
_cell_length_a   21.07955560
_cell_length_b   18.93139415
_cell_length_c   20.03949363
_cell_angle_alpha   90.00042934
_cell_angle_beta   89.99632906
_cell_angle_gamma   90.00048992
_symmetry_Int_Tables_number   1
_chemical_formula_structural   Na2MnFe(PO4)2
_chemical_formula_sum   'Na96 Mn48 Fe48 P96 O384'
_cell_volume   7997.06803390
_cell_formula_units_Z   48
loop_
 _symmetry_equiv_pos_site_id
 _symmetry_equiv_pos_as_xyz
  1  'x, y, z'
loop_
 _atom_site_type_symbol
 _atom_site_label
 _atom_site_symmetry_multiplicity
 _atom_site_fract_x
 _atom_site_fract_y
 _atom_site_fract_z
 _atom_site_occupancy
  Na  Na0  1  -0.00041888  0.00035449  0.00152699  1
  Na  Na1  1  0.00030204  0.00109186  0.24913306  1
  Na  Na2  1  -0.00006373  0.00077429  0.49909121  1
  Na  Na3  1  0.00062000  0.00055815  0.75008197  1
  Na  Na4  1  -0.00195413  0.33228527  -0.00016886  1
  Na  Na5  1  0.00031659  0.33323202  0.24907344  1
  Na  Na6  1  -0.00044577  0.33276887  0.50110401  1
  Na  Na7  1  0.00015159  0.33355920  0.74983767  1
  Na  Na8  1  0.00086452  0.66712274  0.00041960  1
  Na  Na9  1  -0.00064033  0.66566814  0.25041525  1
  Na  Na10  1  -0.00063353  0.66665115  0.49955035  1
  Na  Na11  1  -0.00137912  0.66662874  0.74951497  1
  Na  Na12  1  0.50042419  0.00068669  0.00072056  1
  Na  Na13  1  0.49937044  0.00031382  0.24960236  1
  Na  Na14  1  0.49933408  0.00015403  0.49963914  1
  Na  Na15  1  0.50076185  0.00046519  0.75028906  1
  Na  Na16  1  0.49901158  0.33251397  0.00067672  1
  Na  Na17  1  0.50078952  0.33373420  0.24963184  1
  Na  Na18  1  0.50120473  0.33392267  0.50020916  1
  Na  Na19  1  0.49954337  0.33271563  0.75047149  1
  Na  Na20  1  0.49877510  0.66625202  -0.00087775  1
  Na  Na21  1  0.49889324  0.66584125  0.25082147  1
  Na  Na22  1  0.50210320  0.66758011  0.50001494  1
  Na  Na23  1  0.50026180  0.66640727  0.75004128  1
  Na  Na24  1  0.25149074  0.00056660  0.12609861  1
  Na  Na25  1  0.25054319  0.00039361  0.37514780  1
  Na  Na26  1  0.25034348  0.00059680  0.62487575  1
  Na  Na27  1  0.25068770  0.00026919  0.87362679  1
  Na  Na28  1  0.25189570  0.33354605  0.12550006  1
  Na  Na29  1  0.24745881  0.33193367  0.37417387  1
  Na  Na30  1  0.24905009  0.33280955  0.62455087  1
  Na  Na31  1  0.25122527  0.33296638  0.87550618  1
  Na  Na32  1  0.25027060  0.66639157  0.12535854  1
  Na  Na33  1  0.24946115  0.66618471  0.37573202  1
  Na  Na34  1  0.24806033  0.66618778  0.62436171  1
  Na  Na35  1  0.25006607  0.66711309  0.87462308  1
  Na  Na36  1  0.74833212  0.00098127  0.12511244  1
  Na  Na37  1  0.74908434  0.00067494  0.37580187  1
  Na  Na38  1  0.75038203  0.00045444  0.62564673  1
  Na  Na39  1  0.74835489  0.00043595  0.87418733  1
  Na  Na40  1  0.74999277  0.33312473  0.12607817  1
  Na  Na41  1  0.75120275  0.33340109  0.37424717  1
  Na  Na42  1  0.75297663  0.33442091  0.62450500  1
  Na  Na43  1  0.75023428  0.33332797  0.87497580  1
  Na  Na44  1  0.75005408  0.66620527  0.12451170  1
  Na  Na45  1  0.75249561  0.66750560  0.37619058  1
  Na  Na46  1  0.75083985  0.66603797  0.62417032  1
  Na  Na47  1  0.75181282  0.66745284  0.87425791  1
  Na  Na48  1  -0.00102706  0.16656293  0.00096991  1
  Na  Na49  1  -0.00239046  0.16692344  0.24940382  1
  Na  Na50  1  -0.00073292  0.16670484  0.50008951  1
  Na  Na51  1  0.00249045  0.16502332  0.74982847  1
  Na  Na52  1  -0.00252774  0.50049407  0.00057588  1
  Na  Na53  1  0.00061866  0.49944074  0.24915640  1
  Na  Na54  1  -0.00107671  0.50040543  0.50010954  1
  Na  Na55  1  -0.00285865  0.50067885  0.74973937  1
  Na  Na56  1  0.00120856  0.83338960  0.00003041  1
  Na  Na57  1  0.00177340  0.83325107  0.24998266  1
  Na  Na58  1  -0.00127946  0.83402242  0.49940872  1
  Na  Na59  1  0.00009132  0.83286623  0.74992451  1
  Na  Na60  1  0.49933920  0.16701244  0.00039182  1
  Na  Na61  1  0.50023768  0.16589464  0.25004273  1
  Na  Na62  1  0.50041466  0.16573708  0.49929700  1
  Na  Na63  1  0.50086962  0.16598633  0.75017829  1
  Na  Na64  1  0.49872455  0.49986680  0.00032481  1
  Na  Na65  1  0.49899864  0.50055039  0.25005464  1
  Na  Na66  1  0.50161281  0.50045048  0.50018658  1
  Na  Na67  1  0.50145047  0.49936906  0.74936843  1
  Na  Na68  1  0.49998255  0.83390274  -0.00026765  1
  Na  Na69  1  0.49951397  0.83409468  0.24993375  1
  Na  Na70  1  0.49857517  0.83418608  0.49980292  1
  Na  Na71  1  0.49909981  0.83386562  0.75139603  1
  Na  Na72  1  0.25222342  0.16559269  0.12491511  1
  Na  Na73  1  0.24992557  0.16593926  0.37487844  1
  Na  Na74  1  0.24790358  0.16667121  0.62526224  1
  Na  Na75  1  0.25005839  0.16668642  0.87511322  1
  Na  Na76  1  0.25092294  0.49952094  0.12672260  1
  Na  Na77  1  0.24812998  0.50064261  0.37430249  1
  Na  Na78  1  0.24860669  0.50029344  0.62449840  1
  Na  Na79  1  0.25169348  0.49936976  0.87480248  1
  Na  Na80  1  0.25136003  0.83341673  0.12521907  1
  Na  Na81  1  0.25028542  0.83398746  0.37593302  1
  Na  Na82  1  0.25071819  0.83286170  0.62430291  1
  Na  Na83  1  0.24940649  0.83381937  0.87388829  1
  Na  Na84  1  0.74998865  0.16587179  0.12584496  1
  Na  Na85  1  0.75111904  0.16544207  0.37501657  1
  Na  Na86  1  0.74895750  0.16663440  0.62420868  1
  Na  Na87  1  0.74840202  0.16677349  0.87533131  1
  Na  Na88  1  0.75137446  0.49891415  0.12500477  1
  Na  Na89  1  0.75042085  0.50047085  0.37494188  1
  Na  Na90  1  0.75275892  0.49977681  0.62539847  1
  Na  Na91  1  0.75149941  0.49958455  0.87429040  1
  Na  Na92  1  0.74748935  0.83484200  0.12465834  1
  Na  Na93  1  0.75051045  0.83341130  0.37638299  1
  Na  Na94  1  0.75328494  0.83206832  0.62468703  1
  Na  Na95  1  0.74895973  0.83439958  0.87424736  1
  Mn  Mn96  1  0.14295822  0.24977598  0.99816064  1
  Mn  Mn97  1  0.14220532  0.91654819  0.49779453  1
  Mn  Mn98  1  0.14201849  0.91693756  0.74711769  1
  Mn  Mn99  1  0.85756826  0.75111617  0.25203964  1
  Mn  Mn100  1  0.39264143  0.58397227  0.62660082  1
  Mn  Mn101  1  0.39248906  0.91749294  0.87738362  1
  Mn  Mn102  1  0.64255006  0.24956732  0.24823481  1
  Mn  Mn103  1  0.64244747  0.91582619  0.74694746  1
  Mn  Mn104  1  0.60812336  0.74940327  0.87219910  1
  Mn  Mn105  1  0.10856480  0.75013575  0.12297881  1
  Mn  Mn106  1  0.60717284  0.41660511  0.12241207  1
  Mn  Mn107  1  0.85818790  0.41634384  0.25305985  1
  Mn  Mn108  1  0.10758148  0.08357111  0.12296069  1
  Mn  Mn109  1  0.39225524  0.24969940  0.62718864  1
  Mn  Mn110  1  0.10701068  0.41703364  0.62281135  1
  Mn  Mn111  1  0.39226040  0.25046594  0.37737264  1
  Mn  Mn112  1  0.89214467  0.24960220  0.87758505  1
  Mn  Mn113  1  0.64251253  0.91612942  0.49839877  1
  Mn  Mn114  1  0.35783251  0.75004967  0.00226070  1
  Mn  Mn115  1  0.35818047  0.41693208  0.75181146  1
  Mn  Mn116  1  0.64212807  0.58413406  0.24816495  1
  Mn  Mn117  1  0.14294439  0.91707173  0.99800724  1
  Mn  Mn118  1  0.14125467  0.58279333  0.74799212  1
  Mn  Mn119  1  0.10761760  0.41657042  0.87334033  1
  Mn  Mn120  1  0.64310448  0.25076821  0.49739252  1
  Mn  Mn121  1  0.35777429  0.75034537  0.25264329  1
  Mn  Mn122  1  0.39209508  0.58241928  0.87684650  1
  Mn  Mn123  1  0.14281889  0.58287851  0.99728797  1
  Mn  Mn124  1  0.60928670  0.41691169  0.62227438  1
  Mn  Mn125  1  0.64368574  0.58359668  0.74792420  1
  Mn  Mn126  1  0.35740310  0.41621965  0.50159227  1
  Mn  Mn127  1  0.14143527  0.25013502  0.49709167  1
  Mn  Mn128  1  0.89213464  0.91707798  0.37672917  1
  Mn  Mn129  1  0.10725754  0.75021127  0.37236726  1
  Mn  Mn130  1  0.60727262  0.75003053  0.12263541  1
  Mn  Mn131  1  0.85788872  0.08344326  0.75251007  1
  Mn  Mn132  1  0.64206347  0.58280397  0.99751381  1
  Mn  Mn133  1  0.10764905  0.41618398  0.12211882  1
  Mn  Mn134  1  0.35783230  0.74988633  0.50292952  1
  Mn  Mn135  1  0.64182805  0.25060892  0.74772487  1
  Mn  Mn136  1  0.60816870  0.75031105  0.37285459  1
  Mn  Mn137  1  0.35766406  0.08343134  0.75188261  1
  Mn  Mn138  1  0.89253862  0.24948955  0.62782446  1
  Mn  Mn139  1  0.89198412  0.58347024  0.12729100  1
  Mn  Mn140  1  0.89104513  0.91694524  0.12763045  1
  Mn  Mn141  1  0.85778482  0.75093936  0.00244353  1
  Mn  Mn142  1  0.35722796  0.41615770  0.25329320  1
  Mn  Mn143  1  0.89248481  0.91684674  0.87779302  1
  Fe  Fe144  1  0.64223169  0.24995573  0.99876189  1
  Fe  Fe145  1  0.60746162  0.41603116  0.87379566  1
  Fe  Fe146  1  0.39299369  0.24972633  0.12721363  1
  Fe  Fe147  1  0.10651205  0.41598637  0.37365790  1
  Fe  Fe148  1  0.14254817  0.58343465  0.24859966  1
  Fe  Fe149  1  0.14140976  0.58309812  0.49784281  1
  Fe  Fe150  1  0.89280647  0.58376682  0.87717334  1
  Fe  Fe151  1  0.64422444  0.58317984  0.49828594  1
  Fe  Fe152  1  0.39250798  0.58336028  0.37757208  1
  Fe  Fe153  1  0.85620480  0.08387508  0.00143268  1
  Fe  Fe154  1  0.14280984  0.25024971  0.74935052  1
  Fe  Fe155  1  0.85622518  0.08249683  0.25201503  1
  Fe  Fe156  1  0.85816757  0.74998843  0.75191299  1
  Fe  Fe157  1  0.85801685  0.75016554  0.50226450  1
  Fe  Fe158  1  0.60699980  0.08343439  0.37345380  1
  Fe  Fe159  1  0.10788724  0.08305379  0.87423526  1
  Fe  Fe160  1  0.39268212  0.24995518  0.87687822  1
  Fe  Fe161  1  0.64149018  0.91674138  0.24887984  1
  Fe  Fe162  1  0.35845511  0.41630652  0.00177032  1
  Fe  Fe163  1  0.89306792  0.58252539  0.37685092  1
  Fe  Fe164  1  0.35731195  0.08337304  0.25203782  1
  Fe  Fe165  1  0.14354998  0.91699746  0.24849093  1
  Fe  Fe166  1  0.85655097  0.41550599  0.00130449  1
  Fe  Fe167  1  0.89320949  0.25016045  0.37629876  1
  Fe  Fe168  1  0.60709003  0.08259186  0.62302164  1
  Fe  Fe169  1  0.39206729  0.58345863  0.12711499  1
  Fe  Fe170  1  0.60665806  0.08366516  0.12329269  1
  Fe  Fe171  1  0.60794781  0.75061859  0.62378012  1
  Fe  Fe172  1  0.89141434  0.24973213  0.12646638  1
  Fe  Fe173  1  0.85814508  0.41657637  0.50098349  1
  Fe  Fe174  1  0.35699301  0.74958520  0.75078115  1
  Fe  Fe175  1  0.39312020  0.91702212  0.12702634  1
  Fe  Fe176  1  0.10706253  0.08238054  0.62254772  1
  Fe  Fe177  1  0.39270741  0.91656000  0.37661283  1
  Fe  Fe178  1  0.39307154  0.91639475  0.62641923  1
  Fe  Fe179  1  0.85752544  0.08301108  0.50178873  1
  Fe  Fe180  1  0.35828755  0.08360646  0.00172642  1
  Fe  Fe181  1  0.60814549  0.41680376  0.37386477  1
  Fe  Fe182  1  0.14210837  0.24919893  0.24774386  1
  Fe  Fe183  1  0.60704602  0.08425054  0.87390016  1
  Fe  Fe184  1  0.10651217  0.75029281  0.62338057  1
  Fe  Fe185  1  0.89288759  0.58429886  0.62642948  1
  Fe  Fe186  1  0.64193130  0.91737778  0.99855924  1
  Fe  Fe187  1  0.89306187  0.91676495  0.62638811  1
  Fe  Fe188  1  0.35726744  0.08365120  0.50167604  1
  Fe  Fe189  1  0.85778757  0.41654436  0.75271355  1
  Fe  Fe190  1  0.10697788  0.08408880  0.37283951  1
  Fe  Fe191  1  0.10732083  0.75010249  0.87271552  1
  P  P192  1  0.05275482  0.24953557  0.11067416  1
  P  P193  1  0.05257673  0.24965803  0.35931633  1
  P  P194  1  0.05471445  0.24906408  0.61146892  1
  P  P195  1  0.05394322  0.24902768  0.85996053  1
  P  P196  1  0.05473544  0.58319416  0.11076406  1
  P  P197  1  0.05348846  0.58224167  0.36063681  1
  P  P198  1  0.05238666  0.58422664  0.60951653  1
  P  P199  1  0.05182436  0.58349693  0.86013423  1
  P  P200  1  0.05436815  0.91715213  0.11113841  1
  P  P201  1  0.05398512  0.91807879  0.35914792  1
  P  P202  1  0.05219256  0.91647155  0.60972682  1
  P  P203  1  0.05376900  0.91712469  0.86031483  1
  P  P204  1  0.55290968  0.24904817  0.11002332  1
  P  P205  1  0.55364983  0.25005944  0.36016546  1
  P  P206  1  0.55368776  0.24910982  0.60961165  1
  P  P207  1  0.55349997  0.25014989  0.86179627  1
  P  P208  1  0.55158893  0.58343580  0.11001502  1
  P  P209  1  0.55371386  0.58277769  0.36153508  1
  P  P210  1  0.55522747  0.58464078  0.60938976  1
  P  P211  1  0.55367501  0.58166862  0.85974463  1
  P  P212  1  0.55371228  0.91781088  0.11097124  1
  P  P213  1  0.55269060  0.91752301  0.35986793  1
  P  P214  1  0.55239611  0.91618600  0.61014300  1
  P  P215  1  0.55506774  0.91800417  0.86132588  1
  P  P216  1  0.44562374  0.08355579  0.13941138  1
  P  P217  1  0.44568082  0.08269190  0.38909329  1
  P  P218  1  0.44669797  0.08254346  0.63870602  1
  P  P219  1  0.44716394  0.08420570  0.89055332  1
  P  P220  1  0.44491405  0.41635988  0.13928296  1
  P  P221  1  0.44812259  0.41740105  0.39018509  1
  P  P222  1  0.44750731  0.41689019  0.63971092  1
  P  P223  1  0.44738823  0.41564353  0.89046069  1
  P  P224  1  0.44632853  0.75027055  0.14002517  1
  P  P225  1  0.44640061  0.75008435  0.39013052  1
  P  P226  1  0.44768923  0.75069660  0.64058388  1
  P  P227  1  0.44560875  0.74991459  0.88869114  1
  P  P228  1  0.94360308  0.08416322  0.13948694  1
  P  P229  1  0.94582867  0.08409524  0.38893092  1
  P  P230  1  0.94665774  0.08236094  0.63888344  1
  P  P231  1  0.94749192  0.08323922  0.89108033  1
  P  P232  1  0.94466173  0.41538264  0.13866836  1
  P  P233  1  0.94751688  0.41603879  0.39020707  1
  P  P234  1  0.94441934  0.41754718  0.63934426  1
  P  P235  1  0.94482949  0.41706220  0.88975265  1
  P  P236  1  0.94696448  0.75043319  0.14045683  1
  P  P237  1  0.94574839  0.74961473  0.39029137  1
  P  P238  1  0.94582568  0.75037828  0.63890702  1
  P  P239  1  0.94702166  0.74965895  0.88910367  1
  P  P240  1  0.19628886  0.08345850  0.23634853  1
  P  P241  1  0.19573901  0.08294703  0.48505382  1
  P  P242  1  0.19462188  0.08417488  0.73553902  1
  P  P243  1  0.19821959  0.08327564  0.98477896  1
  P  P244  1  0.19433149  0.41604972  0.23654653  1
  P  P245  1  0.19530819  0.41735960  0.48392286  1
  P  P246  1  0.19651402  0.41569006  0.73505742  1
  P  P247  1  0.19876675  0.41627558  0.98527008  1
  P  P248  1  0.19665386  0.75036231  0.23565321  1
  P  P249  1  0.19481291  0.74947105  0.48615723  1
  P  P250  1  0.19542738  0.74998065  0.73475061  1
  P  P251  1  0.19644094  0.75023363  0.98396811  1
  P  P252  1  0.69484525  0.08252812  0.23589821  1
  P  P253  1  0.69595844  0.08307741  0.48573125  1
  P  P254  1  0.69466673  0.08360837  0.73526531  1
  P  P255  1  0.69520475  0.08401155  0.98602636  1
  P  P256  1  0.69549572  0.41685289  0.23606399  1
  P  P257  1  0.69847819  0.41765909  0.48440674  1
  P  P258  1  0.69758781  0.41674478  0.73602497  1
  P  P259  1  0.69696369  0.41545727  0.98467797  1
  P  P260  1  0.69656140  0.75095282  0.23508137  1
  P  P261  1  0.69727017  0.74935634  0.48677034  1
  P  P262  1  0.69826721  0.74975424  0.73380630  1
  P  P263  1  0.69653869  0.75071489  0.98465574  1
  P  P264  1  0.30588497  0.24968905  0.01462915  1
  P  P265  1  0.30315140  0.24886795  0.26397765  1
  P  P266  1  0.30292963  0.24898675  0.51482340  1
  P  P267  1  0.30301910  0.24976897  0.76555661  1
  P  P268  1  0.30415668  0.58233698  0.01587443  1
  P  P269  1  0.30376662  0.58336713  0.26512580  1
  P  P270  1  0.30267687  0.58286251  0.51399597  1
  P  P271  1  0.30300505  0.58434908  0.76438203  1
  P  P272  1  0.30448303  0.91789050  0.01568147  1
  P  P273  1  0.30438707  0.91768271  0.26472388  1
  P  P274  1  0.30538614  0.91779175  0.51452608  1
  P  P275  1  0.30483750  0.91570911  0.76312139  1
  P  P276  1  0.80207460  0.24973460  0.01551932  1
  P  P277  1  0.80513370  0.24861204  0.26467024  1
  P  P278  1  0.80553742  0.24973629  0.51322331  1
  P  P279  1  0.80329474  0.25001183  0.76521981  1
  P  P280  1  0.80439670  0.58248855  0.01360535  1
  P  P281  1  0.80406249  0.58358928  0.26604828  1
  P  P282  1  0.80532644  0.58285119  0.51409104  1
  P  P283  1  0.80643941  0.58386396  0.76408403  1
  P  P284  1  0.80148630  0.91816135  0.01474123  1
  P  P285  1  0.80097790  0.91785969  0.26534023  1
  P  P286  1  0.80450632  0.91732000  0.51560670  1
  P  P287  1  0.80502870  0.91608285  0.76374886  1
  O  O288  1  0.05799833  0.24930695  0.18732821  1
  O  O289  1  0.05580916  0.24935015  0.43611133  1
  O  O290  1  0.05874714  0.24983115  0.68815122  1
  O  O291  1  0.05675541  0.24990010  0.93680220  1
  O  O292  1  0.05929598  0.58311388  0.18757543  1
  O  O293  1  0.05773079  0.58311801  0.43738067  1
  O  O294  1  0.05577929  0.58345712  0.68624962  1
  O  O295  1  0.05570050  0.58278736  0.93685409  1
  O  O296  1  0.05940913  0.91740945  0.18784439  1
  O  O297  1  0.05672742  0.91737059  0.43592451  1
  O  O298  1  0.05569564  0.91651982  0.68650052  1
  O  O299  1  0.05659818  0.91718257  0.93707121  1
  O  O300  1  0.55688619  0.24961749  0.18668581  1
  O  O301  1  0.55678158  0.24991620  0.43692938  1
  O  O302  1  0.55625782  0.24988377  0.68647048  1
  O  O303  1  0.55794243  0.25022264  0.93846688  1
  O  O304  1  0.55572904  0.58342580  0.18672180  1
  O  O305  1  0.55949261  0.58346426  0.43812969  1
  O  O306  1  0.55828227  0.58358913  0.68618117  1
  O  O307  1  0.55631840  0.58256442  0.93654864  1
  O  O308  1  0.55801342  0.91704642  0.18768180  1
  O  O309  1  0.55664203  0.91698208  0.43655917  1
  O  O310  1  0.55589655  0.91617330  0.68687187  1
  O  O311  1  0.55884049  0.91721253  0.93815007  1
  O  O312  1  0.44171786  0.08346766  0.06270187  1
  O  O313  1  0.44109204  0.08351265  0.31235686  1
  O  O314  1  0.44199627  0.08347138  0.56204851  1
  O  O315  1  0.44347518  0.08345666  0.81382432  1
  O  O316  1  0.44148847  0.41629309  0.06250328  1
  O  O317  1  0.44389260  0.41675266  0.31345490  1
  O  O318  1  0.44381164  0.41698931  0.56298478  1
  O  O319  1  0.44398731  0.41625765  0.81369768  1
  O  O320  1  0.44388777  0.75030823  0.06321484  1
  O  O321  1  0.44331304  0.74986946  0.31338332  1
  O  O322  1  0.44395618  0.74992707  0.56380542  1
  O  O323  1  0.44122195  0.74981659  0.81199279  1
  O  O324  1  0.93912916  0.08333040  0.06274143  1
  O  O325  1  0.94092764  0.08280968  0.31227603  1
  O  O326  1  0.94188581  0.08321212  0.56221814  1
  O  O327  1  0.94369589  0.08331046  0.81432142  1
  O  O328  1  0.94024429  0.41555121  0.06192538  1
  O  O329  1  0.94444570  0.41635720  0.31343435  1
  O  O330  1  0.94096017  0.41646287  0.56252448  1
  O  O331  1  0.94129101  0.41592636  0.81288744  1
  O  O332  1  0.94365736  0.75086840  0.06362173  1
  O  O333  1  0.94306540  0.75042648  0.31350490  1
  O  O334  1  0.94149446  0.75029120  0.56214510  1
  O  O335  1  0.94239309  0.75041651  0.81239068  1
  O  O336  1  0.19401809  0.08323346  0.06149820  1
  O  O337  1  0.19152243  0.08381196  0.31301157  1
  O  O338  1  0.19071627  0.08267742  0.56179774  1
  O  O339  1  0.19092481  0.08291539  0.81231196  1
  O  O340  1  0.19457156  0.41630421  0.06198526  1
  O  O341  1  0.18988579  0.41588618  0.31327644  1
  O  O342  1  0.19242828  0.41680044  0.56074313  1
  O  O343  1  0.19362776  0.41645839  0.81183801  1
  O  O344  1  0.19358995  0.75019651  0.06080791  1
  O  O345  1  0.19385741  0.75037142  0.31247005  1
  O  O346  1  0.19020199  0.75015221  0.56290556  1
  O  O347  1  0.19058157  0.75010311  0.81149569  1
  O  O348  1  0.69079119  0.08395077  0.06276696  1
  O  O349  1  0.69029806  0.08335357  0.31265789  1
  O  O350  1  0.69086339  0.08288141  0.56243583  1
  O  O351  1  0.69026004  0.08386316  0.81205470  1
  O  O352  1  0.69327037  0.41625889  0.06147158  1
  O  O353  1  0.69105987  0.41684199  0.31283429  1
  O  O354  1  0.69523771  0.41697065  0.56119744  1
  O  O355  1  0.69202551  0.41634096  0.81261555  1
  O  O356  1  0.69325478  0.74983660  0.06147532  1
  O  O357  1  0.69412226  0.75013331  0.31195795  1
  O  O358  1  0.69228753  0.75024510  0.56334355  1
  O  O359  1  0.69381142  0.75016394  0.81051556  1
  O  O360  1  0.30844531  0.24953112  0.18734814  1
  O  O361  1  0.30630041  0.24952282  0.43802127  1
  O  O362  1  0.30648923  0.24941711  0.68878387  1
  O  O363  1  0.30961907  0.24971060  0.93778855  1
  O  O364  1  0.30889096  0.58340798  0.18843397  1
  O  O365  1  0.30817774  0.58300289  0.43731392  1
  O  O366  1  0.30606888  0.58380989  0.68761294  1
  O  O367  1  0.30693275  0.58300475  0.93901895  1
  O  O368  1  0.30922394  0.91696647  0.18803686  1
  O  O369  1  0.30932554  0.91694340  0.43771937  1
  O  O370  1  0.30904655  0.91647587  0.68637601  1
  O  O371  1  0.30704943  0.91735489  0.93880188  1
  O  O372  1  0.80831032  0.24968351  0.18789250  1
  O  O373  1  0.80920479  0.24962638  0.43643848  1
  O  O374  1  0.80663329  0.24914856  0.68840791  1
  O  O375  1  0.80565158  0.24950492  0.93880105  1
  O  O376  1  0.80683842  0.58318038  0.18919537  1
  O  O377  1  0.80966400  0.58299368  0.43735309  1
  O  O378  1  0.80978727  0.58404625  0.68722517  1
  O  O379  1  0.80841718  0.58360606  0.93680791  1
  O  O380  1  0.80446454  0.91749105  0.18865078  1
  O  O381  1  0.80693448  0.91755076  0.43876236  1
  O  O382  1  0.80954490  0.91680227  0.68704213  1
  O  O383  1  0.80556160  0.91763082  0.93802584  1
  O  O384  1  0.23587326  0.24951135  0.03923117  1
  O  O385  1  0.23272163  0.24899315  0.28743638  1
  O  O386  1  0.23316397  0.24937280  0.53957708  1
  O  O387  1  0.23302876  0.24979845  0.79023862  1
  O  O388  1  0.23449484  0.58282030  0.04120909  1
  O  O389  1  0.23312232  0.58330954  0.28806364  1
  O  O390  1  0.23222753  0.58304126  0.53728193  1
  O  O391  1  0.23341855  0.58354496  0.78986505  1
  O  O392  1  0.23488833  0.91722295  0.04116640  1
  O  O393  1  0.23400370  0.91735168  0.28845217  1
  O  O394  1  0.23529958  0.91687996  0.53863965  1
  O  O395  1  0.23476954  0.91678524  0.78727240  1
  O  O396  1  0.73202894  0.24965895  0.04040126  1
  O  O397  1  0.73520356  0.24923045  0.28926377  1
  O  O398  1  0.73567261  0.25017943  0.53810212  1
  O  O399  1  0.73361576  0.25000916  0.79020064  1
  O  O400  1  0.73449083  0.58227012  0.03834355  1
  O  O401  1  0.73440498  0.58399988  0.29121621  1
  O  O402  1  0.73502320  0.58289318  0.53821152  1
  O  O403  1  0.73647496  0.58378155  0.78872078  1
  O  O404  1  0.73135300  0.91800779  0.03911843  1
  O  O405  1  0.73120358  0.91749312  0.29068977  1
  O  O406  1  0.73485835  0.91665377  0.54102394  1
  O  O407  1  0.73491032  0.91678458  0.78759882  1
  O  O408  1  0.26666691  0.08332288  0.21255709  1
  O  O409  1  0.26619994  0.08308677  0.46177373  1
  O  O410  1  0.26471020  0.08339292  0.71128156  1
  O  O411  1  0.26839738  0.08355341  0.96061237  1
  O  O412  1  0.26452435  0.41616834  0.21275801  1
  O  O413  1  0.26493440  0.41630514  0.45849145  1
  O  O414  1  0.26603855  0.41634275  0.70935210  1
  O  O415  1  0.26885069  0.41611990  0.96097335  1
  O  O416  1  0.26624511  0.75010711  0.21014875  1
  O  O417  1  0.26496196  0.75000874  0.46231616  1
  O  O418  1  0.26573065  0.74981923  0.71094147  1
  O  O419  1  0.26620036  0.75052278  0.95903987  1
  O  O420  1  0.76521992  0.08323753  0.21229694  1
  O  O421  1  0.76649472  0.08291687  0.46257059  1
  O  O422  1  0.76487605  0.08346058  0.71160538  1
  O  O423  1  0.76558058  0.08404900  0.96189080  1
  O  O424  1  0.76562847  0.41626384  0.21238288  1
  O  O425  1  0.76855322  0.41702430  0.45976998  1
  O  O426  1  0.76806088  0.41706612  0.71279826  1
  O  O427  1  0.76710370  0.41595806  0.96029884  1
  O  O428  1  0.76593445  0.75075117  0.20903057  1
  O  O429  1  0.76778524  0.75012148  0.46339030  1
  O  O430  1  0.76851878  0.74923597  0.71010753  1
  O  O431  1  0.76623249  0.75099373  0.95944048  1
  O  O432  1  0.01388658  0.08383695  0.16301118  1
  O  O433  1  0.01632081  0.08382934  0.41242187  1
  O  O434  1  0.01698260  0.08255583  0.66264919  1
  O  O435  1  0.01760936  0.08349145  0.91554167  1
  O  O436  1  0.01469047  0.41613862  0.16275813  1
  O  O437  1  0.01746338  0.41604052  0.41528432  1
  O  O438  1  0.01441635  0.41705686  0.66380171  1
  O  O439  1  0.01473091  0.41618472  0.91449215  1
  O  O440  1  0.01657633  0.74981611  0.16558738  1
  O  O441  1  0.01553093  0.75045432  0.41526812  1
  O  O442  1  0.01618696  0.74993228  0.66288517  1
  O  O443  1  0.01732361  0.75005502  0.91301434  1
  O  O444  1  0.51599182  0.08352770  0.16339001  1
  O  O445  1  0.51620158  0.08308096  0.41256276  1
  O  O446  1  0.51695220  0.08268906  0.66280639  1
  O  O447  1  0.51722111  0.08397810  0.91509240  1
  O  O448  1  0.51486064  0.41650198  0.16392682  1
  O  O449  1  0.51823803  0.41704077  0.41457020  1
  O  O450  1  0.51734219  0.41651681  0.66443538  1
  O  O451  1  0.51731409  0.41612159  0.91546822  1
  O  O452  1  0.51578781  0.75016681  0.16599652  1
  O  O453  1  0.51614357  0.75070520  0.41519337  1
  O  O454  1  0.51776726  0.75020291  0.66519266  1
  O  O455  1  0.51563490  0.74993416  0.91290242  1
  O  O456  1  0.48266335  0.24940783  0.08614466  1
  O  O457  1  0.48401805  0.24991660  0.33472312  1
  O  O458  1  0.48417125  0.24966158  0.58395099  1
  O  O459  1  0.48330640  0.24973033  0.83737427  1
  O  O460  1  0.48146235  0.58319974  0.08579256  1
  O  O461  1  0.48318851  0.58310663  0.33824984  1
  O  O462  1  0.48539489  0.58415811  0.58447800  1
  O  O463  1  0.48414449  0.58216839  0.83416070  1
  O  O464  1  0.48335873  0.91759029  0.08712001  1
  O  O465  1  0.48249431  0.91698988  0.33564704  1
  O  O466  1  0.48249675  0.91650669  0.58513800  1
  O  O467  1  0.48509812  0.91760363  0.83696232  1
  O  O468  1  0.98238005  0.24924385  0.08725023  1
  O  O469  1  0.98248117  0.24978872  0.33470069  1
  O  O470  1  0.98471377  0.24950331  0.58709895  1
  O  O471  1  0.98428024  0.24927392  0.83461165  1
  O  O472  1  0.98463333  0.58353574  0.08702047  1
  O  O473  1  0.98304716  0.58272681  0.33687091  1
  O  O474  1  0.98219661  0.58403764  0.58521094  1
  O  O475  1  0.98186686  0.58341143  0.83537061  1
  O  O476  1  0.98420312  0.91735626  0.08744548  1
  O  O477  1  0.98417887  0.91726050  0.33405842  1
  O  O478  1  0.98231213  0.91677992  0.58474267  1
  O  O479  1  0.98418890  0.91698439  0.83474680  1
  O  O480  1  0.08592477  0.31456290  0.07714592  1
  O  O481  1  0.08657977  0.31473420  0.32688689  1
  O  O482  1  0.08820318  0.31407194  0.57808705  1
  O  O483  1  0.08839750  0.31393335  0.82729246  1
  O  O484  1  0.08839635  0.64816643  0.07775959  1
  O  O485  1  0.08718022  0.64712298  0.32713256  1
  O  O486  1  0.08626857  0.64923663  0.57689428  1
  O  O487  1  0.08568780  0.64855496  0.82749621  1
  O  O488  1  0.08781185  0.98216453  0.07774521  1
  O  O489  1  0.08780246  0.98339171  0.32691982  1
  O  O490  1  0.08641826  0.98138638  0.57712895  1
  O  O491  1  0.08785785  0.98242230  0.82812771  1
  O  O492  1  0.58686211  0.31386468  0.07675743  1
  O  O493  1  0.58780378  0.31523220  0.32802187  1
  O  O494  1  0.58845231  0.31404963  0.57744744  1
  O  O495  1  0.58678450  0.31541177  0.82850497  1
  O  O496  1  0.58524579  0.64847596  0.07711105  1
  O  O497  1  0.58670190  0.64799724  0.32784796  1
  O  O498  1  0.58911664  0.65006095  0.57736302  1
  O  O499  1  0.58821754  0.64655571  0.82726541  1
  O  O500  1  0.58705604  0.98315688  0.07808779  1
  O  O501  1  0.58625889  0.98265504  0.32700937  1
  O  O502  1  0.58649391  0.98111393  0.57743223  1
  O  O503  1  0.58835015  0.98343106  0.82886833  1
  O  O504  1  0.41206026  0.01853592  0.17270090  1
  O  O505  1  0.41250570  0.01747729  0.42214062  1
  O  O506  1  0.41337628  0.01735396  0.67173592  1
  O  O507  1  0.41313561  0.01938870  0.92371515  1
  O  O508  1  0.41147138  0.35096046  0.17213438  1
  O  O509  1  0.41430942  0.35221240  0.42285438  1
  O  O510  1  0.41334210  0.35188078  0.67223129  1
  O  O511  1  0.41339350  0.35051844  0.92290237  1
  O  O512  1  0.41194461  0.68519869  0.17220560  1
  O  O513  1  0.41263726  0.68490925  0.42287541  1
  O  O514  1  0.41331781  0.68578217  0.67327158  1
  O  O515  1  0.41202971  0.68484382  0.92172306  1
  O  O516  1  0.90995660  0.01932624  0.17326710  1
  O  O517  1  0.91229165  0.01930249  0.42280487  1
  O  O518  1  0.91347218  0.01718671  0.67200022  1
  O  O519  1  0.91351403  0.01826409  0.92385869  1
  O  O520  1  0.91153797  0.35008680  0.17177565  1
  O  O521  1  0.91349863  0.35089276  0.42258817  1
  O  O522  1  0.91038114  0.35285023  0.67283391  1
  O  O523  1  0.91041705  0.35233691  0.92288331  1
  O  O524  1  0.91248902  0.68549326  0.17252219  1
  O  O525  1  0.91208876  0.68427780  0.42261684  1
  O  O526  1  0.91226158  0.68535331  0.67206187  1
  O  O527  1  0.91368748  0.68448223  0.92208078  1
  O  O528  1  0.16310830  0.01822560  0.20316624  1
  O  O529  1  0.16239640  0.01805601  0.45152326  1
  O  O530  1  0.16057775  0.01951887  0.70172446  1
  O  O531  1  0.16450533  0.01830211  0.95167173  1
  O  O532  1  0.16119092  0.35078764  0.20317655  1
  O  O533  1  0.16038028  0.35258977  0.45151043  1
  O  O534  1  0.16257182  0.35030089  0.70312045  1
  O  O535  1  0.16483284  0.35124039  0.95269017  1
  O  O536  1  0.16244881  0.68517641  0.20353974  1
  O  O537  1  0.16150522  0.68424339  0.45319109  1
  O  O538  1  0.16154191  0.68509107  0.70166883  1
  O  O539  1  0.16234724  0.68513788  0.95143853  1
  O  O540  1  0.66158974  0.01735671  0.20282511  1
  O  O541  1  0.66244316  0.01810897  0.45238716  1
  O  O542  1  0.66106624  0.01856471  0.70200413  1
  O  O543  1  0.66167316  0.01912516  0.95261674  1
  O  O544  1  0.66182173  0.35182942  0.20301112  1
  O  O545  1  0.66413409  0.35289707  0.45150527  1
  O  O546  1  0.66469554  0.35173825  0.70210101  1
  O  O547  1  0.66338016  0.35002015  0.95232274  1
  O  O548  1  0.66219656  0.68596006  0.20263701  1
  O  O549  1  0.66459048  0.68403341  0.45331487  1
  O  O550  1  0.66418046  0.68491467  0.70111424  1
  O  O551  1  0.66282918  0.68544324  0.95195422  1
  O  O552  1  0.33954709  0.31476643  0.04763440  1
  O  O553  1  0.33624618  0.31387905  0.29783450  1
  O  O554  1  0.33698805  0.31405755  0.54732061  1
  O  O555  1  0.33728320  0.31476367  0.79799844  1
  O  O556  1  0.33854328  0.64739457  0.04837390  1
  O  O557  1  0.33700769  0.64834137  0.29867328  1
  O  O558  1  0.33595377  0.64789624  0.54753808  1
  O  O559  1  0.33683571  0.64966201  0.79657917  1
  O  O560  1  0.33851601  0.98314493  0.04785689  1
  O  O561  1  0.33770534  0.98285912  0.29781650  1
  O  O562  1  0.33855802  0.98328724  0.54718537  1
  O  O563  1  0.33879208  0.98050543  0.79645722  1
  O  O564  1  0.83612586  0.31484405  0.04811011  1
  O  O565  1  0.83948858  0.31321126  0.29799416  1
  O  O566  1  0.83941491  0.31485870  0.54580356  1
  O  O567  1  0.83751312  0.31509412  0.79730747  1
  O  O568  1  0.83789110  0.64759185  0.04685651  1
  O  O569  1  0.83873644  0.64840599  0.29817754  1
  O  O570  1  0.83878057  0.64794702  0.54747527  1
  O  O571  1  0.84012685  0.64904720  0.79698199  1
  O  O572  1  0.83506886  0.98325666  0.04746242  1
  O  O573  1  0.83501116  0.98298480  0.29786377  1
  O  O574  1  0.83847266  0.98256729  0.54799984  1
  O  O575  1  0.83856790  0.98092881  0.79731305  1
  O  O576  1  0.41213444  0.14862646  0.17272956  1
  O  O577  1  0.41212965  0.14747960  0.42283694  1
  O  O578  1  0.41336850  0.14750288  0.67242631  1
  O  O579  1  0.41324725  0.14925392  0.92306946  1
  O  O580  1  0.41110194  0.48141406  0.17207855  1
  O  O581  1  0.41429611  0.48239050  0.42289576  1
  O  O582  1  0.41380716  0.48215694  0.67228285  1
  O  O583  1  0.41287535  0.48044636  0.92317341  1
  O  O584  1  0.41222721  0.81566087  0.17206210  1
  O  O585  1  0.41204406  0.81523880  0.42212238  1
  O  O586  1  0.41371000  0.81587212  0.67289921  1
  O  O587  1  0.41220883  0.81503622  0.92186044  1
  O  O588  1  0.91022086  0.14931618  0.17242450  1
  O  O589  1  0.91267444  0.14931590  0.42208865  1
  O  O590  1  0.91339877  0.14726350  0.67274694  1
  O  O591  1  0.91315434  0.14813067  0.92373116  1
  O  O592  1  0.91094562  0.48030607  0.17193613  1
  O  O593  1  0.91333447  0.48096653  0.42286514  1
  O  O594  1  0.91104771  0.48305702  0.67158201  1
  O  O595  1  0.91129785  0.48245283  0.92202607  1
  O  O596  1  0.91313125  0.81569423  0.17297706  1
  O  O597  1  0.91105803  0.81441983  0.42280431  1
  O  O598  1  0.91270198  0.81556363  0.67222496  1
  O  O599  1  0.91360048  0.81467125  0.92267114  1
  O  O600  1  0.08633112  0.18466135  0.07731143  1
  O  O601  1  0.08650694  0.18461970  0.32636508  1
  O  O602  1  0.08796487  0.18380923  0.57839073  1
  O  O603  1  0.08822979  0.18374393  0.82820871  1
  O  O604  1  0.08777867  0.51800373  0.07731892  1
  O  O605  1  0.08662851  0.51701416  0.32763201  1
  O  O606  1  0.08628552  0.51924265  0.57652915  1
  O  O607  1  0.08545627  0.51828547  0.82725559  1
  O  O608  1  0.08775541  0.85205877  0.07799457  1
  O  O609  1  0.08874223  0.85329422  0.32670190  1
  O  O610  1  0.08588724  0.85127029  0.57718645  1
  O  O611  1  0.08801587  0.85210194  0.82775533  1
  O  O612  1  0.58652118  0.18391401  0.07719503  1
  O  O613  1  0.58766211  0.18478127  0.32787245  1
  O  O614  1  0.58769046  0.18384229  0.57763322  1
  O  O615  1  0.58712597  0.18510224  0.82872587  1
  O  O616  1  0.58549162  0.51840664  0.07723319  1
  O  O617  1  0.58673835  0.51768035  0.32805157  1
  O  O618  1  0.58987196  0.51992469  0.57653191  1
  O  O619  1  0.58776085  0.51625080  0.82799952  1
  O  O620  1  0.58737873  0.85308319  0.07728325  1
  O  O621  1  0.58683025  0.85266668  0.32689939  1
  O  O622  1  0.58616681  0.85092301  0.57755049  1
  O  O623  1  0.58888111  0.85314592  0.82793522  1
  O  O624  1  0.33965427  0.18453669  0.04750509  1
  O  O625  1  0.33650417  0.18380660  0.29712816  1
  O  O626  1  0.33669531  0.18366324  0.54719319  1
  O  O627  1  0.33712185  0.18482353  0.79835463  1
  O  O628  1  0.33821920  0.51713993  0.04803662  1
  O  O629  1  0.33694679  0.51833391  0.29871757  1
  O  O630  1  0.33583382  0.51778548  0.54732447  1
  O  O631  1  0.33756795  0.51942162  0.79678284  1
  O  O632  1  0.33920322  0.85307419  0.04812950  1
  O  O633  1  0.33790983  0.85283346  0.29844004  1
  O  O634  1  0.33961157  0.85315756  0.54790852  1
  O  O635  1  0.33774420  0.85023806  0.79594393  1
  O  O636  1  0.83616082  0.18477154  0.04826489  1
  O  O637  1  0.83856944  0.18321063  0.29712976  1
  O  O638  1  0.83887400  0.18438153  0.54625736  1
  O  O639  1  0.83716497  0.18498781  0.79810651  1
  O  O640  1  0.83812118  0.51715380  0.04592242  1
  O  O641  1  0.83823364  0.51844884  0.29856592  1
  O  O642  1  0.83875642  0.51770386  0.54706556  1
  O  O643  1  0.84025188  0.51880823  0.79688699  1
  O  O644  1  0.83525389  0.85312863  0.04777208  1
  O  O645  1  0.83537529  0.85299438  0.29787877  1
  O  O646  1  0.83934695  0.85241513  0.54758111  1
  O  O647  1  0.83803261  0.85052112  0.79657096  1
  O  O648  1  0.16303328  0.14843111  0.20259605  1
  O  O649  1  0.16221436  0.14792333  0.45162825  1
  O  O650  1  0.16136270  0.14967931  0.70316154  1
  O  O651  1  0.16405579  0.14813375  0.95201581  1
  O  O652  1  0.16111669  0.48141646  0.20364274  1
  O  O653  1  0.16132361  0.48265937  0.45183436  1
  O  O654  1  0.16187188  0.48055163  0.70255771  1
  O  O655  1  0.16497209  0.48122361  0.95225827  1
  O  O656  1  0.16287971  0.81573936  0.20338246  1
  O  O657  1  0.16137348  0.81448110  0.45280842  1
  O  O658  1  0.16199331  0.81506828  0.70128274  1
  O  O659  1  0.16212652  0.81522379  0.95160043  1
  O  O660  1  0.66119683  0.14728754  0.20211557  1
  O  O661  1  0.66285312  0.14808654  0.45205957  1
  O  O662  1  0.66111953  0.14852429  0.70196155  1
  O  O663  1  0.66183587  0.14925210  0.95287276  1
  O  O664  1  0.66244074  0.48204541  0.20274097  1
  O  O665  1  0.66458766  0.48286366  0.45207088  1
  O  O666  1  0.66459146  0.48185372  0.70248503  1
  O  O667  1  0.66281438  0.48010088  0.95142612  1
  O  O668  1  0.66213042  0.81629389  0.20360417  1
  O  O669  1  0.66373533  0.81417839  0.45309662  1
  O  O670  1  0.66471774  0.81481170  0.70052672  1
  O  O671  1  0.66228393  0.81592780  0.95281454  1
