# generated using pymatgen
data_Na2MnFe(PO4)2
_symmetry_space_group_name_H-M   'P 1'
_cell_length_a   21.07965538
_cell_length_b   18.93148440
_cell_length_c   20.03956457
_cell_angle_alpha   89.99941994
_cell_angle_beta   89.99906296
_cell_angle_gamma   90.00042967
_symmetry_Int_Tables_number   1
_chemical_formula_structural   Na2MnFe(PO4)2
_chemical_formula_sum   'Na96 Mn48 Fe48 P96 O384'
_cell_volume   7997.17233842
_cell_formula_units_Z   48
loop_
 _symmetry_equiv_pos_site_id
 _symmetry_equiv_pos_as_xyz
  1  'x, y, z'
loop_
 _atom_site_type_symbol
 _atom_site_label
 _atom_site_symmetry_multiplicity
 _atom_site_fract_x
 _atom_site_fract_y
 _atom_site_fract_z
 _atom_site_occupancy
  Na  Na0  1  -0.00139777  -0.00070301  0.00056027  1
  Na  Na1  1  -0.00136315  0.00018331  0.25052016  1
  Na  Na2  1  -0.00160749  -0.00010397  0.49922254  1
  Na  Na3  1  0.00074261  0.00085587  0.74902698  1
  Na  Na4  1  -0.00087609  0.33263315  0.00089068  1
  Na  Na5  1  0.00032700  0.33345010  0.24912371  1
  Na  Na6  1  0.00099355  0.33428536  0.49926732  1
  Na  Na7  1  -0.00167601  0.33284586  0.75039499  1
  Na  Na8  1  0.00117995  0.66750923  -0.00044290  1
  Na  Na9  1  -0.00063433  0.66694922  0.25042935  1
  Na  Na10  1  -0.00110079  0.66698098  0.49964085  1
  Na  Na11  1  0.00039206  0.66726054  0.74996272  1
  Na  Na12  1  0.49833858  -0.00052841  0.00072885  1
  Na  Na13  1  0.49897565  -0.00053877  0.25055948  1
  Na  Na14  1  0.50178285  -0.00028987  0.49929581  1
  Na  Na15  1  0.50256562  0.00054993  0.75003571  1
  Na  Na16  1  0.50065362  0.33313568  0.00090865  1
  Na  Na17  1  0.50051959  0.33238301  0.25070882  1
  Na  Na18  1  0.50098838  0.33260128  0.49965027  1
  Na  Na19  1  0.50154759  0.33362879  0.74944765  1
  Na  Na20  1  0.49889224  0.66609046  0.00029933  1
  Na  Na21  1  0.49823314  0.66668519  0.25118205  1
  Na  Na22  1  0.50082650  0.66724564  0.50012975  1
  Na  Na23  1  0.50204234  0.66725955  0.74875900  1
  Na  Na24  1  0.25158523  0.00111185  0.12530807  1
  Na  Na25  1  0.25212210  0.00052811  0.37518352  1
  Na  Na26  1  0.24779108  -0.00085006  0.62430155  1
  Na  Na27  1  0.24890147  0.00033834  0.87513318  1
  Na  Na28  1  0.25107017  0.33344260  0.12612217  1
  Na  Na29  1  0.24946602  0.33260516  0.37549418  1
  Na  Na30  1  0.24851904  0.33314111  0.62355421  1
  Na  Na31  1  0.24957334  0.33310952  0.87483889  1
  Na  Na32  1  0.25015206  0.66720846  0.12525948  1
  Na  Na33  1  0.25082210  0.66784110  0.37547760  1
  Na  Na34  1  0.24903408  0.66668225  0.62417866  1
  Na  Na35  1  0.25034401  0.66713390  0.87563369  1
  Na  Na36  1  0.75108307  0.00026133  0.12429676  1
  Na  Na37  1  0.75035189  -0.00006925  0.37451852  1
  Na  Na38  1  0.74974445  -0.00068112  0.62525966  1
  Na  Na39  1  0.75042142  -0.00057551  0.87535457  1
  Na  Na40  1  0.74969544  0.33312222  0.12365754  1
  Na  Na41  1  0.74934270  0.33259960  0.37488033  1
  Na  Na42  1  0.75033470  0.33310863  0.62519223  1
  Na  Na43  1  0.75088050  0.33387655  0.87606021  1
  Na  Na44  1  0.75114032  0.66742360  0.12612898  1
  Na  Na45  1  0.75047856  0.66728454  0.37421753  1
  Na  Na46  1  0.74839838  0.66611521  0.62518795  1
  Na  Na47  1  0.74963317  0.66647247  0.87447754  1
  Na  Na48  1  -0.00004892  0.16607816  0.00151472  1
  Na  Na49  1  -0.00060086  0.16614579  0.24949736  1
  Na  Na50  1  -0.00214654  0.16702294  0.49891931  1
  Na  Na51  1  0.00001023  0.16548742  0.74916282  1
  Na  Na52  1  -0.00060226  0.50021917  -0.00059199  1
  Na  Na53  1  -0.00130190  0.50061102  0.25003557  1
  Na  Na54  1  0.00031362  0.49921770  0.49898508  1
  Na  Na55  1  -0.00055752  0.50038907  0.75100729  1
  Na  Na56  1  -0.00043377  0.83403058  0.00015959  1
  Na  Na57  1  -0.00046048  0.83310825  0.25044791  1
  Na  Na58  1  -0.00044443  0.83270751  0.50008745  1
  Na  Na59  1  -0.00070351  0.83388638  0.74889540  1
  Na  Na60  1  0.49799717  0.16702980  0.00112919  1
  Na  Na61  1  0.49903565  0.16690653  0.25030594  1
  Na  Na62  1  0.50175996  0.16569806  0.49882258  1
  Na  Na63  1  0.50153937  0.16609712  0.75017345  1
  Na  Na64  1  0.50180841  0.49945894  0.00017170  1
  Na  Na65  1  0.49980780  0.50057614  0.25124198  1
  Na  Na66  1  0.50111589  0.50045307  0.50049870  1
  Na  Na67  1  0.50122875  0.50025079  0.74895950  1
  Na  Na68  1  0.49849329  0.83422152  0.00075243  1
  Na  Na69  1  0.49904416  0.83405693  0.25095860  1
  Na  Na70  1  0.50183299  0.83315790  0.49997414  1
  Na  Na71  1  0.50280502  0.83279049  0.74891050  1
  Na  Na72  1  0.25054757  0.16652020  0.12516278  1
  Na  Na73  1  0.25113091  0.16601495  0.37547810  1
  Na  Na74  1  0.24752496  0.16699090  0.62462533  1
  Na  Na75  1  0.25034457  0.16554937  0.87517547  1
  Na  Na76  1  0.24897324  0.50063014  0.12583593  1
  Na  Na77  1  0.25015733  0.49982133  0.37585847  1
  Na  Na78  1  0.24933350  0.50052401  0.62367082  1
  Na  Na79  1  0.24976829  0.50034511  0.87458862  1
  Na  Na80  1  0.25132997  0.83299990  0.12590378  1
  Na  Na81  1  0.25131563  0.83286682  0.37480480  1
  Na  Na82  1  0.24844710  0.83348092  0.62352637  1
  Na  Na83  1  0.24863121  0.83360289  0.87594979  1
  Na  Na84  1  0.74933274  0.16693659  0.12433159  1
  Na  Na85  1  0.75132919  0.16556100  0.37521982  1
  Na  Na86  1  0.74895189  0.16721351  0.62479671  1
  Na  Na87  1  0.75186137  0.16523798  0.87557057  1
  Na  Na88  1  0.75065569  0.49933550  0.12501758  1
  Na  Na89  1  0.75030838  0.50040337  0.37378680  1
  Na  Na90  1  0.75042640  0.50020569  0.62556025  1
  Na  Na91  1  0.74891256  0.50058405  0.87552754  1
  Na  Na92  1  0.75153953  0.83318719  0.12483826  1
  Na  Na93  1  0.74862050  0.83402726  0.37443641  1
  Na  Na94  1  0.74938660  0.83361328  0.62518893  1
  Na  Na95  1  0.75029833  0.83404115  0.87492445  1
  Mn  Mn96  1  0.35730022  0.08289216  0.75141496  1
  Mn  Mn97  1  0.89192232  0.58298611  0.37739386  1
  Mn  Mn98  1  0.39174100  0.58290199  0.12762608  1
  Mn  Mn99  1  0.89183865  0.58370987  0.87757022  1
  Mn  Mn100  1  0.35811439  0.41663743  0.25304800  1
  Mn  Mn101  1  0.89221984  0.24996643  0.12827183  1
  Mn  Mn102  1  0.64243642  0.91652067  0.99847634  1
  Mn  Mn103  1  0.39202979  0.25066968  0.87695622  1
  Mn  Mn104  1  0.14251638  0.25043500  0.99800806  1
  Mn  Mn105  1  0.85734381  0.74960414  0.75173436  1
  Mn  Mn106  1  0.10754608  0.41574917  0.87253497  1
  Mn  Mn107  1  0.39296651  0.24951304  0.62712460  1
  Mn  Mn108  1  0.60821519  0.08276905  0.37199599  1
  Mn  Mn109  1  0.89127317  0.91693206  0.37730413  1
  Mn  Mn110  1  0.60812699  0.41707232  0.37253291  1
  Mn  Mn111  1  0.14178885  0.91640167  0.49740027  1
  Mn  Mn112  1  0.64253075  0.58324159  0.24739723  1
  Mn  Mn113  1  0.14239221  0.58332021  0.24794806  1
  Mn  Mn114  1  0.14163057  0.58382768  0.49786116  1
  Mn  Mn115  1  0.64190591  0.58394647  0.99832373  1
  Mn  Mn116  1  0.14192687  0.91682826  0.99864395  1
  Mn  Mn117  1  0.85790637  0.41706903  0.50236106  1
  Mn  Mn118  1  0.14094408  0.24989695  0.74763105  1
  Mn  Mn119  1  0.35763009  0.75026397  0.00228581  1
  Mn  Mn120  1  0.64284072  0.24965226  0.74828397  1
  Mn  Mn121  1  0.39171232  0.91631802  0.87613577  1
  Mn  Mn122  1  0.85808595  0.08366554  0.75238853  1
  Mn  Mn123  1  0.35742624  0.41693106  0.50221964  1
  Mn  Mn124  1  0.35783835  0.75040215  0.75120235  1
  Mn  Mn125  1  0.35860173  0.41639688  0.00218381  1
  Mn  Mn126  1  0.60922250  0.41617378  0.62219198  1
  Mn  Mn127  1  0.60742135  0.75016699  0.12327804  1
  Mn  Mn128  1  0.14302615  0.91745069  0.24797660  1
  Mn  Mn129  1  0.85743043  0.41665680  0.00224473  1
  Mn  Mn130  1  0.10788164  0.75128112  0.87227149  1
  Mn  Mn131  1  0.10757295  0.41714166  0.12267887  1
  Mn  Mn132  1  0.60783962  0.74951828  0.87318138  1
  Mn  Mn133  1  0.60785528  0.08356015  0.87364986  1
  Mn  Mn134  1  0.85872405  0.75016451  0.00249781  1
  Mn  Mn135  1  0.14119888  0.24974590  0.49706452  1
  Mn  Mn136  1  0.35789812  0.41676791  0.75198610  1
  Mn  Mn137  1  0.39329579  0.91706075  0.62754586  1
  Mn  Mn138  1  0.14189902  0.58371854  0.74717528  1
  Mn  Mn139  1  0.64205833  0.24942356  0.99780421  1
  Mn  Mn140  1  0.10682114  0.08342292  0.37214339  1
  Mn  Mn141  1  0.89176596  0.25053554  0.62713953  1
  Mn  Mn142  1  0.35829821  0.08280030  0.50300856  1
  Mn  Mn143  1  0.39335505  0.58340420  0.62729196  1
  Fe  Fe144  1  0.14233261  0.58312088  0.99880451  1
  Fe  Fe145  1  0.64305807  0.91644285  0.74835494  1
  Fe  Fe146  1  0.35723829  0.08334232  0.00206954  1
  Fe  Fe147  1  0.10691143  0.41662050  0.37254639  1
  Fe  Fe148  1  0.89244325  0.91611985  0.62652396  1
  Fe  Fe149  1  0.85707285  0.41595902  0.25126998  1
  Fe  Fe150  1  0.35745119  0.75045075  0.25269294  1
  Fe  Fe151  1  0.14317150  0.24939431  0.24883771  1
  Fe  Fe152  1  0.64282202  0.91727580  0.24765892  1
  Fe  Fe153  1  0.85658165  0.75035694  0.50150767  1
  Fe  Fe154  1  0.64336447  0.58368107  0.49817345  1
  Fe  Fe155  1  0.89217978  0.58364700  0.62636388  1
  Fe  Fe156  1  0.60879153  0.08297678  0.62300586  1
  Fe  Fe157  1  0.64328698  0.24996218  0.49776684  1
  Fe  Fe158  1  0.60670548  0.08333911  0.12360151  1
  Fe  Fe159  1  0.64272664  0.58343298  0.74833068  1
  Fe  Fe160  1  0.89273172  0.91748545  0.87609485  1
  Fe  Fe161  1  0.39381015  0.91621749  0.37722490  1
  Fe  Fe162  1  0.85746580  0.41687761  0.75175616  1
  Fe  Fe163  1  0.85758601  0.75030914  0.25188999  1
  Fe  Fe164  1  0.85631097  0.08266694  0.50190785  1
  Fe  Fe165  1  0.39239727  0.91720646  0.12748567  1
  Fe  Fe166  1  0.64359221  0.91639896  0.49816291  1
  Fe  Fe167  1  0.35761194  0.75021142  0.50184724  1
  Fe  Fe168  1  0.89212744  0.25046423  0.37564623  1
  Fe  Fe169  1  0.89280211  0.91605916  0.12704594  1
  Fe  Fe170  1  0.39315296  0.25007189  0.37705370  1
  Fe  Fe171  1  0.10620872  0.08334387  0.62264643  1
  Fe  Fe172  1  0.39309757  0.58307522  0.87616360  1
  Fe  Fe173  1  0.10695449  0.74978979  0.37316072  1
  Fe  Fe174  1  0.10693491  0.08322142  0.87391144  1
  Fe  Fe175  1  0.89290694  0.58407160  0.12616885  1
  Fe  Fe176  1  0.60855954  0.75064180  0.62214569  1
  Fe  Fe177  1  0.10725361  0.08255882  0.12376792  1
  Fe  Fe178  1  0.60757966  0.41606938  0.12416217  1
  Fe  Fe179  1  0.85825925  0.08313587  0.00202824  1
  Fe  Fe180  1  0.10720561  0.75042640  0.12453389  1
  Fe  Fe181  1  0.60761400  0.41686238  0.87303734  1
  Fe  Fe182  1  0.14113072  0.91645322  0.74771012  1
  Fe  Fe183  1  0.60725398  0.75000674  0.37329442  1
  Fe  Fe184  1  0.64276377  0.24931471  0.24843285  1
  Fe  Fe185  1  0.89266902  0.24898892  0.87685925  1
  Fe  Fe186  1  0.10644620  0.41696143  0.62394719  1
  Fe  Fe187  1  0.39300421  0.24970033  0.12757835  1
  Fe  Fe188  1  0.10631258  0.74978324  0.62273961  1
  Fe  Fe189  1  0.35764651  0.08331545  0.25156616  1
  Fe  Fe190  1  0.39302299  0.58380169  0.37744726  1
  Fe  Fe191  1  0.85670155  0.08367116  0.25086343  1
  P  P192  1  0.05483366  0.24883366  0.11171103  1
  P  P193  1  0.05231750  0.25033669  0.35878474  1
  P  P194  1  0.05260448  0.25017796  0.60965604  1
  P  P195  1  0.05173160  0.24857519  0.86053814  1
  P  P196  1  0.05274779  0.58443687  0.10984348  1
  P  P197  1  0.05327652  0.58371801  0.36005156  1
  P  P198  1  0.05153300  0.58327531  0.60993095  1
  P  P199  1  0.05430627  0.58342146  0.86098160  1
  P  P200  1  0.05236694  0.91675704  0.11103380  1
  P  P201  1  0.05289800  0.91581737  0.35990403  1
  P  P202  1  0.05277840  0.91654012  0.61046618  1
  P  P203  1  0.05247735  0.91804995  0.85953333  1
  P  P204  1  0.55397283  0.24914650  0.11200892  1
  P  P205  1  0.55451914  0.24964159  0.36038305  1
  P  P206  1  0.55508973  0.24871811  0.60893195  1
  P  P207  1  0.55330792  0.25062192  0.86027163  1
  P  P208  1  0.55300850  0.58286483  0.11071680  1
  P  P209  1  0.55390159  0.58467103  0.36159130  1
  P  P210  1  0.55643985  0.58416278  0.61006490  1
  P  P211  1  0.55314822  0.58273259  0.85931825  1
  P  P212  1  0.55320890  0.91773433  0.11180273  1
  P  P213  1  0.55504817  0.91568454  0.36065574  1
  P  P214  1  0.55629734  0.91696927  0.61018842  1
  P  P215  1  0.55395204  0.91659934  0.85960469  1
  P  P216  1  0.44566117  0.08339000  0.13977475  1
  P  P217  1  0.44552664  0.08301034  0.38859857  1
  P  P218  1  0.44913067  0.08302886  0.63997788  1
  P  P219  1  0.44583153  0.08309619  0.89071863  1
  P  P220  1  0.44808249  0.41566223  0.14059359  1
  P  P221  1  0.44681974  0.41664110  0.39033457  1
  P  P222  1  0.44755653  0.41641611  0.63975882  1
  P  P223  1  0.44831227  0.41776225  0.88976051  1
  P  P224  1  0.44561185  0.75090821  0.14122083  1
  P  P225  1  0.44611526  0.75049534  0.38977218  1
  P  P226  1  0.44791721  0.75047741  0.63847419  1
  P  P227  1  0.44665661  0.74920237  0.88958632  1
  P  P228  1  0.94598062  0.08221259  0.13973411  1
  P  P229  1  0.94355449  0.08450005  0.38891069  1
  P  P230  1  0.94564417  0.08239747  0.63806762  1
  P  P231  1  0.94707744  0.08313318  0.89052725  1
  P  P232  1  0.94588416  0.41771119  0.14046148  1
  P  P233  1  0.94613117  0.41542381  0.38819850  1
  P  P234  1  0.94667961  0.41788856  0.64044214  1
  P  P235  1  0.94514662  0.41565647  0.88908771  1
  P  P236  1  0.94725526  0.75012067  0.14055349  1
  P  P237  1  0.94539174  0.75021916  0.38970885  1
  P  P238  1  0.94569656  0.74983056  0.63819192  1
  P  P239  1  0.94662117  0.75130445  0.88951037  1
  P  P240  1  0.19744823  0.08404355  0.23489421  1
  P  P241  1  0.19505772  0.08292573  0.48543561  1
  P  P242  1  0.19386098  0.08230399  0.73517756  1
  P  P243  1  0.19598447  0.08332263  0.98600246  1
  P  P244  1  0.19557671  0.41570898  0.23652322  1
  P  P245  1  0.19390308  0.41694813  0.48516758  1
  P  P246  1  0.19604984  0.41678099  0.73355943  1
  P  P247  1  0.19685727  0.41731853  0.98509235  1
  P  P248  1  0.19644739  0.75035890  0.23600434  1
  P  P249  1  0.19544426  0.75006243  0.48496401  1
  P  P250  1  0.19561305  0.75098642  0.73370260  1
  P  P251  1  0.19476909  0.74952394  0.98682281  1
  P  P252  1  0.69706409  0.08317702  0.23422285  1
  P  P253  1  0.69666853  0.08271079  0.48586329  1
  P  P254  1  0.69652150  0.08249468  0.73480906  1
  P  P255  1  0.69714898  0.08283204  0.98634434  1
  P  P256  1  0.69738504  0.41552554  0.23444302  1
  P  P257  1  0.69721003  0.41712938  0.48465100  1
  P  P258  1  0.69705783  0.41706350  0.73636595  1
  P  P259  1  0.69435993  0.41670516  0.98565273  1
  P  P260  1  0.69669172  0.75106071  0.23623127  1
  P  P261  1  0.69627715  0.75010539  0.48525602  1
  P  P262  1  0.69578789  0.75013364  0.73460143  1
  P  P263  1  0.69734443  0.75029758  0.98514811  1
  P  P264  1  0.30443713  0.24938463  0.01596956  1
  P  P265  1  0.30440529  0.24900704  0.26493211  1
  P  P266  1  0.30431396  0.24979486  0.51415313  1
  P  P267  1  0.30246371  0.24961061  0.76468589  1
  P  P268  1  0.30318552  0.58310325  0.01420797  1
  P  P269  1  0.30417182  0.58421171  0.26631675  1
  P  P270  1  0.30485016  0.58464201  0.51390750  1
  P  P271  1  0.30383798  0.58384684  0.76527330  1
  P  P272  1  0.30400318  0.91750662  0.01582980  1
  P  P273  1  0.30575772  0.91708511  0.26477012  1
  P  P274  1  0.30500298  0.91556472  0.51393025  1
  P  P275  1  0.30095202  0.91647559  0.76453275  1
  P  P276  1  0.80495733  0.24883237  0.01404298  1
  P  P277  1  0.80235250  0.24978077  0.26494685  1
  P  P278  1  0.80330416  0.24933791  0.51344097  1
  P  P279  1  0.80424587  0.25075575  0.76593665  1
  P  P280  1  0.80368418  0.58358450  0.01617670  1
  P  P281  1  0.80505476  0.58334660  0.26335747  1
  P  P282  1  0.80278319  0.58446987  0.51529339  1
  P  P283  1  0.80332730  0.58277424  0.76380095  1
  P  P284  1  0.80586154  0.91752565  0.01458867  1
  P  P285  1  0.80353539  0.91686821  0.26338471  1
  P  P286  1  0.80281248  0.91624980  0.51522960  1
  P  P287  1  0.80401158  0.91653298  0.76427429  1
  O  O288  1  0.05924965  0.24925060  0.18838042  1
  O  O289  1  0.05556955  0.24963051  0.43556090  1
  O  O290  1  0.05511839  0.24979426  0.68645921  1
  O  O291  1  0.05543860  0.24951117  0.93725780  1
  O  O292  1  0.05636132  0.58358685  0.18658895  1
  O  O293  1  0.05593820  0.58381126  0.43681164  1
  O  O294  1  0.05499051  0.58362462  0.68664758  1
  O  O295  1  0.05866665  0.58321157  0.93773726  1
  O  O296  1  0.05622957  0.91704726  0.18768276  1
  O  O297  1  0.05586734  0.91641738  0.43665482  1
  O  O298  1  0.05687521  0.91659506  0.68716903  1
  O  O299  1  0.05623476  0.91704117  0.93624473  1
  O  O300  1  0.55878046  0.24902221  0.18871940  1
  O  O301  1  0.56000219  0.24942434  0.43701999  1
  O  O302  1  0.55795051  0.24968932  0.68575435  1
  O  O303  1  0.55594968  0.24967621  0.93709672  1
  O  O304  1  0.55608172  0.58377330  0.18754846  1
  O  O305  1  0.55907353  0.58411492  0.43821665  1
  O  O306  1  0.56041565  0.58341242  0.68687092  1
  O  O307  1  0.55636684  0.58370791  0.93609653  1
  O  O308  1  0.55828339  0.91719538  0.18849847  1
  O  O309  1  0.56012053  0.91653286  0.43732728  1
  O  O310  1  0.56006144  0.91686899  0.68697903  1
  O  O311  1  0.55668783  0.91657142  0.93646649  1
  O  O312  1  0.44136771  0.08326960  0.06308124  1
  O  O313  1  0.44156196  0.08328241  0.31186919  1
  O  O314  1  0.44497270  0.08262965  0.56324064  1
  O  O315  1  0.44297601  0.08305838  0.81388982  1
  O  O316  1  0.44460347  0.41629413  0.06387462  1
  O  O317  1  0.44416327  0.41650344  0.31350942  1
  O  O318  1  0.44377124  0.41651129  0.56301974  1
  O  O319  1  0.44464697  0.41705013  0.81306721  1
  O  O320  1  0.44281632  0.75016591  0.06436590  1
  O  O321  1  0.44150471  0.75037619  0.31306957  1
  O  O322  1  0.44265208  0.75059412  0.56188142  1
  O  O323  1  0.44424416  0.75010635  0.81279345  1
  O  O324  1  0.94182717  0.08312771  0.06303814  1
  O  O325  1  0.93942032  0.08347429  0.31211341  1
  O  O326  1  0.94050705  0.08277701  0.56138897  1
  O  O327  1  0.94389038  0.08323427  0.81372689  1
  O  O328  1  0.94293378  0.41658407  0.06366391  1
  O  O329  1  0.94097685  0.41589116  0.31158616  1
  O  O330  1  0.94339369  0.41717083  0.56360582  1
  O  O331  1  0.94117457  0.41673014  0.81229811  1
  O  O332  1  0.94426833  0.75019327  0.06381189  1
  O  O333  1  0.94052370  0.75047541  0.31299020  1
  O  O334  1  0.94090471  0.74987367  0.56151396  1
  O  O335  1  0.94333820  0.75037798  0.81272345  1
  O  O336  1  0.19097622  0.08297714  0.06269462  1
  O  O337  1  0.19343401  0.08314876  0.31160420  1
  O  O338  1  0.18973174  0.08295919  0.56217619  1
  O  O339  1  0.19013528  0.08318072  0.81202848  1
  O  O340  1  0.19361489  0.41673911  0.06192252  1
  O  O341  1  0.19119169  0.41633242  0.31330056  1
  O  O342  1  0.18922555  0.41709944  0.56191888  1
  O  O343  1  0.19291140  0.41658221  0.81039740  1
  O  O344  1  0.19057259  0.75032305  0.06360854  1
  O  O345  1  0.19129105  0.75041611  0.31265548  1
  O  O346  1  0.18968245  0.74987422  0.56162548  1
  O  O347  1  0.19297795  0.75039245  0.81057884  1
  O  O348  1  0.69162292  0.08307850  0.06293372  1
  O  O349  1  0.69382254  0.08293641  0.31104210  1
  O  O350  1  0.69278326  0.08299616  0.56252308  1
  O  O351  1  0.69369136  0.08299629  0.81162507  1
  O  O352  1  0.69001392  0.41641891  0.06244914  1
  O  O353  1  0.69373243  0.41634587  0.31119210  1
  O  O354  1  0.69494754  0.41681576  0.56148426  1
  O  O355  1  0.69242253  0.41676778  0.81307214  1
  O  O356  1  0.69388966  0.75036692  0.06194270  1
  O  O357  1  0.69168422  0.75037366  0.31289348  1
  O  O358  1  0.69233922  0.75013600  0.56200670  1
  O  O359  1  0.69328588  0.75011173  0.81142159  1
  O  O360  1  0.30916232  0.24997795  0.18819632  1
  O  O361  1  0.30935055  0.24973735  0.43738482  1
  O  O362  1  0.30587920  0.24958848  0.68789912  1
  O  O363  1  0.30698991  0.25012480  0.93912109  1
  O  O364  1  0.30667525  0.58338199  0.18942804  1
  O  O365  1  0.30932486  0.58402210  0.43716792  1
  O  O366  1  0.30727986  0.58366484  0.68842478  1
  O  O367  1  0.30838309  0.58290633  0.93759376  1
  O  O368  1  0.30913498  0.91707805  0.18793228  1
  O  O369  1  0.30965751  0.91626509  0.43720136  1
  O  O370  1  0.30550447  0.91658934  0.68782160  1
  O  O371  1  0.30645347  0.91674606  0.93901435  1
  O  O372  1  0.80580024  0.25008323  0.18815565  1
  O  O373  1  0.80785709  0.25007436  0.43681610  1
  O  O374  1  0.80677251  0.24997702  0.68903388  1
  O  O375  1  0.80911623  0.24903864  0.93732673  1
  O  O376  1  0.80906790  0.58368386  0.18666489  1
  O  O377  1  0.80639997  0.58376995  0.43851349  1
  O  O378  1  0.80825547  0.58338397  0.68713596  1
  O  O379  1  0.80648306  0.58367561  0.93929957  1
  O  O380  1  0.80836296  0.91638281  0.18674167  1
  O  O381  1  0.80588994  0.91625731  0.43841484  1
  O  O382  1  0.80892180  0.91654452  0.68758262  1
  O  O383  1  0.80974372  0.91703008  0.93777206  1
  O  O384  1  0.23476771  0.25014977  0.04122849  1
  O  O385  1  0.23398708  0.24909416  0.28865348  1
  O  O386  1  0.23402141  0.24990597  0.53736007  1
  O  O387  1  0.23277284  0.24935906  0.78985828  1
  O  O388  1  0.23295065  0.58360378  0.03834094  1
  O  O389  1  0.23448113  0.58367209  0.29152235  1
  O  O390  1  0.23468541  0.58418560  0.53774686  1
  O  O391  1  0.23396115  0.58396670  0.78982076  1
  O  O392  1  0.23434573  0.91696158  0.04129412  1
  O  O393  1  0.23575490  0.91699590  0.28935289  1
  O  O394  1  0.23479316  0.91600018  0.53747750  1
  O  O395  1  0.23094990  0.91659438  0.78907999  1
  O  O396  1  0.73490879  0.24977474  0.03815387  1
  O  O397  1  0.73222124  0.24919697  0.28952854  1
  O  O398  1  0.73305414  0.24980506  0.53761202  1
  O  O399  1  0.73469190  0.24963881  0.79145494  1
  O  O400  1  0.73405864  0.58347035  0.04139281  1
  O  O401  1  0.73503859  0.58345102  0.28787027  1
  O  O402  1  0.73270071  0.58368549  0.53962732  1
  O  O403  1  0.73298270  0.58356018  0.78761612  1
  O  O404  1  0.73581684  0.91679688  0.03883012  1
  O  O405  1  0.73322146  0.91726605  0.28739287  1
  O  O406  1  0.73272970  0.91622648  0.53973921  1
  O  O407  1  0.73359631  0.91648150  0.78776003  1
  O  O408  1  0.26771111  0.08364285  0.21094220  1
  O  O409  1  0.26532934  0.08288892  0.46229786  1
  O  O410  1  0.26380446  0.08295742  0.71040885  1
  O  O411  1  0.26643888  0.08310970  0.96265363  1
  O  O412  1  0.26566834  0.41670189  0.21242589  1
  O  O413  1  0.26418154  0.41665018  0.46171369  1
  O  O414  1  0.26571542  0.41697915  0.70835897  1
  O  O415  1  0.26650306  0.41648116  0.95987429  1
  O  O416  1  0.26699707  0.75037693  0.21292681  1
  O  O417  1  0.26603357  0.75026380  0.46224224  1
  O  O418  1  0.26523595  0.75020472  0.70827288  1
  O  O419  1  0.26477069  0.75032852  0.96247384  1
  O  O420  1  0.76721521  0.08349142  0.20971911  1
  O  O421  1  0.76687397  0.08234426  0.46143361  1
  O  O422  1  0.76627597  0.08332604  0.70971221  1
  O  O423  1  0.76750031  0.08247242  0.96279415  1
  O  O424  1  0.76752704  0.41593153  0.21000906  1
  O  O425  1  0.76672192  0.41711417  0.45885854  1
  O  O426  1  0.76723926  0.41664839  0.71200047  1
  O  O427  1  0.76455652  0.41694619  0.96207984  1
  O  O428  1  0.76714323  0.75062793  0.21268048  1
  O  O429  1  0.76660303  0.75059643  0.46110573  1
  O  O430  1  0.76548918  0.74998924  0.70926073  1
  O  O431  1  0.76695965  0.75034931  0.95998548  1
  O  O432  1  0.01629191  0.08273553  0.16378149  1
  O  O433  1  0.01369934  0.08342866  0.41278953  1
  O  O434  1  0.01601347  0.08295230  0.66165325  1
  O  O435  1  0.01699718  0.08285133  0.91567396  1
  O  O436  1  0.01570351  0.41712618  0.16525668  1
  O  O437  1  0.01651287  0.41623141  0.41177327  1
  O  O438  1  0.01666087  0.41694736  0.66525758  1
  O  O439  1  0.01501083  0.41614872  0.91379274  1
  O  O440  1  0.01731805  0.75029772  0.16548458  1
  O  O441  1  0.01581753  0.74989594  0.41305759  1
  O  O442  1  0.01598807  0.75018270  0.66220909  1
  O  O443  1  0.01627468  0.75111758  0.91461246  1
  O  O444  1  0.51593247  0.08337503  0.16405374  1
  O  O445  1  0.51571871  0.08266045  0.41261220  1
  O  O446  1  0.51921644  0.08309878  0.66414229  1
  O  O447  1  0.51553859  0.08321849  0.91603630  1
  O  O448  1  0.51804268  0.41598700  0.16565846  1
  O  O449  1  0.51650016  0.41666859  0.41563616  1
  O  O450  1  0.51750454  0.41668197  0.66407238  1
  O  O451  1  0.51820202  0.41700850  0.91481061  1
  O  O452  1  0.51533685  0.75039577  0.16643079  1
  O  O453  1  0.51661580  0.75050278  0.41330454  1
  O  O454  1  0.51841964  0.75046073  0.66159528  1
  O  O455  1  0.51604914  0.74984850  0.91574815  1
  O  O456  1  0.48363417  0.24928380  0.08819978  1
  O  O457  1  0.48391184  0.24980015  0.33755917  1
  O  O458  1  0.48542637  0.24915252  0.58364113  1
  O  O459  1  0.48386718  0.25018725  0.83444624  1
  O  O460  1  0.48339223  0.58291158  0.08539704  1
  O  O461  1  0.48342407  0.58426780  0.33824032  1
  O  O462  1  0.48632376  0.58366383  0.58611460  1
  O  O463  1  0.48332931  0.58349585  0.83407702  1
  O  O464  1  0.48282170  0.91734471  0.08828252  1
  O  O465  1  0.48446445  0.91632432  0.33773018  1
  O  O466  1  0.48631241  0.91661256  0.58568286  1
  O  O467  1  0.48434349  0.91654966  0.83407872  1
  O  O468  1  0.98463735  0.24942624  0.08789460  1
  O  O469  1  0.98228535  0.24983567  0.33405710  1
  O  O470  1  0.98300207  0.25040661  0.58399677  1
  O  O471  1  0.98186058  0.24863092  0.83545169  1
  O  O472  1  0.98263822  0.58397926  0.08526378  1
  O  O473  1  0.98359541  0.58368843  0.33488375  1
  O  O474  1  0.98163675  0.58323499  0.58465655  1
  O  O475  1  0.98422078  0.58363397  0.83696431  1
  O  O476  1  0.98233541  0.91645523  0.08637690  1
  O  O477  1  0.98310636  0.91648003  0.33501491  1
  O  O478  1  0.98255614  0.91628167  0.58604741  1
  O  O479  1  0.98239003  0.91774810  0.83488778  1
  O  O480  1  0.08826161  0.31384119  0.07827034  1
  O  O481  1  0.08652083  0.31536914  0.32651064  1
  O  O482  1  0.08675860  0.31550596  0.57786257  1
  O  O483  1  0.08562090  0.31351420  0.82746760  1
  O  O484  1  0.08658321  0.64972987  0.07768295  1
  O  O485  1  0.08725588  0.64898241  0.32775606  1
  O  O486  1  0.08557636  0.64832309  0.57716929  1
  O  O487  1  0.08774899  0.64855006  0.82790575  1
  O  O488  1  0.08598735  0.98189465  0.07803085  1
  O  O489  1  0.08713241  0.98075082  0.32727232  1
  O  O490  1  0.08617506  0.98162127  0.57722639  1
  O  O491  1  0.08623255  0.98332475  0.82726495  1
  O  O492  1  0.58737676  0.31422311  0.07890286  1
  O  O493  1  0.58789705  0.31455675  0.32690471  1
  O  O494  1  0.58968215  0.31362493  0.57631547  1
  O  O495  1  0.58752782  0.31585792  0.82831836  1
  O  O496  1  0.58695097  0.64801242  0.07804861  1
  O  O497  1  0.58691929  0.64980257  0.32812692  1
  O  O498  1  0.58980850  0.64940619  0.57709686  1
  O  O499  1  0.58788358  0.64742442  0.82657700  1
  O  O500  1  0.58631475  0.98295846  0.07854091  1
  O  O501  1  0.58847489  0.98051407  0.32672163  1
  O  O502  1  0.58986540  0.98214697  0.57710619  1
  O  O503  1  0.58847277  0.98160693  0.82744125  1
  O  O504  1  0.41197664  0.01847132  0.17311879  1
  O  O505  1  0.41217755  0.01775293  0.42161360  1
  O  O506  1  0.41532352  0.01806331  0.67302792  1
  O  O507  1  0.41157022  0.01798997  0.92302067  1
  O  O508  1  0.41422749  0.35049098  0.17305128  1
  O  O509  1  0.41271284  0.35136203  0.42237489  1
  O  O510  1  0.41394754  0.35126828  0.67249228  1
  O  O511  1  0.41403980  0.35291580  0.92265064  1
  O  O512  1  0.41098106  0.68610446  0.17376172  1
  O  O513  1  0.41264909  0.68559928  0.42331695  1
  O  O514  1  0.41476936  0.68544084  0.67191769  1
  O  O515  1  0.41263528  0.68373264  0.92146413  1
  O  O516  1  0.91250079  0.01706113  0.17263258  1
  O  O517  1  0.90942991  0.01981551  0.42243716  1
  O  O518  1  0.91276818  0.01724316  0.67155677  1
  O  O519  1  0.91279807  0.01805001  0.92283231  1
  O  O520  1  0.91142244  0.35288172  0.17339829  1
  O  O521  1  0.91328603  0.35015173  0.42157109  1
  O  O522  1  0.91202791  0.35312579  0.67301683  1
  O  O523  1  0.91182030  0.35017451  0.92156351  1
  O  O524  1  0.91326521  0.68504066  0.17308629  1
  O  O525  1  0.91168522  0.68537456  0.42299426  1
  O  O526  1  0.91267378  0.68457136  0.67157170  1
  O  O527  1  0.91253375  0.68636477  0.92233885  1
  O  O528  1  0.16359035  0.01912086  0.20158470  1
  O  O529  1  0.16183980  0.01789753  0.45197444  1
  O  O530  1  0.16031236  0.01690166  0.70253796  1
  O  O531  1  0.16234619  0.01847955  0.95250843  1
  O  O532  1  0.16267342  0.35026358  0.20366505  1
  O  O533  1  0.16023493  0.35209110  0.45172652  1
  O  O534  1  0.16160710  0.35177591  0.70126173  1
  O  O535  1  0.16245115  0.35227003  0.95261213  1
  O  O536  1  0.16314347  0.68537186  0.20246358  1
  O  O537  1  0.16227139  0.68504933  0.45128187  1
  O  O538  1  0.16079792  0.68619006  0.70116969  1
  O  O539  1  0.16158250  0.68430387  0.95386742  1
  O  O540  1  0.66315613  0.01816169  0.20143265  1
  O  O541  1  0.66322521  0.01751581  0.45277494  1
  O  O542  1  0.66276401  0.01725298  0.70238988  1
  O  O543  1  0.66372309  0.01791523  0.95297195  1
  O  O544  1  0.66363308  0.35030764  0.20200871  1
  O  O545  1  0.66283192  0.35205237  0.45254887  1
  O  O546  1  0.66363634  0.35192180  0.70310775  1
  O  O547  1  0.66097278  0.35170967  0.95227673  1
  O  O548  1  0.66335695  0.68607357  0.20272462  1
  O  O549  1  0.66303270  0.68491179  0.45197041  1
  O  O550  1  0.66146603  0.68517876  0.70222652  1
  O  O551  1  0.66331625  0.68511478  0.95283912  1
  O  O552  1  0.33931881  0.31402247  0.04863148  1
  O  O553  1  0.33785847  0.31394359  0.29861255  1
  O  O554  1  0.33757747  0.31491035  0.54734673  1
  O  O555  1  0.33637206  0.31488308  0.79712980  1
  O  O556  1  0.33679784  0.64810298  0.04747955  1
  O  O557  1  0.33826838  0.64955224  0.29823228  1
  O  O558  1  0.33805736  0.64998397  0.54684125  1
  O  O559  1  0.33794056  0.64891307  0.79772608  1
  O  O560  1  0.33811994  0.98279436  0.04794083  1
  O  O561  1  0.33953763  0.98219618  0.29752101  1
  O  O562  1  0.33844769  0.98044239  0.54761539  1
  O  O563  1  0.33490683  0.98145906  0.79731550  1
  O  O564  1  0.83877360  0.31374811  0.04717374  1
  O  O565  1  0.83611821  0.31485824  0.29786969  1
  O  O566  1  0.83678293  0.31431064  0.54692125  1
  O  O567  1  0.83815756  0.31605758  0.79783499  1
  O  O568  1  0.83812990  0.64855269  0.04851156  1
  O  O569  1  0.83854936  0.64841618  0.29657288  1
  O  O570  1  0.83621793  0.64978792  0.54790888  1
  O  O571  1  0.83683785  0.64775182  0.79722486  1
  O  O572  1  0.83938097  0.98261524  0.04760830  1
  O  O573  1  0.83680804  0.98214837  0.29636523  1
  O  O574  1  0.83684753  0.98121545  0.54789243  1
  O  O575  1  0.83736676  0.98155820  0.79774962  1
  O  O576  1  0.41209724  0.14847338  0.17302150  1
  O  O577  1  0.41232729  0.14819557  0.42180118  1
  O  O578  1  0.41519709  0.14804437  0.67255833  1
  O  O579  1  0.41141977  0.14804107  0.92316745  1
  O  O580  1  0.41389263  0.48061746  0.17323771  1
  O  O581  1  0.41273606  0.48188487  0.42243348  1
  O  O582  1  0.41368095  0.48147850  0.67240034  1
  O  O583  1  0.41476305  0.48317771  0.92228566  1
  O  O584  1  0.41167122  0.81622485  0.17334087  1
  O  O585  1  0.41292348  0.81573216  0.42305976  1
  O  O586  1  0.41477981  0.81539835  0.67229941  1
  O  O587  1  0.41188336  0.81402817  0.92193748  1
  O  O588  1  0.91208190  0.14701886  0.17322009  1
  O  O589  1  0.91051254  0.15003667  0.42149020  1
  O  O590  1  0.91238992  0.14742546  0.67157582  1
  O  O591  1  0.91297622  0.14805113  0.92336547  1
  O  O592  1  0.91207098  0.48302133  0.17246622  1
  O  O593  1  0.91272961  0.48032981  0.42191429  1
  O  O594  1  0.91292318  0.48317632  0.67280233  1
  O  O595  1  0.91113756  0.48053451  0.92217464  1
  O  O596  1  0.91301313  0.81510351  0.17325376  1
  O  O597  1  0.91208305  0.81525937  0.42318240  1
  O  O598  1  0.91218526  0.81487608  0.67137807  1
  O  O599  1  0.91280701  0.81664706  0.92150776  1
  O  O600  1  0.08785107  0.18345403  0.07872883  1
  O  O601  1  0.08665493  0.18540756  0.32607273  1
  O  O602  1  0.08662604  0.18504537  0.57711650  1
  O  O603  1  0.08559747  0.18333570  0.82832611  1
  O  O604  1  0.08692312  0.51960037  0.07673920  1
  O  O605  1  0.08734418  0.51861946  0.32767907  1
  O  O606  1  0.08555351  0.51811103  0.57763467  1
  O  O607  1  0.08764921  0.51835668  0.82774041  1
  O  O608  1  0.08622856  0.85169442  0.07837764  1
  O  O609  1  0.08674275  0.85056757  0.32775750  1
  O  O610  1  0.08640071  0.85140936  0.57749874  1
  O  O611  1  0.08654293  0.85331483  0.82614631  1
  O  O612  1  0.58707497  0.18391906  0.07850417  1
  O  O613  1  0.58754497  0.18458257  0.32659737  1
  O  O614  1  0.58921036  0.18346543  0.57680748  1
  O  O615  1  0.58789508  0.18566555  0.82806458  1
  O  O616  1  0.58721919  0.51765358  0.07898419  1
  O  O617  1  0.58721110  0.51969599  0.32796516  1
  O  O618  1  0.59040255  0.51933382  0.57678844  1
  O  O619  1  0.58717263  0.51740205  0.82710052  1
  O  O620  1  0.58653892  0.85274739  0.07827501  1
  O  O621  1  0.58799593  0.85048019  0.32736607  1
  O  O622  1  0.59028275  0.85200210  0.57706261  1
  O  O623  1  0.58847361  0.85171171  0.82721780  1
  O  O624  1  0.33829357  0.18394187  0.04805676  1
  O  O625  1  0.33786371  0.18381464  0.29780331  1
  O  O626  1  0.33744814  0.18468165  0.54761367  1
  O  O627  1  0.33670125  0.18462671  0.79705671  1
  O  O628  1  0.33626703  0.51795006  0.04785226  1
  O  O629  1  0.33890061  0.51942295  0.29878046  1
  O  O630  1  0.33835131  0.51964085  0.54718117  1
  O  O631  1  0.33793326  0.51882091  0.79802057  1
  O  O632  1  0.33875935  0.85282222  0.04845870  1
  O  O633  1  0.33959564  0.85198619  0.29768030  1
  O  O634  1  0.33814188  0.85022078  0.54693500  1
  O  O635  1  0.33473493  0.85132410  0.79727991  1
  O  O636  1  0.83807977  0.18359531  0.04721972  1
  O  O637  1  0.83656196  0.18477216  0.29727146  1
  O  O638  1  0.83635501  0.18409796  0.54664652  1
  O  O639  1  0.83919771  0.18592705  0.79817397  1
  O  O640  1  0.83821044  0.51867679  0.04835307  1
  O  O641  1  0.83828094  0.51790139  0.29623995  1
  O  O642  1  0.83718927  0.51973400  0.54817964  1
  O  O643  1  0.83629928  0.51761944  0.79714840  1
  O  O644  1  0.83989257  0.85272410  0.04794263  1
  O  O645  1  0.83670510  0.85191025  0.29713868  1
  O  O646  1  0.83673423  0.85120582  0.54789676  1
  O  O647  1  0.83746583  0.85163207  0.79763717  1
  O  O648  1  0.16368088  0.14909221  0.20223905  1
  O  O649  1  0.16182576  0.14796544  0.45196730  1
  O  O650  1  0.15951140  0.14699333  0.70193483  1
  O  O651  1  0.16283083  0.14842306  0.95250230  1
  O  O652  1  0.16175867  0.48064118  0.20333035  1
  O  O653  1  0.16061351  0.48208588  0.45187333  1
  O  O654  1  0.16163363  0.48180865  0.70118222  1
  O  O655  1  0.16291578  0.48250998  0.95292405  1
  O  O656  1  0.16316798  0.81533497  0.20237032  1
  O  O657  1  0.16213142  0.81491750  0.45120253  1
  O  O658  1  0.16141645  0.81623278  0.70165754  1
  O  O659  1  0.16108372  0.81459483  0.95359880  1
  O  O660  1  0.66294070  0.14819593  0.20180436  1
  O  O661  1  0.66335521  0.14769249  0.45237525  1
  O  O662  1  0.66195515  0.14726965  0.70219131  1
  O  O663  1  0.66411694  0.14793674  0.95271975  1
  O  O664  1  0.66322741  0.48044885  0.20165430  1
  O  O665  1  0.66310234  0.48245034  0.45260086  1
  O  O666  1  0.66369912  0.48208850  0.70316143  1
  O  O667  1  0.66082247  0.48174724  0.95252151  1
  O  O668  1  0.66366229  0.81624342  0.20288070  1
  O  O669  1  0.66243256  0.81508220  0.45223915  1
  O  O670  1  0.66178882  0.81534390  0.70219998  1
  O  O671  1  0.66317912  0.81527716  0.95275751  1
