# generated using pymatgen
data_Na2MnFe(PO4)2
_symmetry_space_group_name_H-M   'P 1'
_cell_length_a   21.07858072
_cell_length_b   18.93047688
_cell_length_c   20.03805283
_cell_angle_alpha   89.99983603
_cell_angle_beta   89.99676369
_cell_angle_gamma   90.00012722
_symmetry_Int_Tables_number   1
_chemical_formula_structural   Na2MnFe(PO4)2
_chemical_formula_sum   'Na96 Mn48 Fe48 P96 O384'
_cell_volume   7995.73581911
_cell_formula_units_Z   48
loop_
 _symmetry_equiv_pos_site_id
 _symmetry_equiv_pos_as_xyz
  1  'x, y, z'
loop_
 _atom_site_type_symbol
 _atom_site_label
 _atom_site_symmetry_multiplicity
 _atom_site_fract_x
 _atom_site_fract_y
 _atom_site_fract_z
 _atom_site_occupancy
  Na  Na0  1  -0.00102320  -0.00057861  0.00013405  1
  Na  Na1  1  -0.00009764  -0.00022228  0.25009878  1
  Na  Na2  1  0.00153328  0.00000649  0.50012464  1
  Na  Na3  1  -0.00015358  -0.00053715  0.74931146  1
  Na  Na4  1  -0.00073147  0.33274613  0.00024021  1
  Na  Na5  1  0.00185354  0.33393360  0.24932444  1
  Na  Na6  1  0.00012769  0.33389564  0.49991916  1
  Na  Na7  1  -0.00147690  0.33341005  0.75076277  1
  Na  Na8  1  0.00131445  0.66709045  0.00056166  1
  Na  Na9  1  0.00275385  0.66754084  0.24844591  1
  Na  Na10  1  -0.00026980  0.66629810  0.49987089  1
  Na  Na11  1  -0.00147769  0.66580735  0.75134882  1
  Na  Na12  1  0.50076310  -0.00070240  -0.00004649  1
  Na  Na13  1  0.50030387  -0.00116034  0.24979807  1
  Na  Na14  1  0.49966288  -0.00069750  0.49993498  1
  Na  Na15  1  0.50051023  -0.00037003  0.75109734  1
  Na  Na16  1  0.50023235  0.33361054  0.00133981  1
  Na  Na17  1  0.50199213  0.33433847  0.24829573  1
  Na  Na18  1  0.49991674  0.33322275  0.49876918  1
  Na  Na19  1  0.49778485  0.33213711  0.75132755  1
  Na  Na20  1  0.49911374  0.66660737  -0.00046818  1
  Na  Na21  1  0.49820528  0.66609232  0.24997103  1
  Na  Na22  1  0.49713174  0.66622934  0.50015737  1
  Na  Na23  1  0.49772537  0.66672965  0.74942222  1
  Na  Na24  1  0.24825481  -0.00005937  0.12461895  1
  Na  Na25  1  0.24924362  -0.00067572  0.37501298  1
  Na  Na26  1  0.25198573  -0.00044491  0.62427905  1
  Na  Na27  1  0.25143716  -0.00004143  0.87630286  1
  Na  Na28  1  0.24893484  0.33361169  0.12394288  1
  Na  Na29  1  0.24911842  0.33295838  0.37521001  1
  Na  Na30  1  0.25124791  0.33338475  0.62649999  1
  Na  Na31  1  0.24982487  0.33296944  0.87455816  1
  Na  Na32  1  0.24758197  0.66566717  0.12503404  1
  Na  Na33  1  0.25000554  0.66621398  0.37386014  1
  Na  Na34  1  0.25414113  0.66818577  0.62480594  1
  Na  Na35  1  0.25063356  0.66649166  0.87550120  1
  Na  Na36  1  0.75125447  -0.00076925  0.12469953  1
  Na  Na37  1  0.75105881  -0.00023286  0.37571344  1
  Na  Na38  1  0.74741755  -0.00097034  0.62389793  1
  Na  Na39  1  0.74893340  -0.00087771  0.87541071  1
  Na  Na40  1  0.74874855  0.33302294  0.12539324  1
  Na  Na41  1  0.74758369  0.33292430  0.37352345  1
  Na  Na42  1  0.75085817  0.33422067  0.62468342  1
  Na  Na43  1  0.75172203  0.33395747  0.87636734  1
  Na  Na44  1  0.75186605  0.66799402  0.12637169  1
  Na  Na45  1  0.74951936  0.66630033  0.37530907  1
  Na  Na46  1  0.75033393  0.66715831  0.62498336  1
  Na  Na47  1  0.74987554  0.66662981  0.87420050  1
  Na  Na48  1  0.00052799  0.16666728  0.00021927  1
  Na  Na49  1  0.00167728  0.16618706  0.24987323  1
  Na  Na50  1  0.00122352  0.16604628  0.49902488  1
  Na  Na51  1  -0.00178590  0.16775912  0.75076522  1
  Na  Na52  1  0.00185064  0.49916379  0.00023941  1
  Na  Na53  1  0.00142002  0.49983117  0.24879786  1
  Na  Na54  1  -0.00144451  0.50094211  0.50001033  1
  Na  Na55  1  -0.00120268  0.50047348  0.75124779  1
  Na  Na56  1  -0.00215391  0.83462027  0.00049017  1
  Na  Na57  1  0.00198279  0.83268906  0.24902925  1
  Na  Na58  1  0.00107852  0.83335654  0.50084332  1
  Na  Na59  1  -0.00041286  0.83348285  0.74943325  1
  Na  Na60  1  0.50124829  0.16679378  0.00001846  1
  Na  Na61  1  0.50123761  0.16645717  0.24932591  1
  Na  Na62  1  0.49932723  0.16627070  0.49936063  1
  Na  Na63  1  0.49815374  0.16737248  0.75152809  1
  Na  Na64  1  0.49672256  0.50063449  0.00040001  1
  Na  Na65  1  0.49859309  0.49961474  0.24953286  1
  Na  Na66  1  0.49882958  0.49983459  0.49901422  1
  Na  Na67  1  0.49743776  0.50061474  0.75072516  1
  Na  Na68  1  0.50200931  0.83308221  0.00016615  1
  Na  Na69  1  0.50186077  0.83299723  0.24957247  1
  Na  Na70  1  0.49903475  0.83417612  0.50050314  1
  Na  Na71  1  0.49952833  0.83411650  0.74966984  1
  Na  Na72  1  0.24572501  0.16823998  0.12478555  1
  Na  Na73  1  0.24801163  0.16698149  0.37433798  1
  Na  Na74  1  0.25237807  0.16562886  0.62563739  1
  Na  Na75  1  0.25160404  0.16582517  0.87543798  1
  Na  Na76  1  0.24898320  0.50029701  0.12404932  1
  Na  Na77  1  0.25083799  0.50013477  0.37468524  1
  Na  Na78  1  0.25163976  0.50026571  0.62567705  1
  Na  Na79  1  0.25052054  0.49988201  0.87474805  1
  Na  Na80  1  0.24820561  0.83406970  0.12516898  1
  Na  Na81  1  0.25016866  0.83345150  0.37474272  1
  Na  Na82  1  0.25271088  0.83345040  0.62467860  1
  Na  Na83  1  0.25178663  0.83274422  0.87579020  1
  Na  Na84  1  0.75130473  0.16722612  0.12489465  1
  Na  Na85  1  0.74916060  0.16680629  0.37531880  1
  Na  Na86  1  0.74841267  0.16709759  0.62486651  1
  Na  Na87  1  0.75138883  0.16652163  0.87525410  1
  Na  Na88  1  0.74994442  0.49994467  0.12613255  1
  Na  Na89  1  0.75047154  0.50018068  0.37499800  1
  Na  Na90  1  0.75129802  0.49987237  0.62415593  1
  Na  Na91  1  0.75166205  0.49886534  0.87534154  1
  Na  Na92  1  0.74955895  0.83395043  0.12581027  1
  Na  Na93  1  0.74851484  0.83422824  0.37423510  1
  Na  Na94  1  0.74764530  0.83398576  0.62476743  1
  Na  Na95  1  0.74917675  0.83354244  0.87490481  1
  Mn  Mn96  1  0.10744379  0.08320856  0.87188574  1
  Mn  Mn97  1  0.35825745  0.08292587  0.50187703  1
  Mn  Mn98  1  0.39201556  0.24958611  0.37600349  1
  Mn  Mn99  1  0.60633720  0.74993723  0.62235326  1
  Mn  Mn100  1  0.10886063  0.08365419  0.62357897  1
  Mn  Mn101  1  0.10740558  0.41702391  0.62337832  1
  Mn  Mn102  1  0.64151040  0.58346157  0.24783601  1
  Mn  Mn103  1  0.64079477  0.25000249  0.49778577  1
  Mn  Mn104  1  0.64170412  0.58286595  0.74781680  1
  Mn  Mn105  1  0.14250959  0.25016086  0.49861291  1
  Mn  Mn106  1  0.60740450  0.41624113  0.62330404  1
  Mn  Mn107  1  0.39217716  0.24990811  0.12732531  1
  Mn  Mn108  1  0.85758320  0.41662006  0.50135546  1
  Mn  Mn109  1  0.35805121  0.41632638  0.75313582  1
  Mn  Mn110  1  0.64140928  0.58381795  0.49774282  1
  Mn  Mn111  1  0.35654206  0.08385266  0.25157253  1
  Mn  Mn112  1  0.60808239  0.08308462  0.37166292  1
  Mn  Mn113  1  0.60766159  0.08333876  0.87280270  1
  Mn  Mn114  1  0.60737284  0.41747378  0.87337837  1
  Mn  Mn115  1  0.10752974  0.75039092  0.87240490  1
  Mn  Mn116  1  0.89181965  0.91627200  0.62717135  1
  Mn  Mn117  1  0.14320470  0.91624116  0.49779367  1
  Mn  Mn118  1  0.85862446  0.75038233  0.25318544  1
  Mn  Mn119  1  0.60823593  0.74863867  0.12264516  1
  Mn  Mn120  1  0.85713653  0.75031187  0.75227050  1
  Mn  Mn121  1  0.35680133  0.75012881  0.25207407  1
  Mn  Mn122  1  0.14272044  0.24879331  0.74790722  1
  Mn  Mn123  1  0.89150634  0.25050333  0.62716646  1
  Mn  Mn124  1  0.64203107  0.58339787  0.99789605  1
  Mn  Mn125  1  0.10883137  0.74936967  0.62334927  1
  Mn  Mn126  1  0.85788176  0.75025365  0.50133846  1
  Mn  Mn127  1  0.89256293  0.25017433  0.37698298  1
  Mn  Mn128  1  0.89350654  0.58314002  0.12709482  1
  Mn  Mn129  1  0.35776638  0.74950335  0.00278700  1
  Mn  Mn130  1  0.60913871  0.08368285  0.12274967  1
  Mn  Mn131  1  0.39272866  0.91638601  0.12743417  1
  Mn  Mn132  1  0.35870416  0.41647978  0.50222748  1
  Mn  Mn133  1  0.35739102  0.08393444  0.00315206  1
  Mn  Mn134  1  0.85772579  0.08318843  0.50216648  1
  Mn  Mn135  1  0.64196144  0.25000924  0.74824464  1
  Mn  Mn136  1  0.85776080  0.41646561  0.25204090  1
  Mn  Mn137  1  0.14303354  0.58455655  0.74759117  1
  Mn  Mn138  1  0.89206346  0.58365269  0.87846494  1
  Mn  Mn139  1  0.85698972  0.08354307  0.75157806  1
  Mn  Mn140  1  0.14265046  0.58355690  0.49821041  1
  Mn  Mn141  1  0.85806104  0.08320168  0.00254673  1
  Mn  Mn142  1  0.14136319  0.91659747  0.99707561  1
  Mn  Mn143  1  0.10847400  0.41719707  0.37251985  1
  Fe  Fe144  1  0.64304207  0.24922081  0.24778477  1
  Fe  Fe145  1  0.89272083  0.91697175  0.12713886  1
  Fe  Fe146  1  0.14189816  0.25036247  0.24780408  1
  Fe  Fe147  1  0.60673605  0.41750226  0.37273921  1
  Fe  Fe148  1  0.39243801  0.25016923  0.87837710  1
  Fe  Fe149  1  0.89170542  0.91692970  0.87601630  1
  Fe  Fe150  1  0.14191138  0.91675856  0.24832613  1
  Fe  Fe151  1  0.89204335  0.58350708  0.62665778  1
  Fe  Fe152  1  0.64373754  0.91667357  0.99830230  1
  Fe  Fe153  1  0.60624890  0.08366916  0.62392637  1
  Fe  Fe154  1  0.14280946  0.58287094  0.24814208  1
  Fe  Fe155  1  0.60650273  0.41736618  0.12288452  1
  Fe  Fe156  1  0.64155538  0.91640491  0.49749484  1
  Fe  Fe157  1  0.35858088  0.08230645  0.75210818  1
  Fe  Fe158  1  0.89259548  0.24994413  0.87739512  1
  Fe  Fe159  1  0.64193808  0.91676586  0.74832274  1
  Fe  Fe160  1  0.10805433  0.41621733  0.12240606  1
  Fe  Fe161  1  0.39240766  0.58355651  0.87743962  1
  Fe  Fe162  1  0.39204311  0.58374630  0.37613896  1
  Fe  Fe163  1  0.60714403  0.74957817  0.87364544  1
  Fe  Fe164  1  0.10829524  0.75023612  0.37367826  1
  Fe  Fe165  1  0.64400444  0.25014228  0.99828760  1
  Fe  Fe166  1  0.39246101  0.24942274  0.62675210  1
  Fe  Fe167  1  0.35802967  0.75023352  0.50071782  1
  Fe  Fe168  1  0.39322418  0.91737717  0.62782220  1
  Fe  Fe169  1  0.14207292  0.25081646  0.99740981  1
  Fe  Fe170  1  0.85701222  0.74951080  0.00126327  1
  Fe  Fe171  1  0.85808543  0.08357232  0.25177053  1
  Fe  Fe172  1  0.60632961  0.74935944  0.37387730  1
  Fe  Fe173  1  0.89363353  0.91591428  0.37662437  1
  Fe  Fe174  1  0.39269075  0.91625556  0.37573062  1
  Fe  Fe175  1  0.39156681  0.58324320  0.12673687  1
  Fe  Fe176  1  0.10743601  0.08258410  0.37266722  1
  Fe  Fe177  1  0.35613190  0.41618293  0.00170324  1
  Fe  Fe178  1  0.10656864  0.41646762  0.87341297  1
  Fe  Fe179  1  0.89359797  0.58426873  0.37596901  1
  Fe  Fe180  1  0.35652423  0.41610966  0.25076227  1
  Fe  Fe181  1  0.39233656  0.58300219  0.62704737  1
  Fe  Fe182  1  0.85769034  0.41667059  0.75214987  1
  Fe  Fe183  1  0.35814338  0.75106008  0.75270920  1
  Fe  Fe184  1  0.39357130  0.91656534  0.87714109  1
  Fe  Fe185  1  0.89355502  0.24977249  0.12703250  1
  Fe  Fe186  1  0.85768547  0.41723908  0.00258139  1
  Fe  Fe187  1  0.14331133  0.58271989  0.99788903  1
  Fe  Fe188  1  0.10703538  0.75042515  0.12272939  1
  Fe  Fe189  1  0.14390971  0.91649431  0.74892851  1
  Fe  Fe190  1  0.64358152  0.91735469  0.24877415  1
  Fe  Fe191  1  0.10620978  0.08319572  0.12346098  1
  P  P192  1  0.05450268  0.24992985  0.11050025  1
  P  P193  1  0.05434370  0.24950863  0.35936873  1
  P  P194  1  0.05289139  0.25011355  0.61015345  1
  P  P195  1  0.05317549  0.25103300  0.86125712  1
  P  P196  1  0.05635274  0.58307563  0.11035760  1
  P  P197  1  0.05345933  0.58432582  0.35925596  1
  P  P198  1  0.05212081  0.58345326  0.61030625  1
  P  P199  1  0.05482006  0.58247320  0.86153670  1
  P  P200  1  0.05323246  0.91706881  0.11121437  1
  P  P201  1  0.05340894  0.91622648  0.35974229  1
  P  P202  1  0.05524088  0.91642215  0.61127674  1
  P  P203  1  0.05205045  0.91655688  0.85903021  1
  P  P204  1  0.55577926  0.25075305  0.11030690  1
  P  P205  1  0.55380870  0.25066679  0.35846679  1
  P  P206  1  0.55138035  0.24906705  0.61058621  1
  P  P207  1  0.55322243  0.25053732  0.86194113  1
  P  P208  1  0.55138243  0.58233326  0.10987510  1
  P  P209  1  0.55140939  0.58384009  0.36002303  1
  P  P210  1  0.55122686  0.58308454  0.61009181  1
  P  P211  1  0.55165042  0.58395467  0.86026807  1
  P  P212  1  0.55612097  0.91660520  0.11041255  1
  P  P213  1  0.55378712  0.91541014  0.36042519  1
  P  P214  1  0.55374846  0.91771807  0.61086433  1
  P  P215  1  0.55461200  0.91568458  0.86101651  1
  P  P216  1  0.44733620  0.08333480  0.14022361  1
  P  P217  1  0.44662779  0.08234557  0.38907879  1
  P  P218  1  0.44709843  0.08294501  0.64073776  1
  P  P219  1  0.44534715  0.08286934  0.88960608  1
  P  P220  1  0.44492549  0.41706879  0.13907072  1
  P  P221  1  0.44597402  0.41680868  0.38755841  1
  P  P222  1  0.44647282  0.41615445  0.64029083  1
  P  P223  1  0.44549950  0.41657464  0.89151441  1
  P  P224  1  0.44655070  0.74933737  0.14012378  1
  P  P225  1  0.44659037  0.75041219  0.38975425  1
  P  P226  1  0.44422300  0.75070865  0.63915352  1
  P  P227  1  0.44651929  0.75069699  0.88906896  1
  P  P228  1  0.94682605  0.08371561  0.14043408  1
  P  P229  1  0.94680912  0.08225243  0.38855739  1
  P  P230  1  0.94696227  0.08323070  0.64009475  1
  P  P231  1  0.94614495  0.08309792  0.88977275  1
  P  P232  1  0.94721712  0.41588696  0.13862580  1
  P  P233  1  0.94716299  0.41780946  0.38929660  1
  P  P234  1  0.94559309  0.41780063  0.64081267  1
  P  P235  1  0.94562803  0.41619621  0.89025994  1
  P  P236  1  0.94641322  0.75050481  0.13852534  1
  P  P237  1  0.94884094  0.75023630  0.38950570  1
  P  P238  1  0.94668640  0.74911972  0.64015142  1
  P  P239  1  0.94574129  0.75103831  0.89087704  1
  P  P240  1  0.19394445  0.08289175  0.23531769  1
  P  P241  1  0.19647359  0.08317619  0.48427977  1
  P  P242  1  0.19905042  0.08184224  0.73549136  1
  P  P243  1  0.19444808  0.08423391  0.98606874  1
  P  P244  1  0.19681353  0.41684414  0.23409727  1
  P  P245  1  0.19741035  0.41708135  0.48532013  1
  P  P246  1  0.19575018  0.41671739  0.73645703  1
  P  P247  1  0.19545599  0.41660689  0.98506579  1
  P  P248  1  0.19415167  0.75018274  0.23557449  1
  P  P249  1  0.19821737  0.74971935  0.48435350  1
  P  P250  1  0.19903781  0.75119248  0.73529789  1
  P  P251  1  0.19527794  0.74927290  0.98600055  1
  P  P252  1  0.69868903  0.08282465  0.23494970  1
  P  P253  1  0.69461648  0.08248632  0.48601418  1
  P  P254  1  0.69543280  0.08269702  0.73439394  1
  P  P255  1  0.69707898  0.08365158  0.98521827  1
  P  P256  1  0.69423083  0.41641326  0.23536064  1
  P  P257  1  0.69534522  0.41707165  0.48383590  1
  P  P258  1  0.69803961  0.41659822  0.73519666  1
  P  P259  1  0.69683580  0.41635712  0.98665169  1
  P  P260  1  0.69551116  0.75073063  0.23671152  1
  P  P261  1  0.69535474  0.75063728  0.48413520  1
  P  P262  1  0.69448829  0.75046105  0.73595210  1
  P  P263  1  0.69725514  0.75032915  0.98464043  1
  P  P264  1  0.30273093  0.25083077  0.01414609  1
  P  P265  1  0.30118038  0.25083923  0.26420073  1
  P  P266  1  0.30414885  0.24971637  0.51574835  1
  P  P267  1  0.30574560  0.24853070  0.76512640  1
  P  P268  1  0.30391281  0.58235043  0.01439709  1
  P  P269  1  0.30358334  0.58232540  0.26359145  1
  P  P270  1  0.30564307  0.58427514  0.51409732  1
  P  P271  1  0.30574582  0.58443562  0.76492422  1
  P  P272  1  0.30423853  0.91651031  0.01452228  1
  P  P273  1  0.30204348  0.91693120  0.26500340  1
  P  P274  1  0.30614508  0.91559634  0.51407081  1
  P  P275  1  0.30489838  0.91686334  0.76506309  1
  P  P276  1  0.80501519  0.25093949  0.01503949  1
  P  P277  1  0.80372165  0.24934770  0.26364576  1
  P  P278  1  0.80247680  0.25006220  0.51461154  1
  P  P279  1  0.80376631  0.25082201  0.76601173  1
  P  P280  1  0.80325073  0.58361919  0.01567306  1
  P  P281  1  0.80416247  0.58340427  0.26580793  1
  P  P282  1  0.80487177  0.58393192  0.51413388  1
  P  P283  1  0.80430441  0.58266652  0.76417854  1
  P  P284  1  0.80444324  0.91542922  0.01439624  1
  P  P285  1  0.80492328  0.91761662  0.26469930  1
  P  P286  1  0.80297786  0.91608258  0.51366221  1
  P  P287  1  0.80179606  0.91694469  0.76523436  1
  O  O288  1  0.05891037  0.25065380  0.18726298  1
  O  O289  1  0.05713703  0.25034773  0.43615957  1
  O  O290  1  0.05631511  0.24988469  0.68699294  1
  O  O291  1  0.05794578  0.25040770  0.93797338  1
  O  O292  1  0.05995009  0.58278155  0.18719353  1
  O  O293  1  0.05673169  0.58345257  0.43601101  1
  O  O294  1  0.05638621  0.58373164  0.68703109  1
  O  O295  1  0.05923215  0.58310399  0.93827073  1
  O  O296  1  0.05779624  0.91678134  0.18785486  1
  O  O297  1  0.05687372  0.91631956  0.43649501  1
  O  O298  1  0.06007895  0.91635865  0.68799326  1
  O  O299  1  0.05580827  0.91656751  0.93581996  1
  O  O300  1  0.56009843  0.24932007  0.18707765  1
  O  O301  1  0.55603286  0.24966093  0.43533740  1
  O  O302  1  0.55501411  0.24977631  0.68731853  1
  O  O303  1  0.55905871  0.25053762  0.93853122  1
  O  O304  1  0.55535695  0.58291436  0.18653902  1
  O  O305  1  0.55486208  0.58368410  0.43670127  1
  O  O306  1  0.55524163  0.58325162  0.68679529  1
  O  O307  1  0.55570032  0.58332739  0.93696498  1
  O  O308  1  0.56050442  0.91706353  0.18721015  1
  O  O309  1  0.55774886  0.91651100  0.43720698  1
  O  O310  1  0.55817946  0.91687511  0.68759994  1
  O  O311  1  0.55968974  0.91636803  0.93772267  1
  O  O312  1  0.44385003  0.08357904  0.06342960  1
  O  O313  1  0.44307991  0.08284972  0.31232735  1
  O  O314  1  0.44408000  0.08279979  0.56397886  1
  O  O315  1  0.44191867  0.08275324  0.81280924  1
  O  O316  1  0.43989910  0.41619963  0.06243385  1
  O  O317  1  0.44110439  0.41592029  0.31089479  1
  O  O318  1  0.44443039  0.41612716  0.56343344  1
  O  O319  1  0.44308068  0.41623099  0.81467870  1
  O  O320  1  0.44359398  0.75021377  0.06332103  1
  O  O321  1  0.44323136  0.75067643  0.31299691  1
  O  O322  1  0.44115621  0.75071131  0.56235222  1
  O  O323  1  0.44236075  0.75101700  0.81231988  1
  O  O324  1  0.94342099  0.08358813  0.06360525  1
  O  O325  1  0.94204368  0.08325596  0.31186267  1
  O  O326  1  0.94397010  0.08291715  0.56324008  1
  O  O327  1  0.94307373  0.08316399  0.81304602  1
  O  O328  1  0.94207906  0.41664455  0.06197676  1
  O  O329  1  0.94426309  0.41683197  0.31248892  1
  O  O330  1  0.94285109  0.41681870  0.56397465  1
  O  O331  1  0.94114969  0.41685895  0.81356583  1
  O  O332  1  0.94125743  0.74996786  0.06195076  1
  O  O333  1  0.94563652  0.75036036  0.31274971  1
  O  O334  1  0.94375149  0.75007393  0.56337046  1
  O  O335  1  0.94261578  0.75011424  0.81408009  1
  O  O336  1  0.18970909  0.08345621  0.06281994  1
  O  O337  1  0.19066520  0.08251318  0.31217955  1
  O  O338  1  0.19404166  0.08296030  0.56113760  1
  O  O339  1  0.19471995  0.08269645  0.81220839  1
  O  O340  1  0.19124542  0.41628264  0.06185288  1
  O  O341  1  0.19386388  0.41696071  0.31087493  1
  O  O342  1  0.19419348  0.41735269  0.56210493  1
  O  O343  1  0.19125243  0.41663207  0.81319544  1
  O  O344  1  0.19075783  0.75046647  0.06278153  1
  O  O345  1  0.19092240  0.75026778  0.31243574  1
  O  O346  1  0.19473515  0.74981558  0.56110128  1
  O  O347  1  0.19464326  0.75028127  0.81198801  1
  O  O348  1  0.69492542  0.08365629  0.06197475  1
  O  O349  1  0.69499440  0.08275767  0.31168326  1
  O  O350  1  0.69002903  0.08331415  0.56272100  1
  O  O351  1  0.69293849  0.08344230  0.81125754  1
  O  O352  1  0.69151256  0.41744929  0.06325849  1
  O  O353  1  0.68987336  0.41774496  0.31214676  1
  O  O354  1  0.69242152  0.41726304  0.56070372  1
  O  O355  1  0.69383615  0.41682919  0.81194211  1
  O  O356  1  0.69407560  0.74946042  0.06145452  1
  O  O357  1  0.69057596  0.74950844  0.31334459  1
  O  O358  1  0.69213517  0.74978712  0.56097703  1
  O  O359  1  0.69043884  0.74948580  0.81273436  1
  O  O360  1  0.30515677  0.25017221  0.18753405  1
  O  O361  1  0.30685861  0.24974622  0.43890527  1
  O  O362  1  0.30988443  0.24941815  0.68829871  1
  O  O363  1  0.30793680  0.25002065  0.93748032  1
  O  O364  1  0.30786289  0.58330496  0.18684538  1
  O  O365  1  0.30927315  0.58340201  0.43717957  1
  O  O366  1  0.30969389  0.58344748  0.68806123  1
  O  O367  1  0.30879879  0.58348435  0.93767320  1
  O  O368  1  0.30603693  0.91685949  0.18828211  1
  O  O369  1  0.30987725  0.91650794  0.43728015  1
  O  O370  1  0.30902524  0.91720657  0.68826955  1
  O  O371  1  0.30929147  0.91620825  0.93780634  1
  O  O372  1  0.80897939  0.25021076  0.18698380  1
  O  O373  1  0.80601833  0.24998104  0.43779273  1
  O  O374  1  0.80619493  0.25014878  0.68916909  1
  O  O375  1  0.80956830  0.25021116  0.93830878  1
  O  O376  1  0.80810599  0.58362812  0.18903121  1
  O  O377  1  0.80970858  0.58424085  0.43740816  1
  O  O378  1  0.80806263  0.58352806  0.68741045  1
  O  O379  1  0.80585588  0.58328573  0.93882379  1
  O  O380  1  0.80969680  0.91656003  0.18790175  1
  O  O381  1  0.80888117  0.91588960  0.43704185  1
  O  O382  1  0.80554039  0.91670479  0.68848021  1
  O  O383  1  0.80871465  0.91643540  0.93769363  1
  O  O384  1  0.23225766  0.25104306  0.03734895  1
  O  O385  1  0.23106429  0.25029041  0.28860885  1
  O  O386  1  0.23462054  0.24958082  0.54137580  1
  O  O387  1  0.23557850  0.24904900  0.78908179  1
  O  O388  1  0.23343350  0.58281493  0.03763885  1
  O  O389  1  0.23315620  0.58302013  0.28731401  1
  O  O390  1  0.23579723  0.58394976  0.53898902  1
  O  O391  1  0.23570162  0.58372074  0.78907785  1
  O  O392  1  0.23398169  0.91686119  0.03785364  1
  O  O393  1  0.23182448  0.91642086  0.28906529  1
  O  O394  1  0.23611873  0.91649605  0.53837559  1
  O  O395  1  0.23471097  0.91646510  0.78960626  1
  O  O396  1  0.73457961  0.25032893  0.03854218  1
  O  O397  1  0.73325012  0.24966593  0.28706396  1
  O  O398  1  0.73275501  0.25059978  0.53959905  1
  O  O399  1  0.73415677  0.25016980  0.79164281  1
  O  O400  1  0.73374362  0.58375986  0.04147281  1
  O  O401  1  0.73411002  0.58318284  0.28982306  1
  O  O402  1  0.73464084  0.58378456  0.53787278  1
  O  O403  1  0.73441938  0.58276911  0.78900188  1
  O  O404  1  0.73402445  0.91648461  0.03814354  1
  O  O405  1  0.73442066  0.91704111  0.28807916  1
  O  O406  1  0.73243726  0.91604084  0.53666882  1
  O  O407  1  0.73165886  0.91670311  0.78952936  1
  O  O408  1  0.26379562  0.08374264  0.21024598  1
  O  O409  1  0.26614548  0.08318136  0.45898180  1
  O  O410  1  0.26910680  0.08231481  0.71110307  1
  O  O411  1  0.26463798  0.08361974  0.96249544  1
  O  O412  1  0.26675910  0.41691185  0.20894614  1
  O  O413  1  0.26701914  0.41670251  0.46001827  1
  O  O414  1  0.26594334  0.41682449  0.71270497  1
  O  O415  1  0.26583441  0.41645205  0.96124603  1
  O  O416  1  0.26414605  0.75003566  0.21086200  1
  O  O417  1  0.26816482  0.74983080  0.45951353  1
  O  O418  1  0.26916616  0.75108095  0.71116485  1
  O  O419  1  0.26541612  0.74923359  0.96221352  1
  O  O420  1  0.76859779  0.08292179  0.20990298  1
  O  O421  1  0.76465501  0.08285768  0.46177596  1
  O  O422  1  0.76497508  0.08303319  0.70876471  1
  O  O423  1  0.76667193  0.08311282  0.95954294  1
  O  O424  1  0.76451932  0.41684082  0.21170677  1
  O  O425  1  0.76508477  0.41659175  0.45876341  1
  O  O426  1  0.76805243  0.41666739  0.71075860  1
  O  O427  1  0.76731475  0.41640593  0.96330887  1
  O  O428  1  0.76573220  0.75086867  0.21299352  1
  O  O429  1  0.76511262  0.75047582  0.45915355  1
  O  O430  1  0.76443515  0.75070497  0.71146590  1
  O  O431  1  0.76721303  0.74996137  0.95977009  1
  O  O432  1  0.01696622  0.08346997  0.16472221  1
  O  O433  1  0.01720374  0.08251006  0.41222972  1
  O  O434  1  0.01649390  0.08348345  0.66567529  1
  O  O435  1  0.01577485  0.08302062  0.91519783  1
  O  O436  1  0.01777342  0.41646207  0.16174831  1
  O  O437  1  0.01674455  0.41755026  0.41479942  1
  O  O438  1  0.01517947  0.41709124  0.66638719  1
  O  O439  1  0.01600271  0.41636398  0.91402257  1
  O  O440  1  0.01698073  0.75002319  0.16167057  1
  O  O441  1  0.01870609  0.75023636  0.41482367  1
  O  O442  1  0.01627696  0.74927090  0.66575610  1
  O  O443  1  0.01551701  0.75061565  0.91578365  1
  O  O444  1  0.51715006  0.08312885  0.16488331  1
  O  O445  1  0.51634462  0.08269300  0.41404654  1
  O  O446  1  0.51693386  0.08305753  0.66611469  1
  O  O447  1  0.51530356  0.08301032  0.91424317  1
  O  O448  1  0.51545253  0.41675456  0.16226000  1
  O  O449  1  0.51627189  0.41686022  0.41159500  1
  O  O450  1  0.51576794  0.41638245  0.66678529  1
  O  O451  1  0.51515712  0.41696473  0.91690090  1
  O  O452  1  0.51621798  0.74921455  0.16520552  1
  O  O453  1  0.51645440  0.75010997  0.41499826  1
  O  O454  1  0.51415593  0.75072473  0.66391788  1
  O  O455  1  0.51670785  0.75017889  0.91345511  1
  O  O456  1  0.48552708  0.25023216  0.08667830  1
  O  O457  1  0.48421379  0.25020634  0.33279819  1
  O  O458  1  0.48150186  0.24929763  0.58541731  1
  O  O459  1  0.48262071  0.25027562  0.83918788  1
  O  O460  1  0.48127110  0.58305074  0.08551197  1
  O  O461  1  0.48134299  0.58368504  0.33511056  1
  O  O462  1  0.48110385  0.58318151  0.58579786  1
  O  O463  1  0.48146354  0.58365957  0.83612360  1
  O  O464  1  0.48595613  0.91641883  0.08662209  1
  O  O465  1  0.48348803  0.91582905  0.33623544  1
  O  O466  1  0.48327428  0.91685373  0.58742268  1
  O  O467  1  0.48414847  0.91660578  0.83762352  1
  O  O468  1  0.98404435  0.24968557  0.08684644  1
  O  O469  1  0.98461451  0.25009631  0.33410735  1
  O  O470  1  0.98330467  0.25008498  0.58481750  1
  O  O471  1  0.98275262  0.25066404  0.83780892  1
  O  O472  1  0.98625790  0.58308198  0.08607860  1
  O  O473  1  0.98355478  0.58396971  0.33400836  1
  O  O474  1  0.98212779  0.58359359  0.58585293  1
  O  O475  1  0.98460665  0.58327728  0.83789690  1
  O  O476  1  0.98278302  0.91721705  0.08746895  1
  O  O477  1  0.98338118  0.91609181  0.33484537  1
  O  O478  1  0.98514321  0.91645263  0.58728316  1
  O  O479  1  0.98183091  0.91656808  0.83491640  1
  O  O480  1  0.08789483  0.31486446  0.07678950  1
  O  O481  1  0.08895962  0.31429137  0.32658081  1
  O  O482  1  0.08695210  0.31530900  0.57788733  1
  O  O483  1  0.08635680  0.31614976  0.82816261  1
  O  O484  1  0.08998927  0.64825862  0.07762439  1
  O  O485  1  0.08758879  0.64950070  0.32715307  1
  O  O486  1  0.08619436  0.64837527  0.57741808  1
  O  O487  1  0.08844935  0.64737459  0.82800100  1
  O  O488  1  0.08627585  0.98232792  0.07798389  1
  O  O489  1  0.08730126  0.98127058  0.32687780  1
  O  O490  1  0.08874976  0.98145829  0.57808091  1
  O  O491  1  0.08621425  0.98145254  0.82632071  1
  O  O492  1  0.58896146  0.31630775  0.07774738  1
  O  O493  1  0.58809486  0.31585482  0.32674106  1
  O  O494  1  0.58537999  0.31406049  0.57775577  1
  O  O495  1  0.58597335  0.31563898  0.82810121  1
  O  O496  1  0.58553328  0.64720058  0.07700554  1
  O  O497  1  0.58507531  0.64911132  0.32740828  1
  O  O498  1  0.58480065  0.64818774  0.57713009  1
  O  O499  1  0.58524939  0.64903427  0.82753534  1
  O  O500  1  0.58975112  0.98150053  0.07698245  1
  O  O501  1  0.58772138  0.98011492  0.32672683  1
  O  O502  1  0.58661808  0.98307125  0.57776370  1
  O  O503  1  0.58823007  0.98051152  0.82735097  1
  O  O504  1  0.41313657  0.01838670  0.17259366  1
  O  O505  1  0.41287456  0.01712774  0.42154781  1
  O  O506  1  0.41313856  0.01770768  0.67343171  1
  O  O507  1  0.41187001  0.01756942  0.92230951  1
  O  O508  1  0.41162499  0.35215980  0.17299330  1
  O  O509  1  0.41283892  0.35178124  0.42124841  1
  O  O510  1  0.41209533  0.35103468  0.67234036  1
  O  O511  1  0.41121122  0.35156432  0.92405478  1
  O  O512  1  0.41205435  0.68422654  0.17194336  1
  O  O513  1  0.41216748  0.68535357  0.42195337  1
  O  O514  1  0.41037050  0.68569036  0.67197971  1
  O  O515  1  0.41266466  0.68560666  0.92188841  1
  O  O516  1  0.91269625  0.01882550  0.17310306  1
  O  O517  1  0.91368228  0.01686996  0.42154247  1
  O  O518  1  0.91271167  0.01815751  0.67241674  1
  O  O519  1  0.91200680  0.01786550  0.92206068  1
  O  O520  1  0.91433522  0.35062279  0.17198940  1
  O  O521  1  0.91288838  0.35283706  0.42190868  1
  O  O522  1  0.91083352  0.35307512  0.67350939  1
  O  O523  1  0.91211384  0.35116666  0.92337170  1
  O  O524  1  0.91334968  0.68556314  0.17240670  1
  O  O525  1  0.91468655  0.68507139  0.42166273  1
  O  O526  1  0.91236643  0.68400428  0.67220770  1
  O  O527  1  0.91137919  0.68618831  0.92388123  1
  O  O528  1  0.16053475  0.01754302  0.20238802  1
  O  O529  1  0.16214874  0.01812929  0.45189477  1
  O  O530  1  0.16553274  0.01659647  0.70295313  1
  O  O531  1  0.16097239  0.01931782  0.95253122  1
  O  O532  1  0.16263568  0.35181330  0.20145334  1
  O  O533  1  0.16304534  0.35210176  0.45305177  1
  O  O534  1  0.16257754  0.35147513  0.70338971  1
  O  O535  1  0.16168259  0.35174559  0.95175633  1
  O  O536  1  0.16032161  0.68507305  0.20289714  1
  O  O537  1  0.16407119  0.68480313  0.45168253  1
  O  O538  1  0.16552537  0.68612372  0.70193009  1
  O  O539  1  0.16199367  0.68398477  0.95324519  1
  O  O540  1  0.66479644  0.01767108  0.20244945  1
  O  O541  1  0.66136891  0.01710986  0.45302334  1
  O  O542  1  0.66109075  0.01751616  0.70252109  1
  O  O543  1  0.66255024  0.01861867  0.95324426  1
  O  O544  1  0.66103994  0.35106692  0.20262674  1
  O  O545  1  0.66063432  0.35225111  0.45164891  1
  O  O546  1  0.66428411  0.35133031  0.70261937  1
  O  O547  1  0.66375683  0.35108860  0.95342508  1
  O  O548  1  0.66238083  0.68567156  0.20279508  1
  O  O549  1  0.66100425  0.68567069  0.45142801  1
  O  O550  1  0.66106647  0.68542301  0.70250657  1
  O  O551  1  0.66281520  0.68554099  0.95175161  1
  O  O552  1  0.33602114  0.31596345  0.04721956  1
  O  O553  1  0.33468694  0.31612244  0.29676962  1
  O  O554  1  0.33851781  0.31466329  0.54817538  1
  O  O555  1  0.33943350  0.31351866  0.79856319  1
  O  O556  1  0.33742903  0.64700674  0.04841208  1
  O  O557  1  0.33729547  0.64711234  0.29723496  1
  O  O558  1  0.33939228  0.64963365  0.54627986  1
  O  O559  1  0.33902685  0.64986231  0.79760921  1
  O  O560  1  0.33766655  0.98150702  0.04778509  1
  O  O561  1  0.33574386  0.98195876  0.29787971  1
  O  O562  1  0.34031383  0.98022550  0.54761092  1
  O  O563  1  0.33851651  0.98182801  0.79835868  1
  O  O564  1  0.83824841  0.31595780  0.04846707  1
  O  O565  1  0.83684009  0.31437177  0.29732626  1
  O  O566  1  0.83679669  0.31508495  0.54683879  1
  O  O567  1  0.83794001  0.31602032  0.79815593  1
  O  O568  1  0.83759917  0.64891564  0.04745472  1
  O  O569  1  0.83803683  0.64845352  0.29872096  1
  O  O570  1  0.83828768  0.64892003  0.54763303  1
  O  O571  1  0.83802087  0.64770677  0.79738777  1
  O  O572  1  0.83844862  0.98015623  0.04804954  1
  O  O573  1  0.83801436  0.98288360  0.29764524  1
  O  O574  1  0.83599973  0.98115530  0.54728939  1
  O  O575  1  0.83555148  0.98203783  0.79805598  1
  O  O576  1  0.41334895  0.14850934  0.17264003  1
  O  O577  1  0.41255401  0.14746403  0.42159987  1
  O  O578  1  0.41273285  0.14778953  0.67323392  1
  O  O579  1  0.41157336  0.14801596  0.92246871  1
  O  O580  1  0.41163838  0.48220875  0.17224250  1
  O  O581  1  0.41258635  0.48200155  0.42051764  1
  O  O582  1  0.41176901  0.48125195  0.67209924  1
  O  O583  1  0.41085293  0.48172283  0.92325626  1
  O  O584  1  0.41261510  0.81434310  0.17292445  1
  O  O585  1  0.41265586  0.81544081  0.42251995  1
  O  O586  1  0.41062691  0.81596536  0.67214589  1
  O  O587  1  0.41332019  0.81580144  0.92244828  1
  O  O588  1  0.91326091  0.14897829  0.17314999  1
  O  O589  1  0.91338403  0.14720150  0.42209907  1
  O  O590  1  0.91244106  0.14825773  0.67209114  1
  O  O591  1  0.91218236  0.14824155  0.92242145  1
  O  O592  1  0.91379795  0.48072173  0.17224577  1
  O  O593  1  0.91310483  0.48319172  0.42105034  1
  O  O594  1  0.91168642  0.48324005  0.67282290  1
  O  O595  1  0.91216986  0.48119286  0.92395505  1
  O  O596  1  0.91361719  0.81570977  0.17212652  1
  O  O597  1  0.91471667  0.81527658  0.42214033  1
  O  O598  1  0.91235632  0.81416745  0.67266784  1
  O  O599  1  0.91166463  0.81633504  0.92280358  1
  O  O600  1  0.08776969  0.18462900  0.07763955  1
  O  O601  1  0.08820553  0.18415868  0.32724766  1
  O  O602  1  0.08718824  0.18506389  0.57788096  1
  O  O603  1  0.08650832  0.18600495  0.82764995  1
  O  O604  1  0.09001215  0.51798739  0.07732237  1
  O  O605  1  0.08787776  0.51949670  0.32629343  1
  O  O606  1  0.08581129  0.51835546  0.57746019  1
  O  O607  1  0.08767741  0.51702747  0.82861899  1
  O  O608  1  0.08645095  0.85209935  0.07757243  1
  O  O609  1  0.08755038  0.85125956  0.32714379  1
  O  O610  1  0.08867715  0.85126979  0.57804383  1
  O  O611  1  0.08612848  0.85157555  0.82634375  1
  O  O612  1  0.58981107  0.18617235  0.07665242  1
  O  O613  1  0.58857184  0.18574252  0.32602348  1
  O  O614  1  0.58514247  0.18383384  0.57812577  1
  O  O615  1  0.58620637  0.18550741  0.82820123  1
  O  O616  1  0.58482410  0.51713511  0.07699707  1
  O  O617  1  0.58533968  0.51895940  0.32708908  1
  O  O618  1  0.58498052  0.51807536  0.57736631  1
  O  O619  1  0.58527670  0.51878427  0.82732521  1
  O  O620  1  0.58975104  0.85149711  0.07742209  1
  O  O621  1  0.58726627  0.85014910  0.32789096  1
  O  O622  1  0.58749749  0.85304320  0.57706166  1
  O  O623  1  0.58734232  0.85040689  0.82760482  1
  O  O624  1  0.33573182  0.18592325  0.04814969  1
  O  O625  1  0.33512238  0.18595624  0.29724358  1
  O  O626  1  0.33867456  0.18468093  0.54794740  1
  O  O627  1  0.33915668  0.18331235  0.79791397  1
  O  O628  1  0.33677550  0.51693427  0.04738727  1
  O  O629  1  0.33674229  0.51703413  0.29647298  1
  O  O630  1  0.33975186  0.51948398  0.54735725  1
  O  O631  1  0.33974257  0.51964923  0.79825305  1
  O  O632  1  0.33725811  0.85130524  0.04794455  1
  O  O633  1  0.33622428  0.85202863  0.29782326  1
  O  O634  1  0.33926522  0.85017350  0.54676696  1
  O  O635  1  0.33881806  0.85179800  0.79803447  1
  O  O636  1  0.83864485  0.18588323  0.04837933  1
  O  O637  1  0.83674099  0.18409146  0.29686746  1
  O  O638  1  0.83617484  0.18488713  0.54721070  1
  O  O639  1  0.83848346  0.18586854  0.79832461  1
  O  O640  1  0.83763697  0.51853952  0.04796098  1
  O  O641  1  0.83830876  0.51845908  0.29829886  1
  O  O642  1  0.83847548  0.51886304  0.54722784  1
  O  O643  1  0.83816580  0.51757286  0.79692632  1
  O  O644  1  0.83721544  0.85004868  0.04763536  1
  O  O645  1  0.83849701  0.85284108  0.29853427  1
  O  O646  1  0.83598640  0.85103710  0.54739064  1
  O  O647  1  0.83594531  0.85217954  0.79824647  1
  O  O648  1  0.15949096  0.14779854  0.20285343  1
  O  O649  1  0.16192738  0.14808773  0.45215837  1
  O  O650  1  0.16507158  0.14683886  0.70254921  1
  O  O651  1  0.16151723  0.14968153  0.95302064  1
  O  O652  1  0.16267381  0.48183748  0.20151955  1
  O  O653  1  0.16360696  0.48222326  0.45259059  1
  O  O654  1  0.16255062  0.48188248  0.70322012  1
  O  O655  1  0.16221539  0.48186862  0.95207138  1
  O  O656  1  0.16036243  0.81532287  0.20264353  1
  O  O657  1  0.16399454  0.81465237  0.45166884  1
  O  O658  1  0.16540779  0.81635270  0.70273191  1
  O  O659  1  0.16201742  0.81424178  0.95233292  1
  O  O660  1  0.66460134  0.14783621  0.20236442  1
  O  O661  1  0.66097047  0.14739482  0.45257580  1
  O  O662  1  0.66080812  0.14767407  0.70207447  1
  O  O663  1  0.66321248  0.14899027  0.95299440  1
  O  O664  1  0.66040410  0.48118714  0.20169414  1
  O  O665  1  0.66131634  0.48226885  0.45131757  1
  O  O666  1  0.66410647  0.48147550  0.70215337  1
  O  O667  1  0.66377295  0.48132521  0.95263437  1
  O  O668  1  0.66221938  0.81599885  0.20390472  1
  O  O669  1  0.66096946  0.81565661  0.45201537  1
  O  O670  1  0.66072096  0.81573908  0.70352493  1
  O  O671  1  0.66323842  0.81555974  0.95245108  1
