# generated using pymatgen
data_Na2MnFe(PO4)2
_symmetry_space_group_name_H-M   'P 1'
_cell_length_a   21.08359052
_cell_length_b   18.93509399
_cell_length_c   20.04279961
_cell_angle_alpha   90.00018468
_cell_angle_beta   89.99842240
_cell_angle_gamma   89.99949859
_symmetry_Int_Tables_number   1
_chemical_formula_structural   Na2MnFe(PO4)2
_chemical_formula_sum   'Na96 Mn48 Fe48 P96 O384'
_cell_volume   8001.48180771
_cell_formula_units_Z   48
loop_
 _symmetry_equiv_pos_site_id
 _symmetry_equiv_pos_as_xyz
  1  'x, y, z'
loop_
 _atom_site_type_symbol
 _atom_site_label
 _atom_site_symmetry_multiplicity
 _atom_site_fract_x
 _atom_site_fract_y
 _atom_site_fract_z
 _atom_site_occupancy
  Na  Na0  1  0.00290408  0.00083973  -0.00024302  1
  Na  Na1  1  0.00061526  -0.00000792  0.24959400  1
  Na  Na2  1  -0.00133846  -0.00061230  0.50032490  1
  Na  Na3  1  -0.00109189  -0.00078539  0.75068904  1
  Na  Na4  1  0.00058008  0.33408422  -0.00050930  1
  Na  Na5  1  -0.00004592  0.33415162  0.24959671  1
  Na  Na6  1  -0.00188659  0.33393506  0.50041917  1
  Na  Na7  1  -0.00201478  0.33383820  0.75003115  1
  Na  Na8  1  -0.00114339  0.66630465  -0.00057482  1
  Na  Na9  1  0.00005472  0.66661111  0.25032254  1
  Na  Na10  1  -0.00074091  0.66664115  0.49921517  1
  Na  Na11  1  -0.00202835  0.66605906  0.75108854  1
  Na  Na12  1  0.49905106  -0.00013706  -0.00037162  1
  Na  Na13  1  0.49634796  -0.00125300  0.24994634  1
  Na  Na14  1  0.49832447  0.00011418  0.49924748  1
  Na  Na15  1  0.49799968  -0.00104848  0.75027023  1
  Na  Na16  1  0.49992506  0.33310003  0.00037360  1
  Na  Na17  1  0.49919563  0.33333754  0.24976459  1
  Na  Na18  1  0.49916593  0.33292652  0.50009792  1
  Na  Na19  1  0.50183533  0.33405923  0.75027246  1
  Na  Na20  1  0.50273368  0.66708689  -0.00009422  1
  Na  Na21  1  0.49959080  0.66640645  0.25126227  1
  Na  Na22  1  0.50090743  0.66619468  0.50073374  1
  Na  Na23  1  0.50300771  0.66704883  0.74904120  1
  Na  Na24  1  0.24922102  -0.00039506  0.12486375  1
  Na  Na25  1  0.25050333  -0.00050905  0.37501511  1
  Na  Na26  1  0.25177423  -0.00037932  0.62425725  1
  Na  Na27  1  0.24951980  -0.00022862  0.87556411  1
  Na  Na28  1  0.24952113  0.33392783  0.12542005  1
  Na  Na29  1  0.25016126  0.33345178  0.37474156  1
  Na  Na30  1  0.25149483  0.33408240  0.62478268  1
  Na  Na31  1  0.24833639  0.33311685  0.87487405  1
  Na  Na32  1  0.24733417  0.66515819  0.12520007  1
  Na  Na33  1  0.25170361  0.66706355  0.37479087  1
  Na  Na34  1  0.24965604  0.66573133  0.62511713  1
  Na  Na35  1  0.24971741  0.66693647  0.87511328  1
  Na  Na36  1  0.75125535  -0.00000979  0.12545277  1
  Na  Na37  1  0.75293830  0.00074136  0.37523103  1
  Na  Na38  1  0.75152262  0.00027757  0.62429723  1
  Na  Na39  1  0.75100991  0.00018298  0.87462295  1
  Na  Na40  1  0.75200657  0.33419675  0.12606902  1
  Na  Na41  1  0.74976224  0.33340613  0.37478111  1
  Na  Na42  1  0.75056665  0.33443694  0.62520098  1
  Na  Na43  1  0.75027976  0.33351104  0.87466481  1
  Na  Na44  1  0.75191008  0.66788390  0.12510008  1
  Na  Na45  1  0.75018959  0.66672680  0.37447551  1
  Na  Na46  1  0.74833913  0.66624936  0.62509257  1
  Na  Na47  1  0.74925970  0.66657121  0.87491304  1
  Na  Na48  1  0.00095620  0.16685463  -0.00086418  1
  Na  Na49  1  0.00035697  0.16700349  0.25045233  1
  Na  Na50  1  -0.00159574  0.16707740  0.49948081  1
  Na  Na51  1  -0.00182158  0.16771023  0.75110782  1
  Na  Na52  1  0.00061373  0.49892336  -0.00038948  1
  Na  Na53  1  -0.00074713  0.49999103  0.25030828  1
  Na  Na54  1  -0.00052742  0.49955656  0.49978675  1
  Na  Na55  1  -0.00264026  0.50044810  0.74983497  1
  Na  Na56  1  0.00142942  0.83289913  -0.00008074  1
  Na  Na57  1  0.00089222  0.83303586  0.24880325  1
  Na  Na58  1  -0.00214450  0.83425274  0.50049479  1
  Na  Na59  1  -0.00152090  0.83380005  0.75088237  1
  Na  Na60  1  0.49966592  0.16688262  -0.00017277  1
  Na  Na61  1  0.49780145  0.16768513  0.24994923  1
  Na  Na62  1  0.49863233  0.16762305  0.49970523  1
  Na  Na63  1  0.49930738  0.16723304  0.75039047  1
  Na  Na64  1  0.50168918  0.49918946  -0.00005278  1
  Na  Na65  1  0.49787940  0.50082352  0.25050924  1
  Na  Na66  1  0.50237463  0.49873459  0.50044919  1
  Na  Na67  1  0.50230953  0.49935423  0.75004780  1
  Na  Na68  1  0.50088612  0.83283916  0.00006657  1
  Na  Na69  1  0.49842301  0.83345859  0.25038351  1
  Na  Na70  1  0.49706156  0.83414413  0.49986887  1
  Na  Na71  1  0.50217784  0.83180961  0.74935061  1
  Na  Na72  1  0.25016244  0.16710842  0.12534832  1
  Na  Na73  1  0.25279166  0.16639570  0.37489470  1
  Na  Na74  1  0.25239206  0.16667173  0.62452215  1
  Na  Na75  1  0.25104861  0.16673710  0.87508192  1
  Na  Na76  1  0.24937867  0.49887708  0.12515683  1
  Na  Na77  1  0.24857559  0.50032296  0.37506217  1
  Na  Na78  1  0.25025030  0.49948863  0.62467812  1
  Na  Na79  1  0.24776228  0.50013195  0.87569602  1
  Na  Na80  1  0.24788220  0.83378841  0.12479300  1
  Na  Na81  1  0.25053657  0.83346282  0.37468963  1
  Na  Na82  1  0.25158717  0.83275603  0.62449261  1
  Na  Na83  1  0.24751970  0.83438567  0.87516790  1
  Na  Na84  1  0.75190815  0.16633105  0.12518906  1
  Na  Na85  1  0.75005254  0.16739647  0.37446300  1
  Na  Na86  1  0.75100310  0.16658250  0.62442697  1
  Na  Na87  1  0.74940437  0.16780155  0.87509516  1
  Na  Na88  1  0.75220769  0.49901884  0.12614174  1
  Na  Na89  1  0.75019584  0.49988026  0.37429028  1
  Na  Na90  1  0.74877852  0.49963658  0.62534414  1
  Na  Na91  1  0.74955541  0.50005418  0.87432377  1
  Na  Na92  1  0.75098529  0.83287335  0.12521943  1
  Na  Na93  1  0.75185853  0.83273760  0.37595044  1
  Na  Na94  1  0.75091353  0.83283526  0.62477855  1
  Na  Na95  1  0.75086909  0.83257994  0.87475933  1
  Mn  Mn96  1  0.39218910  0.91546992  0.87698220  1
  Mn  Mn97  1  0.14263401  0.24944541  0.74681873  1
  Mn  Mn98  1  0.89186462  0.25017614  0.87733002  1
  Mn  Mn99  1  0.35740412  0.74958978  0.25153690  1
  Mn  Mn100  1  0.60775732  0.41684671  0.12338168  1
  Mn  Mn101  1  0.10732620  0.74915280  0.87244349  1
  Mn  Mn102  1  0.89244789  0.91686051  0.87743674  1
  Mn  Mn103  1  0.60717919  0.08348497  0.37194158  1
  Mn  Mn104  1  0.14214620  0.58358181  0.24764871  1
  Mn  Mn105  1  0.14178435  0.58353392  0.74701860  1
  Mn  Mn106  1  0.14259276  0.24961989  0.24777665  1
  Mn  Mn107  1  0.39165871  0.58357303  0.12658655  1
  Mn  Mn108  1  0.85861402  0.08357296  0.00303069  1
  Mn  Mn109  1  0.10802658  0.75002104  0.37311889  1
  Mn  Mn110  1  0.89182215  0.24977588  0.37700890  1
  Mn  Mn111  1  0.14230461  0.91605381  0.49811233  1
  Mn  Mn112  1  0.60729629  0.08272094  0.12373307  1
  Mn  Mn113  1  0.64229136  0.91717371  0.24825386  1
  Mn  Mn114  1  0.64318095  0.58300395  0.99869402  1
  Mn  Mn115  1  0.10727238  0.08370574  0.62325426  1
  Mn  Mn116  1  0.64213811  0.91687143  0.99848923  1
  Mn  Mn117  1  0.39276907  0.25062278  0.87710741  1
  Mn  Mn118  1  0.35768237  0.74943062  0.00221280  1
  Mn  Mn119  1  0.35716211  0.08347931  0.00265673  1
  Mn  Mn120  1  0.39324888  0.58287731  0.62750412  1
  Mn  Mn121  1  0.89115575  0.58315941  0.87752597  1
  Mn  Mn122  1  0.85765079  0.74891067  0.50296609  1
  Mn  Mn123  1  0.35706636  0.41699704  0.00152301  1
  Mn  Mn124  1  0.64262849  0.58345134  0.24766031  1
  Mn  Mn125  1  0.60809422  0.08311939  0.87243617  1
  Mn  Mn126  1  0.35837287  0.08291720  0.50255832  1
  Mn  Mn127  1  0.64272573  0.25020506  0.99904704  1
  Mn  Mn128  1  0.10658628  0.41680350  0.62329372  1
  Mn  Mn129  1  0.85826201  0.08408794  0.50270908  1
  Mn  Mn130  1  0.39326532  0.58332104  0.87698982  1
  Mn  Mn131  1  0.89348282  0.91701113  0.12742243  1
  Mn  Mn132  1  0.10800208  0.08371950  0.37270440  1
  Mn  Mn133  1  0.64207205  0.25022486  0.49779493  1
  Mn  Mn134  1  0.60694370  0.75018307  0.37271004  1
  Mn  Mn135  1  0.89208240  0.58368200  0.37770261  1
  Mn  Mn136  1  0.64219327  0.91665184  0.49748318  1
  Mn  Mn137  1  0.10847482  0.08411687  0.87160972  1
  Mn  Mn138  1  0.60744192  0.08308024  0.62305415  1
  Mn  Mn139  1  0.35801071  0.41757073  0.50210664  1
  Mn  Mn140  1  0.35839912  0.74949077  0.75263234  1
  Mn  Mn141  1  0.14210657  0.25039878  0.49843513  1
  Mn  Mn142  1  0.10694045  0.74975606  0.62293848  1
  Mn  Mn143  1  0.64266337  0.91745078  0.74710262  1
  Fe  Fe144  1  0.85620829  0.74982800  0.75140581  1
  Fe  Fe145  1  0.64295717  0.24961365  0.24802478  1
  Fe  Fe146  1  0.89337784  0.58293585  0.12627811  1
  Fe  Fe147  1  0.14220225  0.58324749  0.49865366  1
  Fe  Fe148  1  0.10692102  0.41665301  0.12345239  1
  Fe  Fe149  1  0.39147129  0.91625653  0.37667739  1
  Fe  Fe150  1  0.85732022  0.74975441  0.00229696  1
  Fe  Fe151  1  0.35761600  0.08355124  0.75156403  1
  Fe  Fe152  1  0.89312872  0.91665041  0.37580379  1
  Fe  Fe153  1  0.10802089  0.08408863  0.12378581  1
  Fe  Fe154  1  0.35810068  0.41669253  0.75221038  1
  Fe  Fe155  1  0.14126639  0.58298967  0.99828899  1
  Fe  Fe156  1  0.89158916  0.25012616  0.62740175  1
  Fe  Fe157  1  0.85852402  0.08323862  0.25116433  1
  Fe  Fe158  1  0.39160877  0.91638426  0.12649669  1
  Fe  Fe159  1  0.60870844  0.74973995  0.87322554  1
  Fe  Fe160  1  0.35749627  0.74904245  0.50178699  1
  Fe  Fe161  1  0.64314662  0.58304023  0.74818248  1
  Fe  Fe162  1  0.39312080  0.25086200  0.37642455  1
  Fe  Fe163  1  0.35703431  0.41645454  0.25202342  1
  Fe  Fe164  1  0.89361166  0.25027385  0.12658879  1
  Fe  Fe165  1  0.10682888  0.41652300  0.37365546  1
  Fe  Fe166  1  0.60713766  0.41632321  0.37304425  1
  Fe  Fe167  1  0.85732817  0.08355457  0.75147457  1
  Fe  Fe168  1  0.60789861  0.75048309  0.12412698  1
  Fe  Fe169  1  0.85822965  0.75058120  0.25130053  1
  Fe  Fe170  1  0.39313163  0.25018745  0.62729020  1
  Fe  Fe171  1  0.85799412  0.41712019  0.00187456  1
  Fe  Fe172  1  0.89143800  0.58346858  0.62662233  1
  Fe  Fe173  1  0.85661320  0.41713507  0.50152736  1
  Fe  Fe174  1  0.39262731  0.58283373  0.37745666  1
  Fe  Fe175  1  0.60869753  0.41674505  0.87329569  1
  Fe  Fe176  1  0.10686243  0.74950765  0.12276406  1
  Fe  Fe177  1  0.39280231  0.91663879  0.62738068  1
  Fe  Fe178  1  0.85585107  0.41675473  0.75164527  1
  Fe  Fe179  1  0.39166458  0.25000142  0.12710419  1
  Fe  Fe180  1  0.14267931  0.91696576  0.24848190  1
  Fe  Fe181  1  0.14282923  0.91664682  0.99827027  1
  Fe  Fe182  1  0.14224983  0.25032494  0.99868577  1
  Fe  Fe183  1  0.85784522  0.41643476  0.25209044  1
  Fe  Fe184  1  0.64283842  0.58304789  0.49817286  1
  Fe  Fe185  1  0.60763468  0.41630311  0.62303129  1
  Fe  Fe186  1  0.89221119  0.91670157  0.62749814  1
  Fe  Fe187  1  0.14308983  0.91684156  0.74769171  1
  Fe  Fe188  1  0.64312656  0.24991325  0.74811405  1
  Fe  Fe189  1  0.35698466  0.08349675  0.25107700  1
  Fe  Fe190  1  0.60755081  0.75028835  0.62261835  1
  Fe  Fe191  1  0.10666000  0.41677862  0.87251310  1
  P  P192  1  0.05301882  0.25030955  0.10984145  1
  P  P193  1  0.05326321  0.25130036  0.36013662  1
  P  P194  1  0.05101531  0.25019306  0.61024272  1
  P  P195  1  0.05457616  0.25148464  0.86068420  1
  P  P196  1  0.05262006  0.58300510  0.10979724  1
  P  P197  1  0.05453367  0.58248415  0.36126634  1
  P  P198  1  0.05145817  0.58337343  0.60949442  1
  P  P199  1  0.05373671  0.58217606  0.86075668  1
  P  P200  1  0.05584860  0.91697547  0.11074421  1
  P  P201  1  0.05309593  0.91655487  0.35933494  1
  P  P202  1  0.05278939  0.91667832  0.61143825  1
  P  P203  1  0.05564240  0.91656893  0.86019434  1
  P  P204  1  0.55280908  0.24969753  0.11150846  1
  P  P205  1  0.55313167  0.25097452  0.35931719  1
  P  P206  1  0.55351162  0.25042998  0.61134824  1
  P  P207  1  0.55496143  0.25073857  0.85969305  1
  P  P208  1  0.55339511  0.58394976  0.11045850  1
  P  P209  1  0.55353734  0.58231330  0.36149115  1
  P  P210  1  0.55620914  0.58281753  0.61080336  1
  P  P211  1  0.55539583  0.58315026  0.85955242  1
  P  P212  1  0.55164327  0.91621962  0.11053950  1
  P  P213  1  0.55117072  0.91664923  0.36000164  1
  P  P214  1  0.55212725  0.91642339  0.60968412  1
  P  P215  1  0.55381638  0.91572023  0.85977536  1
  P  P216  1  0.44525409  0.08328815  0.14031333  1
  P  P217  1  0.44471998  0.08388523  0.38824616  1
  P  P218  1  0.44600652  0.08337709  0.64067528  1
  P  P219  1  0.44539566  0.08330453  0.88912785  1
  P  P220  1  0.44545813  0.41622874  0.14041371  1
  P  P221  1  0.44655395  0.41668495  0.38886375  1
  P  P222  1  0.44763426  0.41632327  0.64066339  1
  P  P223  1  0.44782296  0.41693294  0.88911068  1
  P  P224  1  0.44789642  0.75025350  0.13992957  1
  P  P225  1  0.44519676  0.74928180  0.39061679  1
  P  P226  1  0.44696141  0.74998502  0.63874372  1
  P  P227  1  0.44877064  0.74927526  0.89005093  1
  P  P228  1  0.94834775  0.08445375  0.14020994  1
  P  P229  1  0.94565041  0.08239960  0.38871286  1
  P  P230  1  0.94581700  0.08366335  0.64110431  1
  P  P231  1  0.94585538  0.08343661  0.88919043  1
  P  P232  1  0.94616652  0.41672325  0.13908407  1
  P  P233  1  0.94546999  0.41667546  0.38972284  1
  P  P234  1  0.94353792  0.41723948  0.63931577  1
  P  P235  1  0.94515824  0.41680316  0.88938134  1
  P  P236  1  0.94652060  0.74916238  0.13892660  1
  P  P237  1  0.94558996  0.75113595  0.38880954  1
  P  P238  1  0.94542953  0.74939228  0.64099885  1
  P  P239  1  0.94421635  0.74989329  0.88968372  1
  P  P240  1  0.19737845  0.08280667  0.23482521  1
  P  P241  1  0.19692815  0.08337937  0.48503562  1
  P  P242  1  0.19840016  0.08271198  0.73436250  1
  P  P243  1  0.19490382  0.08399449  0.98642675  1
  P  P244  1  0.19580148  0.41651885  0.23580052  1
  P  P245  1  0.19563609  0.41727193  0.48469413  1
  P  P246  1  0.19696950  0.41653566  0.73559589  1
  P  P247  1  0.19361736  0.41637974  0.98581852  1
  P  P248  1  0.19562208  0.75070574  0.23439757  1
  P  P249  1  0.19780894  0.74912847  0.48524006  1
  P  P250  1  0.19682979  0.75070845  0.73459677  1
  P  P251  1  0.19471156  0.74952063  0.98623082  1
  P  P252  1  0.69836075  0.08386967  0.23523959  1
  P  P253  1  0.69666956  0.08351462  0.48449322  1
  P  P254  1  0.69820179  0.08425584  0.73466096  1
  P  P255  1  0.69711653  0.08342768  0.98525741  1
  P  P256  1  0.69675969  0.41585548  0.23648090  1
  P  P257  1  0.69572411  0.41732217  0.48529551  1
  P  P258  1  0.69557207  0.41636316  0.73571444  1
  P  P259  1  0.69800651  0.41666789  0.98504921  1
  P  P260  1  0.69774769  0.75042907  0.23493752  1
  P  P261  1  0.69530298  0.74918220  0.48588484  1
  P  P262  1  0.69581518  0.74961920  0.73533965  1
  P  P263  1  0.69639827  0.75003101  0.98599171  1
  P  P264  1  0.30239267  0.25078068  0.01542473  1
  P  P265  1  0.30522797  0.25026795  0.26423919  1
  P  P266  1  0.30550361  0.25072983  0.51455441  1
  P  P267  1  0.30515560  0.25048328  0.76382389  1
  P  P268  1  0.30115016  0.58303646  0.01474070  1
  P  P269  1  0.30397246  0.58219440  0.26549406  1
  P  P270  1  0.30339420  0.58368326  0.51414510  1
  P  P271  1  0.30353906  0.58205896  0.76528532  1
  P  P272  1  0.30248390  0.91613274  0.01537395  1
  P  P273  1  0.30371387  0.91716175  0.26389433  1
  P  P274  1  0.30550073  0.91527884  0.51448862  1
  P  P275  1  0.30363445  0.91712839  0.76408109  1
  P  P276  1  0.80448759  0.25131257  0.01609643  1
  P  P277  1  0.80423152  0.25000644  0.26348715  1
  P  P278  1  0.80376331  0.25140695  0.51548180  1
  P  P279  1  0.80342467  0.25024613  0.76372391  1
  P  P280  1  0.80431764  0.58312639  0.01578504  1
  P  P281  1  0.80554710  0.58360352  0.26346145  1
  P  P282  1  0.80228019  0.58231137  0.51549258  1
  P  P283  1  0.80304357  0.58337954  0.76350308  1
  P  P284  1  0.80374314  0.91584703  0.01537483  1
  P  P285  1  0.80453751  0.91648514  0.26541635  1
  P  P286  1  0.80529663  0.91647197  0.51459735  1
  P  P287  1  0.80475666  0.91657461  0.76375002  1
  O  O288  1  0.05649030  0.25028421  0.18657684  1
  O  O289  1  0.05609286  0.25068866  0.43688349  1
  O  O290  1  0.05543601  0.25023283  0.68694393  1
  O  O291  1  0.05869242  0.25046120  0.93738936  1
  O  O292  1  0.05595963  0.58315780  0.18655108  1
  O  O293  1  0.05865449  0.58335422  0.43801254  1
  O  O294  1  0.05536542  0.58328965  0.68625656  1
  O  O295  1  0.05782730  0.58299590  0.93749468  1
  O  O296  1  0.05938947  0.91704657  0.18755017  1
  O  O297  1  0.05643395  0.91647191  0.43614448  1
  O  O298  1  0.05839659  0.91665925  0.68804098  1
  O  O299  1  0.05997686  0.91667499  0.93701021  1
  O  O300  1  0.55837189  0.24976154  0.18813056  1
  O  O301  1  0.55669667  0.25035902  0.43608879  1
  O  O302  1  0.55880632  0.24978266  0.68794765  1
  O  O303  1  0.55768765  0.25018965  0.93654001  1
  O  O304  1  0.55618426  0.58329605  0.18727195  1
  O  O305  1  0.55848451  0.58260114  0.43813987  1
  O  O306  1  0.56019510  0.58296464  0.68760270  1
  O  O307  1  0.55799930  0.58286521  0.93636146  1
  O  O308  1  0.55555597  0.91686356  0.18722239  1
  O  O309  1  0.55552803  0.91689986  0.43662722  1
  O  O310  1  0.55644443  0.91677839  0.68637793  1
  O  O311  1  0.55670153  0.91668571  0.93656514  1
  O  O312  1  0.44297491  0.08351500  0.06344045  1
  O  O313  1  0.44075912  0.08340375  0.31153215  1
  O  O314  1  0.44366097  0.08359004  0.56377941  1
  O  O315  1  0.44100405  0.08330472  0.81238799  1
  O  O316  1  0.44264827  0.41662468  0.06357728  1
  O  O317  1  0.44179371  0.41702157  0.31226664  1
  O  O318  1  0.44370948  0.41710330  0.56393422  1
  O  O319  1  0.44277232  0.41695700  0.81250328  1
  O  O320  1  0.44427401  0.74949010  0.06323834  1
  O  O321  1  0.44246091  0.74933468  0.31375812  1
  O  O322  1  0.44179436  0.74901930  0.56216434  1
  O  O323  1  0.44464463  0.74920921  0.81333100  1
  O  O324  1  0.94492083  0.08368369  0.06347136  1
  O  O325  1  0.94173374  0.08338787  0.31193987  1
  O  O326  1  0.94355415  0.08368757  0.56421384  1
  O  O327  1  0.94069309  0.08350081  0.81251683  1
  O  O328  1  0.94208492  0.41671724  0.06237731  1
  O  O329  1  0.94094466  0.41671997  0.31293487  1
  O  O330  1  0.94005983  0.41737920  0.56251520  1
  O  O331  1  0.93964194  0.41697673  0.81272483  1
  O  O332  1  0.94188042  0.75003422  0.06222961  1
  O  O333  1  0.94197653  0.75021796  0.31204651  1
  O  O334  1  0.94322116  0.74932626  0.56405956  1
  O  O335  1  0.93947771  0.74968034  0.81297108  1
  O  O336  1  0.19123411  0.08438113  0.06321287  1
  O  O337  1  0.19403652  0.08355203  0.31156330  1
  O  O338  1  0.19349698  0.08355339  0.56178456  1
  O  O339  1  0.19466729  0.08355041  0.81113854  1
  O  O340  1  0.18985739  0.41650857  0.06269198  1
  O  O341  1  0.19093123  0.41645393  0.31241614  1
  O  O342  1  0.19237890  0.41657190  0.56149846  1
  O  O343  1  0.19168702  0.41656653  0.81221881  1
  O  O344  1  0.19069851  0.74898759  0.06301039  1
  O  O345  1  0.19318789  0.75003145  0.31119850  1
  O  O346  1  0.19381010  0.74959230  0.56191433  1
  O  O347  1  0.19333035  0.75000609  0.81136861  1
  O  O348  1  0.69352623  0.08307348  0.06202498  1
  O  O349  1  0.69413611  0.08337825  0.31191248  1
  O  O350  1  0.69306337  0.08326305  0.56125879  1
  O  O351  1  0.69443511  0.08359450  0.81136355  1
  O  O352  1  0.69406275  0.41669494  0.06179357  1
  O  O353  1  0.69158737  0.41643411  0.31311008  1
  O  O354  1  0.69123594  0.41626353  0.56204179  1
  O  O355  1  0.69182896  0.41635085  0.81245526  1
  O  O356  1  0.69125463  0.75036012  0.06268383  1
  O  O357  1  0.69332672  0.75028465  0.31164256  1
  O  O358  1  0.69103352  0.75044626  0.56265462  1
  O  O359  1  0.69191395  0.75029125  0.81213170  1
  O  O360  1  0.30844923  0.25062109  0.18740333  1
  O  O361  1  0.30961582  0.25098025  0.43776004  1
  O  O362  1  0.30930178  0.25082646  0.68702749  1
  O  O363  1  0.30655979  0.25082126  0.93869287  1
  O  O364  1  0.30651268  0.58273707  0.18867664  1
  O  O365  1  0.30837290  0.58277393  0.43748390  1
  O  O366  1  0.30716055  0.58244042  0.68849284  1
  O  O367  1  0.30585110  0.58329963  0.93812515  1
  O  O368  1  0.30815833  0.91616246  0.18717147  1
  O  O369  1  0.30916941  0.91620626  0.43759917  1
  O  O370  1  0.30874570  0.91608634  0.68737750  1
  O  O371  1  0.30652697  0.91600932  0.93865836  1
  O  O372  1  0.80938507  0.25011459  0.18688083  1
  O  O373  1  0.80657594  0.25054532  0.43866563  1
  O  O374  1  0.80761195  0.25016739  0.68702828  1
  O  O375  1  0.80684567  0.25046431  0.93925617  1
  O  O376  1  0.80976596  0.58341685  0.18673984  1
  O  O377  1  0.80611770  0.58321881  0.43875760  1
  O  O378  1  0.80708266  0.58346786  0.68683793  1
  O  O379  1  0.80585378  0.58304492  0.93895734  1
  O  O380  1  0.80757695  0.91642758  0.18860664  1
  O  O381  1  0.80957942  0.91646365  0.43789518  1
  O  O382  1  0.80836550  0.91659326  0.68692466  1
  O  O383  1  0.80656528  0.91647817  0.93860405  1
  O  O384  1  0.23221865  0.25070268  0.03956891  1
  O  O385  1  0.23529945  0.25001395  0.28892759  1
  O  O386  1  0.23544782  0.25069339  0.53874655  1
  O  O387  1  0.23519810  0.25014548  0.78824825  1
  O  O388  1  0.23100084  0.58224870  0.03889093  1
  O  O389  1  0.23421123  0.58339160  0.29046509  1
  O  O390  1  0.23307904  0.58288785  0.53799672  1
  O  O391  1  0.23371217  0.58303300  0.78993247  1
  O  O392  1  0.23222522  0.91654483  0.03917388  1
  O  O393  1  0.23337124  0.91668307  0.28789254  1
  O  O394  1  0.23544689  0.91612105  0.53865554  1
  O  O395  1  0.23335337  0.91710237  0.78792496  1
  O  O396  1  0.73493024  0.25045507  0.04165475  1
  O  O397  1  0.73390885  0.25023732  0.28743909  1
  O  O398  1  0.73404412  0.25063850  0.54050546  1
  O  O399  1  0.73328093  0.25067403  0.78807448  1
  O  O400  1  0.73496314  0.58327997  0.04205865  1
  O  O401  1  0.73553199  0.58349133  0.28788175  1
  O  O402  1  0.73224055  0.58279597  0.53983295  1
  O  O403  1  0.73285653  0.58310516  0.78787529  1
  O  O404  1  0.73421256  0.91633201  0.04094276  1
  O  O405  1  0.73485323  0.91660110  0.29084853  1
  O  O406  1  0.73518226  0.91643420  0.53861248  1
  O  O407  1  0.73491845  0.91644556  0.78855996  1
  O  O408  1  0.26738316  0.08338423  0.21013534  1
  O  O409  1  0.26671792  0.08296244  0.46028118  1
  O  O410  1  0.26836743  0.08319398  0.70975752  1
  O  O411  1  0.26481224  0.08350372  0.96169349  1
  O  O412  1  0.26624370  0.41637006  0.21240440  1
  O  O413  1  0.26549485  0.41700706  0.46000590  1
  O  O414  1  0.26728773  0.41656474  0.71192780  1
  O  O415  1  0.26367721  0.41660062  0.96142097  1
  O  O416  1  0.26531286  0.74952025  0.20906430  1
  O  O417  1  0.26773653  0.74981426  0.46043924  1
  O  O418  1  0.26660320  0.74961203  0.70980561  1
  O  O419  1  0.26460258  0.75028937  0.96143289  1
  O  O420  1  0.76854679  0.08322280  0.21095349  1
  O  O421  1  0.76657153  0.08411034  0.46011648  1
  O  O422  1  0.76818627  0.08378272  0.70999970  1
  O  O423  1  0.76689078  0.08389843  0.96042752  1
  O  O424  1  0.76728423  0.41634312  0.21319694  1
  O  O425  1  0.76608766  0.41690329  0.46152846  1
  O  O426  1  0.76590766  0.41661656  0.71169726  1
  O  O427  1  0.76807516  0.41702036  0.96059483  1
  O  O428  1  0.76806297  0.75046465  0.21119505  1
  O  O429  1  0.76540959  0.74909787  0.46193233  1
  O  O430  1  0.76613643  0.74986383  0.71134802  1
  O  O431  1  0.76684046  0.74930960  0.96263903  1
  O  O432  1  0.01846966  0.08387991  0.16475446  1
  O  O433  1  0.01547232  0.08309565  0.41349872  1
  O  O434  1  0.01533982  0.08357978  0.66696395  1
  O  O435  1  0.01606846  0.08350140  0.91244045  1
  O  O436  1  0.01658069  0.41687031  0.16310446  1
  O  O437  1  0.01572160  0.41672153  0.41346277  1
  O  O438  1  0.01350803  0.41717773  0.66403699  1
  O  O439  1  0.01557638  0.41667305  0.91245594  1
  O  O440  1  0.01700802  0.74976839  0.16245358  1
  O  O441  1  0.01537237  0.75047424  0.41377053  1
  O  O442  1  0.01493201  0.74966653  0.66680821  1
  O  O443  1  0.01445215  0.74961502  0.91303863  1
  O  O444  1  0.51476112  0.08323022  0.16620762  1
  O  O445  1  0.51460007  0.08416334  0.41309367  1
  O  O446  1  0.51558722  0.08311681  0.66627559  1
  O  O447  1  0.51540040  0.08360983  0.91324815  1
  O  O448  1  0.51522229  0.41710406  0.16554071  1
  O  O449  1  0.51677304  0.41604427  0.41308862  1
  O  O450  1  0.51796794  0.41695613  0.66446059  1
  O  O451  1  0.51819977  0.41659471  0.91274716  1
  O  O452  1  0.51774975  0.75018639  0.16524066  1
  O  O453  1  0.51493718  0.74965592  0.41571944  1
  O  O454  1  0.51747830  0.74958874  0.66204598  1
  O  O455  1  0.51891202  0.74950596  0.91413633  1
  O  O456  1  0.48238476  0.24981053  0.08803520  1
  O  O457  1  0.48291183  0.25074066  0.33527893  1
  O  O458  1  0.48310614  0.25028725  0.58779565  1
  O  O459  1  0.48518706  0.25051364  0.83478116  1
  O  O460  1  0.48394447  0.58322543  0.08459679  1
  O  O461  1  0.48313361  0.58317472  0.33794735  1
  O  O462  1  0.48608428  0.58249136  0.58674020  1
  O  O463  1  0.48583283  0.58339096  0.83384264  1
  O  O464  1  0.48161262  0.91646721  0.08575484  1
  O  O465  1  0.48086751  0.91606991  0.33619739  1
  O  O466  1  0.48191412  0.91702612  0.58568666  1
  O  O467  1  0.48418607  0.91526060  0.83445513  1
  O  O468  1  0.98296195  0.25044985  0.08504559  1
  O  O469  1  0.98368848  0.25077103  0.33473278  1
  O  O470  1  0.98086730  0.25037140  0.58615670  1
  O  O471  1  0.98449437  0.25122005  0.83667861  1
  O  O472  1  0.98254680  0.58263481  0.08503022  1
  O  O473  1  0.98456989  0.58300845  0.33697952  1
  O  O474  1  0.98129762  0.58315333  0.58525148  1
  O  O475  1  0.98366979  0.58269331  0.83676059  1
  O  O476  1  0.98583809  0.91692657  0.08606977  1
  O  O477  1  0.98321609  0.91654197  0.33440252  1
  O  O478  1  0.98224361  0.91658184  0.58844501  1
  O  O479  1  0.98537528  0.91656279  0.83690371  1
  O  O480  1  0.08690784  0.31542509  0.07725109  1
  O  O481  1  0.08713767  0.31651523  0.32783654  1
  O  O482  1  0.08477737  0.31526683  0.57750813  1
  O  O483  1  0.08782822  0.31676482  0.82780744  1
  O  O484  1  0.08636554  0.64803726  0.07686588  1
  O  O485  1  0.08826029  0.64734582  0.32796379  1
  O  O486  1  0.08532485  0.64845458  0.57673814  1
  O  O487  1  0.08731648  0.64708991  0.82741202  1
  O  O488  1  0.08948544  0.98213720  0.07795902  1
  O  O489  1  0.08738468  0.98150353  0.32675462  1
  O  O490  1  0.08580661  0.98168890  0.57776686  1
  O  O491  1  0.08920543  0.98145685  0.82673925  1
  O  O492  1  0.58607489  0.31484950  0.07818389  1
  O  O493  1  0.58702302  0.31604834  0.32672034  1
  O  O494  1  0.58657445  0.31573004  0.57811953  1
  O  O495  1  0.58915499  0.31584194  0.82748218  1
  O  O496  1  0.58755899  0.64922663  0.07870059  1
  O  O497  1  0.58714907  0.64725590  0.32811299  1
  O  O498  1  0.58968450  0.64788852  0.57765297  1
  O  O499  1  0.58993146  0.64821719  0.82742606  1
  O  O500  1  0.58549504  0.98125478  0.07762033  1
  O  O501  1  0.58444154  0.98173277  0.32674468  1
  O  O502  1  0.58588363  0.98147233  0.57679253  1
  O  O503  1  0.58755960  0.98094048  0.82698865  1
  O  O504  1  0.41068417  0.01814606  0.17217685  1
  O  O505  1  0.41117363  0.01872298  0.42125108  1
  O  O506  1  0.41144316  0.01829984  0.67263543  1
  O  O507  1  0.41192634  0.01811020  0.92205537  1
  O  O508  1  0.41161068  0.35098169  0.17277247  1
  O  O509  1  0.41291424  0.35163048  0.42185522  1
  O  O510  1  0.41416861  0.35118028  0.67346808  1
  O  O511  1  0.41419923  0.35206131  0.92247587  1
  O  O512  1  0.41385019  0.68522606  0.17264705  1
  O  O513  1  0.41132424  0.68403675  0.42317244  1
  O  O514  1  0.41393918  0.68502799  0.67264554  1
  O  O515  1  0.41514104  0.68424019  0.92306705  1
  O  O516  1  0.91407694  0.01960927  0.17303985  1
  O  O517  1  0.91235316  0.01701514  0.42124097  1
  O  O518  1  0.91131297  0.01862482  0.67318550  1
  O  O519  1  0.91277274  0.01840816  0.92272352  1
  O  O520  1  0.91289241  0.35157910  0.17244627  1
  O  O521  1  0.91178904  0.35180017  0.42284227  1
  O  O522  1  0.90975345  0.35214670  0.67225304  1
  O  O523  1  0.91183748  0.35195736  0.92303183  1
  O  O524  1  0.91349746  0.68393892  0.17209101  1
  O  O525  1  0.91149456  0.68630919  0.42204729  1
  O  O526  1  0.91107314  0.68409496  0.67288443  1
  O  O527  1  0.91055297  0.68500285  0.92298259  1
  O  O528  1  0.16344749  0.01775580  0.20242212  1
  O  O529  1  0.16284036  0.01827620  0.45268727  1
  O  O530  1  0.16458940  0.01755454  0.70197293  1
  O  O531  1  0.16118398  0.01878898  0.95383622  1
  O  O532  1  0.16226620  0.35168803  0.20222533  1
  O  O533  1  0.16146124  0.35236506  0.45185300  1
  O  O534  1  0.16359534  0.35158753  0.70202088  1
  O  O535  1  0.16020896  0.35110728  0.95293320  1
  O  O536  1  0.16061461  0.68604017  0.20197154  1
  O  O537  1  0.16411001  0.68394591  0.45265399  1
  O  O538  1  0.16229061  0.68585639  0.70206106  1
  O  O539  1  0.16138280  0.68424343  0.95312126  1
  O  O540  1  0.66438555  0.01883441  0.20248315  1
  O  O541  1  0.66308536  0.01837078  0.45168900  1
  O  O542  1  0.66430449  0.01926287  0.70170829  1
  O  O543  1  0.66337972  0.01829606  0.95248224  1
  O  O544  1  0.66378383  0.35075703  0.20299841  1
  O  O545  1  0.66201486  0.35252745  0.45172502  1
  O  O546  1  0.66225145  0.35132556  0.70225770  1
  O  O547  1  0.66416446  0.35162162  0.95231878  1
  O  O548  1  0.66408853  0.68545487  0.20182211  1
  O  O549  1  0.66196587  0.68374904  0.45337280  1
  O  O550  1  0.66237486  0.68440544  0.70264257  1
  O  O551  1  0.66288546  0.68502668  0.95268688  1
  O  O552  1  0.33624930  0.31573614  0.04825654  1
  O  O553  1  0.33892857  0.31536572  0.29733349  1
  O  O554  1  0.33924794  0.31562640  0.54774837  1
  O  O555  1  0.33848999  0.31573796  0.79705824  1
  O  O556  1  0.33442934  0.64823339  0.04792570  1
  O  O557  1  0.33883214  0.64694090  0.29779034  1
  O  O558  1  0.33645157  0.64895152  0.54730280  1
  O  O559  1  0.33785642  0.64708351  0.79777812  1
  O  O560  1  0.33635325  0.98104521  0.04825108  1
  O  O561  1  0.33692074  0.98242747  0.29683698  1
  O  O562  1  0.33967084  0.98003824  0.54763847  1
  O  O563  1  0.33693328  0.98235798  0.79694513  1
  O  O564  1  0.83836065  0.31680712  0.04789696  1
  O  O565  1  0.83754463  0.31506421  0.29697255  1
  O  O566  1  0.83743979  0.31678830  0.54755322  1
  O  O567  1  0.83697745  0.31540353  0.79672814  1
  O  O568  1  0.83915773  0.64808877  0.04764314  1
  O  O569  1  0.83888647  0.64890716  0.29638698  1
  O  O570  1  0.83648182  0.64701262  0.54870616  1
  O  O571  1  0.83628958  0.64843742  0.79682433  1
  O  O572  1  0.83829104  0.98071934  0.04782621  1
  O  O573  1  0.83899940  0.98159882  0.29746009  1
  O  O574  1  0.83899580  0.98146857  0.54772311  1
  O  O575  1  0.83840954  0.98177166  0.79651461  1
  O  O576  1  0.41064937  0.14826008  0.17243871  1
  O  O577  1  0.41119250  0.14924666  0.42086904  1
  O  O578  1  0.41176304  0.14847382  0.67289191  1
  O  O579  1  0.41171572  0.14834334  0.92217421  1
  O  O580  1  0.41072437  0.48096890  0.17290730  1
  O  O581  1  0.41357511  0.48184973  0.42262622  1
  O  O582  1  0.41368449  0.48112120  0.67390275  1
  O  O583  1  0.41465300  0.48199398  0.92259810  1
  O  O584  1  0.41359782  0.81529577  0.17215668  1
  O  O585  1  0.41066131  0.81425413  0.42267119  1
  O  O586  1  0.41403381  0.81526660  0.67200927  1
  O  O587  1  0.41471105  0.81417766  0.92279145  1
  O  O588  1  0.91451858  0.14959319  0.17270722  1
  O  O589  1  0.91161386  0.14724589  0.42184365  1
  O  O590  1  0.91138109  0.14884335  0.67313947  1
  O  O591  1  0.91267024  0.14858832  0.92243080  1
  O  O592  1  0.91265020  0.48169560  0.17240046  1
  O  O593  1  0.91180659  0.48156808  0.42307691  1
  O  O594  1  0.90979254  0.48236304  0.67227254  1
  O  O595  1  0.91192727  0.48171640  0.92312654  1
  O  O596  1  0.91301421  0.81401976  0.17262744  1
  O  O597  1  0.91213093  0.81641283  0.42128449  1
  O  O598  1  0.91077652  0.81430848  0.67305324  1
  O  O599  1  0.91108618  0.81492192  0.92318735  1
  O  O600  1  0.08705645  0.18528294  0.07720098  1
  O  O601  1  0.08770939  0.18638696  0.32762358  1
  O  O602  1  0.08474257  0.18515579  0.57739390  1
  O  O603  1  0.08813402  0.18657338  0.82714958  1
  O  O604  1  0.08672941  0.51798675  0.07731615  1
  O  O605  1  0.08769532  0.51709423  0.32842780  1
  O  O606  1  0.08568835  0.51850161  0.57685327  1
  O  O607  1  0.08693739  0.51688864  0.82778326  1
  O  O608  1  0.08942158  0.85176853  0.07789237  1
  O  O609  1  0.08735548  0.85166563  0.32672342  1
  O  O610  1  0.08570956  0.85157740  0.57764846  1
  O  O611  1  0.08894345  0.85149522  0.82694445  1
  O  O612  1  0.58597822  0.18466086  0.07808666  1
  O  O613  1  0.58701695  0.18607932  0.32615180  1
  O  O614  1  0.58655278  0.18549230  0.57748260  1
  O  O615  1  0.58923884  0.18586488  0.82683885  1
  O  O616  1  0.58804381  0.51903650  0.07817044  1
  O  O617  1  0.58647784  0.51714041  0.32799519  1
  O  O618  1  0.58987296  0.51767886  0.57788426  1
  O  O619  1  0.58971017  0.51803020  0.82724146  1
  O  O620  1  0.58565301  0.85107398  0.07820061  1
  O  O621  1  0.58500198  0.85167198  0.32722106  1
  O  O622  1  0.58554942  0.85122658  0.57685438  1
  O  O623  1  0.58835765  0.85069737  0.82792935  1
  O  O624  1  0.33635213  0.18583454  0.04825075  1
  O  O625  1  0.33916673  0.18515250  0.29669615  1
  O  O626  1  0.33931457  0.18567491  0.54740976  1
  O  O627  1  0.33873360  0.18519579  0.79649090  1
  O  O628  1  0.33522062  0.51816083  0.04744374  1
  O  O629  1  0.33760698  0.51685972  0.29798316  1
  O  O630  1  0.33718919  0.51893187  0.54765974  1
  O  O631  1  0.33709786  0.51672319  0.79783741  1
  O  O632  1  0.33603422  0.85110718  0.04845635  1
  O  O633  1  0.33737026  0.85224796  0.29736880  1
  O  O634  1  0.33882091  0.84996557  0.54718142  1
  O  O635  1  0.33674422  0.85196446  0.79776701  1
  O  O636  1  0.83959340  0.18676957  0.04858819  1
  O  O637  1  0.83739329  0.18476344  0.29671019  1
  O  O638  1  0.83855177  0.18676773  0.54812487  1
  O  O639  1  0.83680878  0.18519641  0.79698396  1
  O  O640  1  0.83885476  0.51798161  0.04770917  1
  O  O641  1  0.83900296  0.51844114  0.29656256  1
  O  O642  1  0.83593758  0.51713447  0.54795791  1
  O  O643  1  0.83651487  0.51827795  0.79664703  1
  O  O644  1  0.83780660  0.85060373  0.04745703  1
  O  O645  1  0.83876138  0.85133111  0.29771176  1
  O  O646  1  0.83893311  0.85148439  0.54784938  1
  O  O647  1  0.83838504  0.85133439  0.79640050  1
  O  O648  1  0.16309939  0.14765086  0.20190630  1
  O  O649  1  0.16330945  0.14863869  0.45245995  1
  O  O650  1  0.16439853  0.14772066  0.70153944  1
  O  O651  1  0.16170285  0.14932771  0.95334430  1
  O  O652  1  0.16242258  0.48150530  0.20229953  1
  O  O653  1  0.16155584  0.48243415  0.45246734  1
  O  O654  1  0.16347145  0.48155454  0.70224285  1
  O  O655  1  0.15965736  0.48130511  0.95280444  1
  O  O656  1  0.16184932  0.81603740  0.20241572  1
  O  O657  1  0.16374129  0.81415225  0.45248207  1
  O  O658  1  0.16337861  0.81611068  0.70215329  1
  O  O659  1  0.16072675  0.81467792  0.95381914  1
  O  O660  1  0.66481473  0.14903493  0.20248023  1
  O  O661  1  0.66259981  0.14863130  0.45215455  1
  O  O662  1  0.66449148  0.14944472  0.70215214  1
  O  O663  1  0.66294587  0.14853417  0.95304777  1
  O  O664  1  0.66365105  0.48089108  0.20285762  1
  O  O665  1  0.66248330  0.48258133  0.45230453  1
  O  O666  1  0.66212063  0.48139525  0.70256364  1
  O  O667  1  0.66387758  0.48156461  0.95227586  1
  O  O668  1  0.66396488  0.81543889  0.20199081  1
  O  O669  1  0.66198531  0.81411303  0.45231615  1
  O  O670  1  0.66220466  0.81444205  0.70169202  1
  O  O671  1  0.66340336  0.81504405  0.95224139  1
