# generated using pymatgen
data_Na2MnFe(PO4)2
_symmetry_space_group_name_H-M   'P 1'
_cell_length_a   21.08400758
_cell_length_b   18.93617264
_cell_length_c   20.04323722
_cell_angle_alpha   89.99962065
_cell_angle_beta   90.00417870
_cell_angle_gamma   90.00154186
_symmetry_Int_Tables_number   1
_chemical_formula_structural   Na2MnFe(PO4)2
_chemical_formula_sum   'Na96 Mn48 Fe48 P96 O384'
_cell_volume   8002.27060322
_cell_formula_units_Z   48
loop_
 _symmetry_equiv_pos_site_id
 _symmetry_equiv_pos_as_xyz
  1  'x, y, z'
loop_
 _atom_site_type_symbol
 _atom_site_label
 _atom_site_symmetry_multiplicity
 _atom_site_fract_x
 _atom_site_fract_y
 _atom_site_fract_z
 _atom_site_occupancy
  Na  Na0  1  -0.00244360  -0.00088375  -0.00050832  1
  Na  Na1  1  -0.00008438  -0.00002083  0.24982027  1
  Na  Na2  1  -0.00164612  -0.00076558  0.50003972  1
  Na  Na3  1  -0.00196777  -0.00001263  0.75012770  1
  Na  Na4  1  -0.00064032  0.33352589  -0.00034816  1
  Na  Na5  1  -0.00020462  0.33347417  0.25023303  1
  Na  Na6  1  -0.00093287  0.33284749  0.50084687  1
  Na  Na7  1  -0.00168335  0.33281848  0.75006723  1
  Na  Na8  1  0.00101468  0.66712871  -0.00001897  1
  Na  Na9  1  0.00251881  0.66716945  0.24985808  1
  Na  Na10  1  0.00139446  0.66723980  0.49947239  1
  Na  Na11  1  -0.00030370  0.66732665  0.75023801  1
  Na  Na12  1  0.50239052  0.00002824  -0.00036633  1
  Na  Na13  1  0.50062913  -0.00011964  0.25015981  1
  Na  Na14  1  0.49895618  -0.00072153  0.50063564  1
  Na  Na15  1  0.50172837  -0.00018964  0.74960400  1
  Na  Na16  1  0.49839827  0.33360201  -0.00020592  1
  Na  Na17  1  0.49958153  0.33418664  0.24959560  1
  Na  Na18  1  0.50226896  0.33483917  0.50033336  1
  Na  Na19  1  0.49968409  0.33298820  0.74982604  1
  Na  Na20  1  0.50086970  0.66723208  0.00018373  1
  Na  Na21  1  0.50028231  0.66617623  0.25067335  1
  Na  Na22  1  0.49975900  0.66629021  0.50051331  1
  Na  Na23  1  0.49978558  0.66642573  0.74933663  1
  Na  Na24  1  0.24870122  -0.00130444  0.12397195  1
  Na  Na25  1  0.24919931  0.00025771  0.37545069  1
  Na  Na26  1  0.24919363  -0.00068364  0.62634414  1
  Na  Na27  1  0.25208435  0.00031550  0.87407212  1
  Na  Na28  1  0.24918861  0.33312216  0.12355909  1
  Na  Na29  1  0.24948438  0.33371781  0.37534457  1
  Na  Na30  1  0.25082918  0.33306393  0.62495734  1
  Na  Na31  1  0.25322101  0.33448806  0.87623850  1
  Na  Na32  1  0.24719205  0.66602639  0.12552158  1
  Na  Na33  1  0.24713831  0.66623672  0.37400796  1
  Na  Na34  1  0.25071357  0.66732984  0.62597703  1
  Na  Na35  1  0.24857805  0.66623479  0.87462421  1
  Na  Na36  1  0.75003357  -0.00078172  0.12462974  1
  Na  Na37  1  0.75232946  -0.00010440  0.37600854  1
  Na  Na38  1  0.75181728  0.00061608  0.62484401  1
  Na  Na39  1  0.74977431  -0.00040863  0.87342529  1
  Na  Na40  1  0.74924263  0.33335362  0.12461622  1
  Na  Na41  1  0.75046702  0.33426362  0.37592696  1
  Na  Na42  1  0.74909789  0.33352394  0.62376977  1
  Na  Na43  1  0.75000238  0.33368849  0.87586243  1
  Na  Na44  1  0.75170587  0.66749643  0.12487309  1
  Na  Na45  1  0.75020143  0.66592900  0.37509360  1
  Na  Na46  1  0.75003605  0.66716969  0.62570093  1
  Na  Na47  1  0.74907225  0.66659327  0.87456434  1
  Na  Na48  1  -0.00212258  0.16746041  -0.00027253  1
  Na  Na49  1  0.00009491  0.16680416  0.24858395  1
  Na  Na50  1  -0.00087437  0.16702064  0.50127045  1
  Na  Na51  1  -0.00035304  0.16613128  0.74942738  1
  Na  Na52  1  0.00150211  0.49925927  -0.00054068  1
  Na  Na53  1  0.00143547  0.50001641  0.25112508  1
  Na  Na54  1  0.00126288  0.49948276  0.49934149  1
  Na  Na55  1  -0.00105292  0.50065905  0.75123359  1
  Na  Na56  1  -0.00067556  0.83231427  0.00029986  1
  Na  Na57  1  0.00026962  0.83276638  0.25005841  1
  Na  Na58  1  -0.00055060  0.83313442  0.49994781  1
  Na  Na59  1  -0.00346520  0.83408197  0.74937003  1
  Na  Na60  1  0.50060440  0.16672127  0.00022198  1
  Na  Na61  1  0.50031605  0.16619364  0.25048185  1
  Na  Na62  1  0.49855360  0.16730402  0.50105389  1
  Na  Na63  1  0.50234449  0.16532368  0.74873575  1
  Na  Na64  1  0.49901520  0.50016260  -0.00019330  1
  Na  Na65  1  0.50072376  0.49970850  0.25048666  1
  Na  Na66  1  0.50168975  0.50028804  0.49916907  1
  Na  Na67  1  0.50071396  0.49981816  0.75054009  1
  Na  Na68  1  0.50138140  0.83331840  -0.00058269  1
  Na  Na69  1  0.50002481  0.83353574  0.24973987  1
  Na  Na70  1  0.49881100  0.83386917  0.50094912  1
  Na  Na71  1  0.49968979  0.83404966  0.75005142  1
  Na  Na72  1  0.24929144  0.16705730  0.12365458  1
  Na  Na73  1  0.24949313  0.16619718  0.37581450  1
  Na  Na74  1  0.24888670  0.16644570  0.62526184  1
  Na  Na75  1  0.24938410  0.16722171  0.87483117  1
  Na  Na76  1  0.25007727  0.49982982  0.12480201  1
  Na  Na77  1  0.24842223  0.50121090  0.37449057  1
  Na  Na78  1  0.25120434  0.50012599  0.62541856  1
  Na  Na79  1  0.25232341  0.49989751  0.87487798  1
  Na  Na80  1  0.24825356  0.83293467  0.12395859  1
  Na  Na81  1  0.24594890  0.83499551  0.37517796  1
  Na  Na82  1  0.25168745  0.83263444  0.62632560  1
  Na  Na83  1  0.25109682  0.83313079  0.87550948  1
  Na  Na84  1  0.75140210  0.16637348  0.12480523  1
  Na  Na85  1  0.75262895  0.16564559  0.37575460  1
  Na  Na86  1  0.74890089  0.16719704  0.62488254  1
  Na  Na87  1  0.75059557  0.16596956  0.87457099  1
  Na  Na88  1  0.74871228  0.50026940  0.12517887  1
  Na  Na89  1  0.74793218  0.50010511  0.37522974  1
  Na  Na90  1  0.74753291  0.50055671  0.62473957  1
  Na  Na91  1  0.74886823  0.49960453  0.87562217  1
  Na  Na92  1  0.75055320  0.83346055  0.12446099  1
  Na  Na93  1  0.75417712  0.83176909  0.37568100  1
  Na  Na94  1  0.75281570  0.83281571  0.62512208  1
  Na  Na95  1  0.74999766  0.83375155  0.87357683  1
  Mn  Mn96  1  0.14197736  0.25002304  0.49773005  1
  Mn  Mn97  1  0.39077979  0.91655253  0.37705423  1
  Mn  Mn98  1  0.39252093  0.91619960  0.12727363  1
  Mn  Mn99  1  0.10770541  0.08348611  0.12185780  1
  Mn  Mn100  1  0.35710210  0.08353405  0.25212967  1
  Mn  Mn101  1  0.39162735  0.24991856  0.37680675  1
  Mn  Mn102  1  0.10814347  0.41661104  0.62370366  1
  Mn  Mn103  1  0.35633301  0.75007930  0.25220073  1
  Mn  Mn104  1  0.64278820  0.25017537  0.24810318  1
  Mn  Mn105  1  0.14271490  0.58260227  0.74761649  1
  Mn  Mn106  1  0.10636154  0.08267691  0.87271784  1
  Mn  Mn107  1  0.60799455  0.08347275  0.37353169  1
  Mn  Mn108  1  0.85865989  0.08357244  0.25276941  1
  Mn  Mn109  1  0.35887407  0.08329486  0.00175751  1
  Mn  Mn110  1  0.60879718  0.75038015  0.37287602  1
  Mn  Mn111  1  0.39281208  0.58375527  0.87763412  1
  Mn  Mn112  1  0.64205626  0.24913327  0.99740631  1
  Mn  Mn113  1  0.85777019  0.41708018  0.00292763  1
  Mn  Mn114  1  0.14231871  0.25038465  0.99660877  1
  Mn  Mn115  1  0.89203071  0.91601944  0.12707896  1
  Mn  Mn116  1  0.10792047  0.41632306  0.37249373  1
  Mn  Mn117  1  0.85713663  0.41735432  0.50245150  1
  Mn  Mn118  1  0.35824810  0.41680612  0.50228933  1
  Mn  Mn119  1  0.39186120  0.25023696  0.12801704  1
  Mn  Mn120  1  0.89160543  0.58319918  0.62714522  1
  Mn  Mn121  1  0.89224624  0.25113937  0.12739175  1
  Mn  Mn122  1  0.39216703  0.58360235  0.37689602  1
  Mn  Mn123  1  0.14177200  0.91625970  0.99639916  1
  Mn  Mn124  1  0.60864941  0.74958722  0.12319548  1
  Mn  Mn125  1  0.60714463  0.41648865  0.87252574  1
  Mn  Mn126  1  0.14214924  0.91708108  0.74821875  1
  Mn  Mn127  1  0.89260448  0.58307594  0.37734018  1
  Mn  Mn128  1  0.64243690  0.24986559  0.49702564  1
  Mn  Mn129  1  0.60876665  0.08369801  0.12287777  1
  Mn  Mn130  1  0.89176138  0.24995758  0.62816554  1
  Mn  Mn131  1  0.35825122  0.08355753  0.75239543  1
  Mn  Mn132  1  0.35676755  0.75063322  0.50148530  1
  Mn  Mn133  1  0.10801450  0.41638273  0.87205785  1
  Mn  Mn134  1  0.60771631  0.75007936  0.62270189  1
  Mn  Mn135  1  0.64340481  0.91588145  0.24879932  1
  Mn  Mn136  1  0.64332450  0.91590575  0.49793940  1
  Mn  Mn137  1  0.89169271  0.58336217  0.87734752  1
  Mn  Mn138  1  0.10746540  0.08325321  0.37317595  1
  Mn  Mn139  1  0.35775808  0.74938847  0.00198206  1
  Mn  Mn140  1  0.89307650  0.58278170  0.12723785  1
  Mn  Mn141  1  0.10757150  0.75071345  0.62330756  1
  Mn  Mn142  1  0.39272018  0.25010618  0.62777784  1
  Mn  Mn143  1  0.64187023  0.58437922  0.99819637  1
  Fe  Fe144  1  0.10661163  0.08292809  0.62372840  1
  Fe  Fe145  1  0.35799388  0.74981390  0.75248984  1
  Fe  Fe146  1  0.14271522  0.58380556  0.49923988  1
  Fe  Fe147  1  0.14251617  0.58275653  0.24730832  1
  Fe  Fe148  1  0.85853290  0.74878233  0.25176083  1
  Fe  Fe149  1  0.85662987  0.74931549  0.75218257  1
  Fe  Fe150  1  0.60842105  0.08312782  0.87294204  1
  Fe  Fe151  1  0.89279836  0.24982787  0.37635547  1
  Fe  Fe152  1  0.64255829  0.58322078  0.74807609  1
  Fe  Fe153  1  0.10684454  0.74955929  0.12261924  1
  Fe  Fe154  1  0.64312818  0.58355977  0.24815414  1
  Fe  Fe155  1  0.89360941  0.91707990  0.37691846  1
  Fe  Fe156  1  0.85648025  0.08280389  0.00094239  1
  Fe  Fe157  1  0.39288920  0.58381823  0.62638614  1
  Fe  Fe158  1  0.39473901  0.91715150  0.87651990  1
  Fe  Fe159  1  0.35676652  0.08267188  0.50219871  1
  Fe  Fe160  1  0.85816726  0.08314849  0.50244583  1
  Fe  Fe161  1  0.85652255  0.08407253  0.75172668  1
  Fe  Fe162  1  0.60738264  0.41650785  0.62408055  1
  Fe  Fe163  1  0.14132887  0.91720495  0.24783149  1
  Fe  Fe164  1  0.89283328  0.91666618  0.62667020  1
  Fe  Fe165  1  0.85720802  0.41733244  0.25169718  1
  Fe  Fe166  1  0.10675331  0.75035327  0.37341170  1
  Fe  Fe167  1  0.14199068  0.91643928  0.49908902  1
  Fe  Fe168  1  0.14190520  0.25029630  0.24832832  1
  Fe  Fe169  1  0.89142302  0.91682144  0.87667072  1
  Fe  Fe170  1  0.85697413  0.75010434  0.00124382  1
  Fe  Fe171  1  0.64224364  0.58424915  0.49856286  1
  Fe  Fe172  1  0.60647879  0.41675971  0.12396927  1
  Fe  Fe173  1  0.39324997  0.24853936  0.87562163  1
  Fe  Fe174  1  0.10787888  0.41703801  0.12344097  1
  Fe  Fe175  1  0.85625451  0.41675626  0.75118366  1
  Fe  Fe176  1  0.35844256  0.41661081  0.75137722  1
  Fe  Fe177  1  0.64321081  0.91643700  0.99789527  1
  Fe  Fe178  1  0.35643954  0.41670789  0.25137442  1
  Fe  Fe179  1  0.60767841  0.08303256  0.62261688  1
  Fe  Fe180  1  0.89161873  0.24976938  0.87590197  1
  Fe  Fe181  1  0.35729517  0.41746067  0.00258744  1
  Fe  Fe182  1  0.64363408  0.91676168  0.74746841  1
  Fe  Fe183  1  0.14312357  0.58300216  0.99827812  1
  Fe  Fe184  1  0.60810729  0.75061990  0.87281870  1
  Fe  Fe185  1  0.60747310  0.41651739  0.37219434  1
  Fe  Fe186  1  0.39235951  0.91653634  0.62694760  1
  Fe  Fe187  1  0.39232320  0.58381436  0.12705519  1
  Fe  Fe188  1  0.64258118  0.25013516  0.74890604  1
  Fe  Fe189  1  0.14269341  0.25031910  0.74940800  1
  Fe  Fe190  1  0.10621547  0.75067989  0.87303852  1
  Fe  Fe191  1  0.85832767  0.74932941  0.50171654  1
  P  P192  1  0.05473685  0.25139972  0.11046932  1
  P  P193  1  0.05243069  0.24960090  0.35950822  1
  P  P194  1  0.05459520  0.24933674  0.61186006  1
  P  P195  1  0.05191897  0.24977079  0.85912785  1
  P  P196  1  0.05551111  0.58279758  0.11035091  1
  P  P197  1  0.05562039  0.58419559  0.36077119  1
  P  P198  1  0.05356674  0.58338899  0.60959708  1
  P  P199  1  0.05451198  0.58441387  0.86115895  1
  P  P200  1  0.05416664  0.91583606  0.11046305  1
  P  P201  1  0.05368957  0.91616124  0.36100033  1
  P  P202  1  0.05243008  0.91744037  0.61003682  1
  P  P203  1  0.05087087  0.91561917  0.85973755  1
  P  P204  1  0.55336154  0.25136424  0.11020038  1
  P  P205  1  0.55309080  0.25052230  0.35989902  1
  P  P206  1  0.55544641  0.24996689  0.61144915  1
  P  P207  1  0.55290980  0.24921025  0.85925714  1
  P  P208  1  0.55325544  0.58243121  0.11139217  1
  P  P209  1  0.55566799  0.58310527  0.36047453  1
  P  P210  1  0.55414433  0.58271843  0.61087799  1
  P  P211  1  0.55434748  0.58446301  0.85943591  1
  P  P212  1  0.55495809  0.91631608  0.10923745  1
  P  P213  1  0.55297273  0.91664824  0.36023228  1
  P  P214  1  0.55393108  0.91709435  0.61121775  1
  P  P215  1  0.55559117  0.91659610  0.86021340  1
  P  P216  1  0.44734148  0.08305317  0.14034873  1
  P  P217  1  0.44562851  0.08317247  0.39125797  1
  P  P218  1  0.44667476  0.08233245  0.63894246  1
  P  P219  1  0.44897874  0.08299308  0.88927457  1
  P  P220  1  0.44524180  0.41812108  0.13975311  1
  P  P221  1  0.44663373  0.41693861  0.38877426  1
  P  P222  1  0.44767113  0.41780032  0.64024651  1
  P  P223  1  0.44451116  0.41558161  0.88933211  1
  P  P224  1  0.44675977  0.74906475  0.14026153  1
  P  P225  1  0.44684638  0.74994485  0.39024410  1
  P  P226  1  0.44560308  0.75010062  0.64029622  1
  P  P227  1  0.44754607  0.75100196  0.88877319  1
  P  P228  1  0.94527470  0.08317515  0.13838544  1
  P  P229  1  0.94628939  0.08378160  0.39066871  1
  P  P230  1  0.94548836  0.08249391  0.63978365  1
  P  P231  1  0.94357354  0.08355933  0.88886463  1
  P  P232  1  0.94788382  0.41734704  0.14101498  1
  P  P233  1  0.94557229  0.41596087  0.38909294  1
  P  P234  1  0.94597880  0.41715532  0.64114925  1
  P  P235  1  0.94484949  0.41588801  0.88869478  1
  P  P236  1  0.94624562  0.74934810  0.13934775  1
  P  P237  1  0.94624377  0.75016459  0.38923467  1
  P  P238  1  0.94455132  0.75026790  0.63953764  1
  P  P239  1  0.94491771  0.75055952  0.88938821  1
  P  P240  1  0.19583096  0.08364261  0.23474405  1
  P  P241  1  0.19600431  0.08198139  0.48697978  1
  P  P242  1  0.19564189  0.08411181  0.73495970  1
  P  P243  1  0.19685662  0.08302856  0.98382826  1
  P  P244  1  0.19677623  0.41647641  0.23430711  1
  P  P245  1  0.19678327  0.41771585  0.48527275  1
  P  P246  1  0.19875125  0.41565649  0.73544579  1
  P  P247  1  0.19676277  0.41790121  0.98580587  1
  P  P248  1  0.19350732  0.75039367  0.23559559  1
  P  P249  1  0.19524983  0.75036446  0.48505449  1
  P  P250  1  0.19677164  0.75046478  0.73661895  1
  P  P251  1  0.19447875  0.74874994  0.98504323  1
  P  P252  1  0.69779750  0.08311769  0.23534860  1
  P  P253  1  0.69759101  0.08268537  0.48626775  1
  P  P254  1  0.69580571  0.08335123  0.73546668  1
  P  P255  1  0.69731598  0.08224966  0.98400828  1
  P  P256  1  0.69604993  0.41737288  0.23553969  1
  P  P257  1  0.69402414  0.41778892  0.48566662  1
  P  P258  1  0.69670125  0.41628604  0.73491252  1
  P  P259  1  0.69497083  0.41678977  0.98636017  1
  P  P260  1  0.69898301  0.74910435  0.23531461  1
  P  P261  1  0.69857335  0.74970160  0.48542856  1
  P  P262  1  0.69644260  0.75033878  0.73608636  1
  P  P263  1  0.69729847  0.75089628  0.98409149  1
  P  P264  1  0.30533719  0.25041616  0.01336175  1
  P  P265  1  0.30118532  0.25103857  0.26476939  1
  P  P266  1  0.30350053  0.24906255  0.51521454  1
  P  P267  1  0.30305986  0.25033596  0.76554387  1
  P  P268  1  0.30313327  0.58339937  0.01566172  1
  P  P269  1  0.30283226  0.58273481  0.26344826  1
  P  P270  1  0.30271207  0.58398162  0.51531530  1
  P  P271  1  0.30549560  0.58352142  0.76384934  1
  P  P272  1  0.30487450  0.91632671  0.01350358  1
  P  P273  1  0.30068444  0.91636699  0.26467285  1
  P  P274  1  0.30208803  0.91720381  0.51602788  1
  P  P275  1  0.30580736  0.91597496  0.76493782  1
  P  P276  1  0.80437680  0.24906264  0.01365498  1
  P  P277  1  0.80416604  0.25166223  0.26581269  1
  P  P278  1  0.80493548  0.24949351  0.51398652  1
  P  P279  1  0.80203938  0.25037773  0.76503167  1
  P  P280  1  0.80324785  0.58434511  0.01514068  1
  P  P281  1  0.80289518  0.58272733  0.26479413  1
  P  P282  1  0.80191631  0.58376491  0.51504628  1
  P  P283  1  0.80172621  0.58282484  0.76482333  1
  P  P284  1  0.80354756  0.91641920  0.01297063  1
  P  P285  1  0.80507645  0.91539225  0.26587412  1
  P  P286  1  0.80637445  0.91636607  0.51446504  1
  P  P287  1  0.80446015  0.91693349  0.76343327  1
  O  O288  1  0.05888529  0.25068061  0.18723831  1
  O  O289  1  0.05618281  0.24982568  0.43630371  1
  O  O290  1  0.05904173  0.25022865  0.68852899  1
  O  O291  1  0.05597366  0.25020146  0.93588263  1
  O  O292  1  0.05906075  0.58249289  0.18722080  1
  O  O293  1  0.05953977  0.58329542  0.43753178  1
  O  O294  1  0.05672598  0.58335597  0.68644480  1
  O  O295  1  0.05865662  0.58323847  0.93787598  1
  O  O296  1  0.05785840  0.91680609  0.18725949  1
  O  O297  1  0.05801486  0.91676631  0.43770607  1
  O  O298  1  0.05608529  0.91680098  0.68671221  1
  O  O299  1  0.05489996  0.91597948  0.93642119  1
  O  O300  1  0.55666709  0.25068546  0.18694305  1
  O  O301  1  0.55620382  0.24995969  0.43672575  1
  O  O302  1  0.55949849  0.24982609  0.68820627  1
  O  O303  1  0.55617282  0.25003277  0.93599665  1
  O  O304  1  0.55839280  0.58332277  0.18804400  1
  O  O305  1  0.55954223  0.58434662  0.43731068  1
  O  O306  1  0.55914620  0.58348321  0.68758948  1
  O  O307  1  0.55694695  0.58397387  0.93628315  1
  O  O308  1  0.55827243  0.91617873  0.18601583  1
  O  O309  1  0.55664018  0.91618910  0.43701788  1
  O  O310  1  0.55947279  0.91656536  0.68784908  1
  O  O311  1  0.55991608  0.91641068  0.93693301  1
  O  O312  1  0.44431367  0.08305968  0.06354558  1
  O  O313  1  0.44238985  0.08308684  0.31441889  1
  O  O314  1  0.44120125  0.08273541  0.56237106  1
  O  O315  1  0.44517210  0.08303230  0.81259880  1
  O  O316  1  0.44079880  0.41764859  0.06296606  1
  O  O317  1  0.44087003  0.41689483  0.31216679  1
  O  O318  1  0.44439517  0.41740038  0.56347191  1
  O  O319  1  0.44093005  0.41646351  0.81248126  1
  O  O320  1  0.44371681  0.74953270  0.06345705  1
  O  O321  1  0.44301048  0.74991486  0.31350441  1
  O  O322  1  0.44243058  0.75005681  0.56352883  1
  O  O323  1  0.44269995  0.75013447  0.81214008  1
  O  O324  1  0.94060104  0.08286099  0.06165396  1
  O  O325  1  0.94405549  0.08373540  0.31379696  1
  O  O326  1  0.94135892  0.08351454  0.56305941  1
  O  O327  1  0.93980821  0.08371228  0.81200885  1
  O  O328  1  0.94372742  0.41746829  0.06424509  1
  O  O329  1  0.94149189  0.41725294  0.31238763  1
  O  O330  1  0.94282029  0.41724541  0.56433134  1
  O  O331  1  0.93985977  0.41680464  0.81200546  1
  O  O332  1  0.94103593  0.74943157  0.06269900  1
  O  O333  1  0.94199462  0.74884078  0.31248173  1
  O  O334  1  0.94106987  0.74894651  0.56270307  1
  O  O335  1  0.93993542  0.74960543  0.81261720  1
  O  O336  1  0.19329692  0.08279524  0.06058635  1
  O  O337  1  0.19314059  0.08357355  0.31160015  1
  O  O338  1  0.19115930  0.08248162  0.56359369  1
  O  O339  1  0.19228991  0.08309562  0.81171594  1
  O  O340  1  0.19192399  0.41699624  0.06239863  1
  O  O341  1  0.19353292  0.41661456  0.31103607  1
  O  O342  1  0.19395166  0.41689102  0.56203311  1
  O  O343  1  0.19496663  0.41640269  0.81215603  1
  O  O344  1  0.19036339  0.74989341  0.06182473  1
  O  O345  1  0.18997448  0.75064775  0.31243129  1
  O  O346  1  0.19336916  0.75034336  0.56188448  1
  O  O347  1  0.19127581  0.75102824  0.81320594  1
  O  O348  1  0.69418532  0.08316605  0.06076493  1
  O  O349  1  0.69462437  0.08325391  0.31212088  1
  O  O350  1  0.69220655  0.08283212  0.56294812  1
  O  O351  1  0.69136473  0.08321864  0.81220672  1
  O  O352  1  0.69049640  0.41677949  0.06308786  1
  O  O353  1  0.69172473  0.41636323  0.31229694  1
  O  O354  1  0.69001553  0.41686759  0.56245916  1
  O  O355  1  0.69337518  0.41616474  0.81163634  1
  O  O356  1  0.69406565  0.75017082  0.06085178  1
  O  O357  1  0.69528726  0.74968689  0.31196368  1
  O  O358  1  0.69436164  0.75065669  0.56211759  1
  O  O359  1  0.69193432  0.75056931  0.81271600  1
  O  O360  1  0.30492554  0.25043876  0.18803232  1
  O  O361  1  0.30626852  0.24970998  0.43842687  1
  O  O362  1  0.30665577  0.24930288  0.68879665  1
  O  O363  1  0.31000761  0.24913945  0.93667231  1
  O  O364  1  0.30771424  0.58354299  0.18685664  1
  O  O365  1  0.30613570  0.58397720  0.43853625  1
  O  O366  1  0.30947483  0.58370404  0.68710530  1
  O  O367  1  0.30709986  0.58435831  0.93890060  1
  O  O368  1  0.30510636  0.91579971  0.18801097  1
  O  O369  1  0.30518804  0.91691936  0.43925813  1
  O  O370  1  0.30969210  0.91672198  0.68812915  1
  O  O371  1  0.31042267  0.91668350  0.93680773  1
  O  O372  1  0.80670224  0.25098000  0.18893709  1
  O  O373  1  0.80918293  0.24986960  0.43730954  1
  O  O374  1  0.80530612  0.25035610  0.68825167  1
  O  O375  1  0.80804275  0.25010334  0.93691933  1
  O  O376  1  0.80668782  0.58277001  0.18811690  1
  O  O377  1  0.80610315  0.58287323  0.43842833  1
  O  O378  1  0.80521029  0.58302763  0.68814474  1
  O  O379  1  0.80601295  0.58330579  0.93841820  1
  O  O380  1  0.80714620  0.91622312  0.18892201  1
  O  O381  1  0.81037935  0.91654830  0.43769542  1
  O  O382  1  0.80888665  0.91696788  0.68674459  1
  O  O383  1  0.80746892  0.91635920  0.93625680  1
  O  O384  1  0.23514388  0.25025133  0.03698988  1
  O  O385  1  0.23127297  0.25076162  0.28979071  1
  O  O386  1  0.23382479  0.24951255  0.54037369  1
  O  O387  1  0.23306022  0.25040707  0.79040489  1
  O  O388  1  0.23300173  0.58328218  0.03977990  1
  O  O389  1  0.23233904  0.58325781  0.28679537  1
  O  O390  1  0.23270100  0.58391252  0.54006495  1
  O  O391  1  0.23553104  0.58330894  0.78835017  1
  O  O392  1  0.23453012  0.91565923  0.03648491  1
  O  O393  1  0.23052626  0.91711565  0.28884076  1
  O  O394  1  0.23211734  0.91590171  0.54098869  1
  O  O395  1  0.23561138  0.91689098  0.78888051  1
  O  O396  1  0.73451396  0.24954460  0.03837959  1
  O  O397  1  0.73467458  0.25041237  0.29148424  1
  O  O398  1  0.73486443  0.25027249  0.53800245  1
  O  O399  1  0.73197896  0.24987723  0.78982007  1
  O  O400  1  0.73366962  0.58421060  0.04052584  1
  O  O401  1  0.73292066  0.58287392  0.28953546  1
  O  O402  1  0.73184591  0.58399305  0.53952127  1
  O  O403  1  0.73166063  0.58291643  0.78957392  1
  O  O404  1  0.73349993  0.91636421  0.03760336  1
  O  O405  1  0.73564825  0.91577353  0.29178800  1
  O  O406  1  0.73637648  0.91656580  0.53894064  1
  O  O407  1  0.73393570  0.91686256  0.78688752  1
  O  O408  1  0.26529833  0.08302141  0.20880894  1
  O  O409  1  0.26620161  0.08270440  0.46284925  1
  O  O410  1  0.26557600  0.08301153  0.71048938  1
  O  O411  1  0.26663752  0.08350915  0.95911932  1
  O  O412  1  0.26674541  0.41661880  0.20934399  1
  O  O413  1  0.26636716  0.41748104  0.45973199  1
  O  O414  1  0.26876497  0.41619546  0.71071225  1
  O  O415  1  0.26719571  0.41778185  0.96233566  1
  O  O416  1  0.26346496  0.74960114  0.21089330  1
  O  O417  1  0.26463684  0.75067872  0.45879402  1
  O  O418  1  0.26720047  0.75010054  0.71336015  1
  O  O419  1  0.26462344  0.74954766  0.96112972  1
  O  O420  1  0.76745945  0.08308174  0.21014502  1
  O  O421  1  0.76805693  0.08249173  0.46317607  1
  O  O422  1  0.76640129  0.08353659  0.71206643  1
  O  O423  1  0.76721427  0.08249893  0.95908674  1
  O  O424  1  0.76630926  0.41715537  0.21142562  1
  O  O425  1  0.76418668  0.41706959  0.46184169  1
  O  O426  1  0.76671284  0.41667199  0.70988216  1
  O  O427  1  0.76506486  0.41682232  0.96250236  1
  O  O428  1  0.76898299  0.74961243  0.21052304  1
  O  O429  1  0.76870703  0.74923011  0.46120226  1
  O  O430  1  0.76688296  0.75022763  0.71241497  1
  O  O431  1  0.76726463  0.75026975  0.95926840  1
  O  O432  1  0.01527062  0.08342165  0.16239787  1
  O  O433  1  0.01582799  0.08355090  0.41637319  1
  O  O434  1  0.01574091  0.08288040  0.66376995  1
  O  O435  1  0.01353677  0.08331395  0.91349164  1
  O  O436  1  0.01801294  0.41713665  0.16506303  1
  O  O437  1  0.01555788  0.41616368  0.41350554  1
  O  O438  1  0.01570652  0.41695464  0.66612861  1
  O  O439  1  0.01506367  0.41620248  0.91237964  1
  O  O440  1  0.01670102  0.74942207  0.16251617  1
  O  O441  1  0.01657427  0.74996564  0.41309931  1
  O  O442  1  0.01453570  0.75048709  0.66398156  1
  O  O443  1  0.01529551  0.75005776  0.91289610  1
  O  O444  1  0.51703050  0.08319831  0.16544284  1
  O  O445  1  0.51538630  0.08328205  0.41627196  1
  O  O446  1  0.51719498  0.08261015  0.66217626  1
  O  O447  1  0.51907547  0.08312255  0.91389579  1
  O  O448  1  0.51555106  0.41728503  0.16356902  1
  O  O449  1  0.51708965  0.41737822  0.41193302  1
  O  O450  1  0.51772595  0.41664460  0.66498903  1
  O  O451  1  0.51456941  0.41695956  0.91353869  1
  O  O452  1  0.51646114  0.74953045  0.16541572  1
  O  O453  1  0.51653032  0.74998991  0.41533236  1
  O  O454  1  0.51553410  0.75032382  0.66499257  1
  O  O455  1  0.51787916  0.75072572  0.91254831  1
  O  O456  1  0.48368611  0.25069509  0.08513369  1
  O  O457  1  0.48349467  0.25017212  0.33453582  1
  O  O458  1  0.48542017  0.25057765  0.58712227  1
  O  O459  1  0.48294551  0.24911135  0.83426430  1
  O  O460  1  0.48307472  0.58306921  0.08724911  1
  O  O461  1  0.48555497  0.58312107  0.33644591  1
  O  O462  1  0.48370212  0.58362435  0.58730211  1
  O  O463  1  0.48455756  0.58355016  0.83460706  1
  O  O464  1  0.48518168  0.91642682  0.08435940  1
  O  O465  1  0.48326286  0.91672405  0.33521202  1
  O  O466  1  0.48334552  0.91659150  0.58828433  1
  O  O467  1  0.48519913  0.91678589  0.83634552  1
  O  O468  1  0.98469737  0.25091950  0.08632398  1
  O  O469  1  0.98242823  0.24970453  0.33499649  1
  O  O470  1  0.98446252  0.24981283  0.58793853  1
  O  O471  1  0.98172076  0.24946900  0.83507585  1
  O  O472  1  0.98560115  0.58305877  0.08566178  1
  O  O473  1  0.98553137  0.58371916  0.33658664  1
  O  O474  1  0.98390378  0.58338127  0.58444075  1
  O  O475  1  0.98447441  0.58433812  0.83690452  1
  O  O476  1  0.98420254  0.91580763  0.08598330  1
  O  O477  1  0.98334729  0.91672769  0.33698558  1
  O  O478  1  0.98230216  0.91647319  0.58569617  1
  O  O479  1  0.98075437  0.91653258  0.83547155  1
  O  O480  1  0.08792039  0.31690354  0.07773711  1
  O  O481  1  0.08661717  0.31448213  0.32673991  1
  O  O482  1  0.08811382  0.31420130  0.57827343  1
  O  O483  1  0.08588400  0.31470700  0.82614690  1
  O  O484  1  0.08938029  0.64794531  0.07776388  1
  O  O485  1  0.08898286  0.64943462  0.32800899  1
  O  O486  1  0.08786163  0.64850130  0.57741666  1
  O  O487  1  0.08798671  0.64971575  0.82849636  1
  O  O488  1  0.08773637  0.98063671  0.07693501  1
  O  O489  1  0.08726783  0.98103241  0.32745860  1
  O  O490  1  0.08581145  0.98272297  0.57728519  1
  O  O491  1  0.08495921  0.98054435  0.82703371  1
  O  O492  1  0.58692233  0.31674127  0.07789582  1
  O  O493  1  0.58707967  0.31575251  0.32771949  1
  O  O494  1  0.58914903  0.31508526  0.57877831  1
  O  O495  1  0.58681353  0.31430663  0.82645009  1
  O  O496  1  0.58703397  0.64732755  0.07796367  1
  O  O497  1  0.58950077  0.64789485  0.32697947  1
  O  O498  1  0.58786405  0.64755005  0.57720648  1
  O  O499  1  0.58817843  0.64963034  0.82705359  1
  O  O500  1  0.58938442  0.98122030  0.07669289  1
  O  O501  1  0.58712749  0.98176239  0.32805702  1
  O  O502  1  0.58700316  0.98213139  0.57776405  1
  O  O503  1  0.58902892  0.98167117  0.82697734  1
  O  O504  1  0.41326966  0.01796322  0.17268667  1
  O  O505  1  0.41124943  0.01817454  0.42373088  1
  O  O506  1  0.41363308  0.01736669  0.67250953  1
  O  O507  1  0.41537066  0.01784438  0.92210258  1
  O  O508  1  0.41138623  0.35327542  0.17312568  1
  O  O509  1  0.41382689  0.35180746  0.42249069  1
  O  O510  1  0.41310490  0.35305714  0.67296572  1
  O  O511  1  0.41165253  0.34995997  0.92173432  1
  O  O512  1  0.41276648  0.68385681  0.17252859  1
  O  O513  1  0.41285417  0.68481882  0.42271520  1
  O  O514  1  0.41182862  0.68485965  0.67289245  1
  O  O515  1  0.41415114  0.68603641  0.92242247  1
  O  O516  1  0.91210153  0.01805831  0.17172923  1
  O  O517  1  0.91188350  0.01864737  0.42272587  1
  O  O518  1  0.91201972  0.01727629  0.67245614  1
  O  O519  1  0.90979991  0.01833944  0.92157691  1
  O  O520  1  0.91356482  0.35255630  0.17363356  1
  O  O521  1  0.91213816  0.35063175  0.42163330  1
  O  O522  1  0.91144346  0.35224876  0.67350680  1
  O  O523  1  0.91170857  0.35050378  0.92152893  1
  O  O524  1  0.91323540  0.68431651  0.17314148  1
  O  O525  1  0.91267577  0.68541959  0.42309212  1
  O  O526  1  0.91080186  0.68547567  0.67313435  1
  O  O527  1  0.91138947  0.68581483  0.92317061  1
  O  O528  1  0.16106271  0.01871385  0.20267971  1
  O  O529  1  0.16295802  0.01657739  0.45391644  1
  O  O530  1  0.16089563  0.01945617  0.70215433  1
  O  O531  1  0.16304289  0.01788606  0.95114050  1
  O  O532  1  0.16269833  0.35149290  0.20170516  1
  O  O533  1  0.16246865  0.35269711  0.45270535  1
  O  O534  1  0.16495579  0.35048013  0.70311167  1
  O  O535  1  0.16353938  0.35299533  0.95193840  1
  O  O536  1  0.15938552  0.68532858  0.20296412  1
  O  O537  1  0.16091600  0.68524027  0.45294964  1
  O  O538  1  0.16336055  0.68551942  0.70325068  1
  O  O539  1  0.16139055  0.68316941  0.95260360  1
  O  O540  1  0.66381137  0.01797996  0.20305143  1
  O  O541  1  0.66443299  0.01771180  0.45286980  1
  O  O542  1  0.66279835  0.01818213  0.70191133  1
  O  O543  1  0.66340743  0.01715315  0.95157768  1
  O  O544  1  0.66226336  0.35260788  0.20203506  1
  O  O545  1  0.66015408  0.35310313  0.45203387  1
  O  O546  1  0.66296540  0.35112694  0.70222338  1
  O  O547  1  0.66157928  0.35180596  0.95297290  1
  O  O548  1  0.66526267  0.68387761  0.20264233  1
  O  O549  1  0.66437233  0.68481964  0.45308685  1
  O  O550  1  0.66318432  0.68515139  0.70303139  1
  O  O551  1  0.66274003  0.68615050  0.95142267  1
  O  O552  1  0.33834052  0.31599943  0.04611806  1
  O  O553  1  0.33513813  0.31625652  0.29710158  1
  O  O554  1  0.33786284  0.31413779  0.54750486  1
  O  O555  1  0.33759324  0.31521698  0.79752490  1
  O  O556  1  0.33681273  0.64831181  0.04895868  1
  O  O557  1  0.33609746  0.64752377  0.29735868  1
  O  O558  1  0.33667795  0.64901118  0.54793446  1
  O  O559  1  0.33885216  0.64866474  0.79722846  1
  O  O560  1  0.33763224  0.98154300  0.04710787  1
  O  O561  1  0.33471911  0.98130093  0.29734763  1
  O  O562  1  0.33581778  0.98236749  0.54876620  1
  O  O563  1  0.33999165  0.98080332  0.79800322  1
  O  O564  1  0.83831501  0.31384075  0.04708649  1
  O  O565  1  0.83787492  0.31721795  0.29768355  1
  O  O566  1  0.83862754  0.31443549  0.54719731  1
  O  O567  1  0.83584922  0.31542348  0.79771076  1
  O  O568  1  0.83738023  0.64973818  0.04680518  1
  O  O569  1  0.83696103  0.64773824  0.29748057  1
  O  O570  1  0.83599440  0.64869845  0.54757002  1
  O  O571  1  0.83566547  0.64788318  0.79750999  1
  O  O572  1  0.83711708  0.98147213  0.04599672  1
  O  O573  1  0.83986064  0.98020144  0.29820998  1
  O  O574  1  0.84022301  0.98129461  0.54766132  1
  O  O575  1  0.83752278  0.98206533  0.79684283  1
  O  O576  1  0.41314588  0.14814692  0.17269051  1
  O  O577  1  0.41129585  0.14819548  0.42355708  1
  O  O578  1  0.41374111  0.14750166  0.67266123  1
  O  O579  1  0.41504890  0.14804667  0.92186076  1
  O  O580  1  0.41208850  0.48327229  0.17300056  1
  O  O581  1  0.41345492  0.48196958  0.42235368  1
  O  O582  1  0.41416983  0.48304070  0.67278806  1
  O  O583  1  0.41016418  0.48021148  0.92268011  1
  O  O584  1  0.41243029  0.81404354  0.17273013  1
  O  O585  1  0.41260402  0.81497333  0.42263869  1
  O  O586  1  0.41142860  0.81503844  0.67290354  1
  O  O587  1  0.41430741  0.81614801  0.92179424  1
  O  O588  1  0.91176049  0.14823348  0.17143000  1
  O  O589  1  0.91197662  0.14885769  0.42287046  1
  O  O590  1  0.91159011  0.14718111  0.67342142  1
  O  O591  1  0.90995517  0.14868052  0.92167783  1
  O  O592  1  0.91415129  0.48233216  0.17402983  1
  O  O593  1  0.91202958  0.48094716  0.42258989  1
  O  O594  1  0.91177698  0.48212494  0.67367502  1
  O  O595  1  0.91161656  0.48090086  0.92242207  1
  O  O596  1  0.91286352  0.81422148  0.17288645  1
  O  O597  1  0.91297766  0.81540371  0.42200559  1
  O  O598  1  0.91061176  0.81547681  0.67178585  1
  O  O599  1  0.91176150  0.81588317  0.92235088  1
  O  O600  1  0.08839401  0.18657708  0.07702069  1
  O  O601  1  0.08630545  0.18456986  0.32685662  1
  O  O602  1  0.08754809  0.18380138  0.57895131  1
  O  O603  1  0.08600210  0.18484315  0.82655830  1
  O  O604  1  0.08920025  0.51769348  0.07738890  1
  O  O605  1  0.08951858  0.51938949  0.32729060  1
  O  O606  1  0.08800197  0.51847124  0.57726662  1
  O  O607  1  0.08806584  0.51945678  0.82766520  1
  O  O608  1  0.08765467  0.85043990  0.07800616  1
  O  O609  1  0.08680469  0.85095776  0.32789984  1
  O  O610  1  0.08670457  0.85272699  0.57702467  1
  O  O611  1  0.08431684  0.85049049  0.82683279  1
  O  O612  1  0.58782007  0.18643766  0.07761370  1
  O  O613  1  0.58744866  0.18547506  0.32771420  1
  O  O614  1  0.58861859  0.18462374  0.57831002  1
  O  O615  1  0.58739185  0.18436812  0.82696897  1
  O  O616  1  0.58632791  0.51714448  0.07832498  1
  O  O617  1  0.58932205  0.51790499  0.32779467  1
  O  O618  1  0.58709411  0.51743490  0.57789667  1
  O  O619  1  0.58884624  0.51955085  0.82698930  1
  O  O620  1  0.58907972  0.85126247  0.07659266  1
  O  O621  1  0.58708571  0.85161976  0.32758063  1
  O  O622  1  0.58704180  0.85202913  0.57755571  1
  O  O623  1  0.58885521  0.85153966  0.82670359  1
  O  O624  1  0.33874449  0.18564013  0.04713443  1
  O  O625  1  0.33518535  0.18599728  0.29740270  1
  O  O626  1  0.33745280  0.18393440  0.54758772  1
  O  O627  1  0.33698340  0.18519544  0.79847765  1
  O  O628  1  0.33722096  0.51835236  0.04805928  1
  O  O629  1  0.33571800  0.51737181  0.29664913  1
  O  O630  1  0.33709038  0.51912524  0.54794100  1
  O  O631  1  0.33908735  0.51830221  0.79651883  1
  O  O632  1  0.33811435  0.85125152  0.04689577  1
  O  O633  1  0.33379761  0.85121371  0.29808923  1
  O  O634  1  0.33699081  0.85248295  0.54839483  1
  O  O635  1  0.33917430  0.85074980  0.79776969  1
  O  O636  1  0.83777097  0.18355597  0.04591959  1
  O  O637  1  0.83941596  0.18708975  0.29811476  1
  O  O638  1  0.83799280  0.18424753  0.54727654  1
  O  O639  1  0.83635585  0.18537626  0.79740148  1
  O  O640  1  0.83751139  0.51952551  0.04797933  1
  O  O641  1  0.83654962  0.51759385  0.29769546  1
  O  O642  1  0.83529188  0.51866110  0.54826607  1
  O  O643  1  0.83543713  0.51773013  0.79749659  1
  O  O644  1  0.83715598  0.85124823  0.04598345  1
  O  O645  1  0.83953469  0.85014702  0.29736267  1
  O  O646  1  0.83990493  0.85107200  0.54720372  1
  O  O647  1  0.83777094  0.85193248  0.79692041  1
  O  O648  1  0.16206731  0.14916812  0.20271254  1
  O  O649  1  0.16230451  0.14677225  0.45339087  1
  O  O650  1  0.16217908  0.14961813  0.70283235  1
  O  O651  1  0.16241584  0.14800665  0.95170521  1
  O  O652  1  0.16265123  0.48150396  0.20163723  1
  O  O653  1  0.16266544  0.48289835  0.45329751  1
  O  O654  1  0.16467306  0.48056444  0.70260337  1
  O  O655  1  0.16364562  0.48310851  0.95262363  1
  O  O656  1  0.16010018  0.81556789  0.20254434  1
  O  O657  1  0.16040541  0.81545374  0.45324596  1
  O  O658  1  0.16377021  0.81551442  0.70283993  1
  O  O659  1  0.16023478  0.81322257  0.95126437  1
  O  O660  1  0.66389018  0.14827364  0.20276949  1
  O  O661  1  0.66457710  0.14776496  0.45271694  1
  O  O662  1  0.66243103  0.14840621  0.70238388  1
  O  O663  1  0.66311401  0.14711474  0.95107168  1
  O  O664  1  0.66239430  0.48264547  0.20287865  1
  O  O665  1  0.66090708  0.48321754  0.45306005  1
  O  O666  1  0.66235345  0.48124124  0.70242065  1
  O  O667  1  0.66151499  0.48185202  0.95326626  1
  O  O668  1  0.66494919  0.81400904  0.20252198  1
  O  O669  1  0.66546273  0.81486221  0.45206719  1
  O  O670  1  0.66347452  0.81536405  0.70236410  1
  O  O671  1  0.66355203  0.81602436  0.95146311  1
