# generated using pymatgen
data_Na2MnFe(PO4)2
_symmetry_space_group_name_H-M   'P 1'
_cell_length_a   21.08623190
_cell_length_b   18.93986007
_cell_length_c   20.04590596
_cell_angle_alpha   89.99999638
_cell_angle_beta   90.00101605
_cell_angle_gamma   89.99908519
_symmetry_Int_Tables_number   1
_chemical_formula_structural   Na2MnFe(PO4)2
_chemical_formula_sum   'Na96 Mn48 Fe48 P96 O384'
_cell_volume   8005.73910487
_cell_formula_units_Z   48
loop_
 _symmetry_equiv_pos_site_id
 _symmetry_equiv_pos_as_xyz
  1  'x, y, z'
loop_
 _atom_site_type_symbol
 _atom_site_label
 _atom_site_symmetry_multiplicity
 _atom_site_fract_x
 _atom_site_fract_y
 _atom_site_fract_z
 _atom_site_occupancy
  Na  Na0  1  0.00055368  0.00003689  -0.00068685  1
  Na  Na1  1  0.00039101  0.00010786  0.24944315  1
  Na  Na2  1  -0.00091011  -0.00027935  0.50038123  1
  Na  Na3  1  -0.00098898  -0.00092938  0.75073868  1
  Na  Na4  1  -0.00218919  0.33315410  0.00076948  1
  Na  Na5  1  -0.00245573  0.33307859  0.24939963  1
  Na  Na6  1  0.00053175  0.33405945  0.49906617  1
  Na  Na7  1  0.00096873  0.33359218  0.75053331  1
  Na  Na8  1  -0.00248215  0.66611202  0.00062122  1
  Na  Na9  1  -0.00339842  0.66618402  0.25002414  1
  Na  Na10  1  0.00030899  0.66709960  0.50053839  1
  Na  Na11  1  0.00144248  0.66702495  0.74885928  1
  Na  Na12  1  0.50044376  -0.00058010  0.00056743  1
  Na  Na13  1  0.50210046  0.00016354  0.25072120  1
  Na  Na14  1  0.50065993  -0.00024029  0.49900113  1
  Na  Na15  1  0.49848332  -0.00096214  0.75033385  1
  Na  Na16  1  0.50120848  0.33360899  0.00063849  1
  Na  Na17  1  0.50172329  0.33414328  0.24896529  1
  Na  Na18  1  0.49930188  0.33360245  0.49950005  1
  Na  Na19  1  0.49813971  0.33327650  0.75127031  1
  Na  Na20  1  0.49987129  0.66647896  -0.00014390  1
  Na  Na21  1  0.50182353  0.66774560  0.24883821  1
  Na  Na22  1  0.49910966  0.66679625  0.50011187  1
  Na  Na23  1  0.49865174  0.66650661  0.75080705  1
  Na  Na24  1  0.25019406  -0.00002325  0.12405343  1
  Na  Na25  1  0.25196653  0.00016659  0.37396102  1
  Na  Na26  1  0.25176643  0.00015815  0.62590629  1
  Na  Na27  1  0.24813322  -0.00114609  0.87586509  1
  Na  Na28  1  0.24992120  0.33324528  0.12402425  1
  Na  Na29  1  0.25083349  0.33397936  0.37521116  1
  Na  Na30  1  0.25031772  0.33340184  0.62478313  1
  Na  Na31  1  0.25275845  0.33528072  0.87651028  1
  Na  Na32  1  0.25205144  0.66763832  0.12621364  1
  Na  Na33  1  0.24950663  0.66623347  0.37313377  1
  Na  Na34  1  0.24883239  0.66635942  0.62524849  1
  Na  Na35  1  0.25002661  0.66684634  0.87496173  1
  Na  Na36  1  0.74916632  -0.00037412  0.12501298  1
  Na  Na37  1  0.74665725  -0.00205925  0.37402347  1
  Na  Na38  1  0.75111947  -0.00016783  0.62516019  1
  Na  Na39  1  0.75225301  0.00047700  0.87583020  1
  Na  Na40  1  0.75048035  0.33376445  0.12467309  1
  Na  Na41  1  0.74980781  0.33294659  0.37467162  1
  Na  Na42  1  0.74883173  0.33287707  0.62473539  1
  Na  Na43  1  0.74962203  0.33357505  0.87547800  1
  Na  Na44  1  0.75068915  0.66708149  0.12565353  1
  Na  Na45  1  0.75080396  0.66689434  0.37418762  1
  Na  Na46  1  0.75179183  0.66777544  0.62458017  1
  Na  Na47  1  0.74983921  0.66667955  0.87577558  1
  Na  Na48  1  -0.00039455  0.16581958  -0.00010625  1
  Na  Na49  1  -0.00149739  0.16665563  0.24910534  1
  Na  Na50  1  -0.00171392  0.16706079  0.50054768  1
  Na  Na51  1  -0.00008739  0.16601582  0.75005166  1
  Na  Na52  1  -0.00168387  0.50031218  0.00028531  1
  Na  Na53  1  -0.00250566  0.50047357  0.25054730  1
  Na  Na54  1  0.00166025  0.50012227  0.49927306  1
  Na  Na55  1  0.00242432  0.49965756  0.75022309  1
  Na  Na56  1  -0.00225826  0.83437421  0.00047765  1
  Na  Na57  1  -0.00080772  0.83270166  0.24947705  1
  Na  Na58  1  -0.00135425  0.83389533  0.49991445  1
  Na  Na59  1  -0.00024859  0.83368322  0.75010683  1
  Na  Na60  1  0.50086579  0.16685349  0.00116701  1
  Na  Na61  1  0.50264918  0.16567096  0.24928605  1
  Na  Na62  1  0.50073744  0.16574887  0.49948852  1
  Na  Na63  1  0.49823558  0.16734036  0.75044926  1
  Na  Na64  1  0.50096023  0.49933847  -0.00043505  1
  Na  Na65  1  0.49972965  0.50021321  0.24947833  1
  Na  Na66  1  0.49840696  0.50021489  0.49927039  1
  Na  Na67  1  0.49842011  0.50036607  0.75160253  1
  Na  Na68  1  0.50026270  0.83403491  0.00052760  1
  Na  Na69  1  0.50212314  0.83310380  0.24952252  1
  Na  Na70  1  0.50005376  0.83340041  0.50018403  1
  Na  Na71  1  0.49824452  0.83409921  0.75012425  1
  Na  Na72  1  0.24977195  0.16657888  0.12349634  1
  Na  Na73  1  0.25227927  0.16537486  0.37437724  1
  Na  Na74  1  0.25038009  0.16589182  0.62627411  1
  Na  Na75  1  0.24939896  0.16623955  0.87623485  1
  Na  Na76  1  0.25184058  0.49905738  0.12495602  1
  Na  Na77  1  0.24997147  0.50019328  0.37432932  1
  Na  Na78  1  0.24952352  0.50027389  0.62450610  1
  Na  Na79  1  0.24949574  0.50047141  0.87583511  1
  Na  Na80  1  0.25046903  0.83378960  0.12581197  1
  Na  Na81  1  0.25003648  0.83392670  0.37348127  1
  Na  Na82  1  0.25219036  0.83281447  0.62496424  1
  Na  Na83  1  0.25087376  0.83382804  0.87543972  1
  Na  Na84  1  0.74827594  0.16740376  0.12590524  1
  Na  Na85  1  0.74884644  0.16690854  0.37423882  1
  Na  Na86  1  0.75101944  0.16594521  0.62410471  1
  Na  Na87  1  0.75115353  0.16567026  0.87603988  1
  Na  Na88  1  0.75048155  0.49971218  0.12489106  1
  Na  Na89  1  0.75229577  0.49952098  0.37444939  1
  Na  Na90  1  0.74964832  0.50050500  0.62496985  1
  Na  Na91  1  0.74924869  0.49951290  0.87529569  1
  Na  Na92  1  0.75098102  0.83297276  0.12479611  1
  Na  Na93  1  0.74855789  0.83351169  0.37384528  1
  Na  Na94  1  0.75011348  0.83372014  0.62571697  1
  Na  Na95  1  0.75229668  0.83289324  0.87558135  1
  Mn  Mn96  1  0.10763073  0.08357674  0.62258558  1
  Mn  Mn97  1  0.39144810  0.25026095  0.62760796  1
  Mn  Mn98  1  0.35733652  0.74978820  0.75257043  1
  Mn  Mn99  1  0.64263739  0.91685581  0.74850799  1
  Mn  Mn100  1  0.14269851  0.25030543  0.74833200  1
  Mn  Mn101  1  0.60726320  0.74971597  0.62276291  1
  Mn  Mn102  1  0.60812344  0.41707855  0.37246818  1
  Mn  Mn103  1  0.39359248  0.91642154  0.37678609  1
  Mn  Mn104  1  0.85703720  0.08215495  0.50144591  1
  Mn  Mn105  1  0.14216667  0.58421138  0.99923002  1
  Mn  Mn106  1  0.14239582  0.91739665  0.24749444  1
  Mn  Mn107  1  0.14235909  0.24935265  0.49697950  1
  Mn  Mn108  1  0.35744450  0.08371969  0.75334400  1
  Mn  Mn109  1  0.60804402  0.08347855  0.87280057  1
  Mn  Mn110  1  0.10657165  0.74980549  0.12253617  1
  Mn  Mn111  1  0.10796972  0.41634822  0.87350212  1
  Mn  Mn112  1  0.89176549  0.24972719  0.87758076  1
  Mn  Mn113  1  0.60778082  0.08311622  0.62324660  1
  Mn  Mn114  1  0.85821495  0.41706091  0.50293047  1
  Mn  Mn115  1  0.39177514  0.58334423  0.87832540  1
  Mn  Mn116  1  0.60759600  0.75007489  0.87321533  1
  Mn  Mn117  1  0.89325665  0.58310356  0.62722862  1
  Mn  Mn118  1  0.89142841  0.91677329  0.37717641  1
  Mn  Mn119  1  0.85845215  0.75004730  0.75263774  1
  Mn  Mn120  1  0.10768044  0.75041929  0.87403048  1
  Mn  Mn121  1  0.85695505  0.08316501  0.25220494  1
  Mn  Mn122  1  0.39294215  0.24970240  0.37624683  1
  Mn  Mn123  1  0.35735391  0.41704662  0.50245175  1
  Mn  Mn124  1  0.14177800  0.24989881  0.24785188  1
  Mn  Mn125  1  0.85814042  0.41629957  0.75205776  1
  Mn  Mn126  1  0.14181022  0.58272446  0.24711958  1
  Mn  Mn127  1  0.64176244  0.24973186  0.49759947  1
  Mn  Mn128  1  0.14278678  0.91619184  0.49797010  1
  Mn  Mn129  1  0.60660716  0.41707995  0.62321560  1
  Mn  Mn130  1  0.64190414  0.58407768  0.49800604  1
  Mn  Mn131  1  0.10720144  0.41671916  0.37171445  1
  Mn  Mn132  1  0.89224626  0.25017653  0.62758204  1
  Mn  Mn133  1  0.10844689  0.08326670  0.37280534  1
  Mn  Mn134  1  0.10829257  0.75026279  0.62180187  1
  Mn  Mn135  1  0.64307013  0.58298232  0.24750549  1
  Mn  Mn136  1  0.35740380  0.08300325  0.00259089  1
  Mn  Mn137  1  0.35872535  0.75001379  0.25229111  1
  Mn  Mn138  1  0.64153797  0.58355279  0.74724615  1
  Mn  Mn139  1  0.89213510  0.58358058  0.87698359  1
  Mn  Mn140  1  0.39231944  0.58399506  0.37687034  1
  Mn  Mn141  1  0.39349024  0.24970884  0.12788498  1
  Mn  Mn142  1  0.64172420  0.24932989  0.74801616  1
  Mn  Mn143  1  0.14186722  0.25011087  0.99790676  1
  Fe  Fe144  1  0.64330925  0.25020257  0.24796686  1
  Fe  Fe145  1  0.60814334  0.74993582  0.37367500  1
  Fe  Fe146  1  0.60793904  0.74987889  0.12253602  1
  Fe  Fe147  1  0.64343708  0.25003751  0.99827686  1
  Fe  Fe148  1  0.10620945  0.08307932  0.87342329  1
  Fe  Fe149  1  0.14300790  0.58350193  0.74834601  1
  Fe  Fe150  1  0.89250719  0.91694849  0.12653032  1
  Fe  Fe151  1  0.64267588  0.91632199  0.24728686  1
  Fe  Fe152  1  0.10673158  0.75022208  0.37355174  1
  Fe  Fe153  1  0.85646890  0.74999216  0.25226064  1
  Fe  Fe154  1  0.64304706  0.58327917  0.99894982  1
  Fe  Fe155  1  0.60807911  0.41711818  0.12280300  1
  Fe  Fe156  1  0.35791673  0.75007958  0.00219521  1
  Fe  Fe157  1  0.35813480  0.41753767  0.00281977  1
  Fe  Fe158  1  0.35826731  0.08408170  0.25079007  1
  Fe  Fe159  1  0.89193603  0.24966485  0.12654751  1
  Fe  Fe160  1  0.60752852  0.08316937  0.37291200  1
  Fe  Fe161  1  0.14312241  0.58410786  0.49785960  1
  Fe  Fe162  1  0.10602506  0.41649804  0.12353586  1
  Fe  Fe163  1  0.85655115  0.41664882  0.00193980  1
  Fe  Fe164  1  0.85686335  0.74978765  0.00213376  1
  Fe  Fe165  1  0.89182598  0.24998719  0.37663936  1
  Fe  Fe166  1  0.39193027  0.91721507  0.87766875  1
  Fe  Fe167  1  0.85732118  0.08334784  0.00247286  1
  Fe  Fe168  1  0.39392894  0.91663745  0.12634880  1
  Fe  Fe169  1  0.39274631  0.91640290  0.62659343  1
  Fe  Fe170  1  0.39395134  0.58373764  0.12596454  1
  Fe  Fe171  1  0.64232550  0.91606020  0.49912244  1
  Fe  Fe172  1  0.85698802  0.41678306  0.25131562  1
  Fe  Fe173  1  0.14258836  0.91627534  0.74832296  1
  Fe  Fe174  1  0.64376201  0.91673103  0.99804920  1
  Fe  Fe175  1  0.89310353  0.91661797  0.87728606  1
  Fe  Fe176  1  0.10690992  0.08353472  0.12330631  1
  Fe  Fe177  1  0.60775748  0.08303677  0.12290175  1
  Fe  Fe178  1  0.35687998  0.41686381  0.75196745  1
  Fe  Fe179  1  0.85704985  0.75042875  0.50114709  1
  Fe  Fe180  1  0.85799864  0.08353153  0.75181299  1
  Fe  Fe181  1  0.89204542  0.91670583  0.62683183  1
  Fe  Fe182  1  0.39279973  0.24971445  0.87753893  1
  Fe  Fe183  1  0.39120625  0.58384476  0.62669262  1
  Fe  Fe184  1  0.35868863  0.08263871  0.50164497  1
  Fe  Fe185  1  0.10864724  0.41626766  0.62358657  1
  Fe  Fe186  1  0.35776289  0.41575786  0.25066756  1
  Fe  Fe187  1  0.89294875  0.58360212  0.37767861  1
  Fe  Fe188  1  0.35755005  0.75025438  0.50096090  1
  Fe  Fe189  1  0.14260396  0.91593197  0.99872824  1
  Fe  Fe190  1  0.60684261  0.41641652  0.87334462  1
  Fe  Fe191  1  0.89114651  0.58309733  0.12660678  1
  P  P192  1  0.05167616  0.25020400  0.11030223  1
  P  P193  1  0.05143465  0.24970732  0.35943242  1
  P  P194  1  0.05369928  0.25073569  0.60990665  1
  P  P195  1  0.05302675  0.24915593  0.86045865  1
  P  P196  1  0.05085656  0.58256395  0.11058251  1
  P  P197  1  0.05341434  0.58486281  0.36092050  1
  P  P198  1  0.05618522  0.58252230  0.61021837  1
  P  P199  1  0.05411547  0.58374944  0.85985927  1
  P  P200  1  0.05258448  0.91713467  0.10958581  1
  P  P201  1  0.05319098  0.91573824  0.35991225  1
  P  P202  1  0.05294530  0.91683285  0.61090580  1
  P  P203  1  0.05407166  0.91691107  0.86107734  1
  P  P204  1  0.55635147  0.25015288  0.11079307  1
  P  P205  1  0.55451029  0.24942588  0.35879974  1
  P  P206  1  0.55242656  0.25008126  0.60999891  1
  P  P207  1  0.55352742  0.25062809  0.86186895  1
  P  P208  1  0.55374217  0.58338174  0.10921229  1
  P  P209  1  0.55355325  0.58441802  0.35958952  1
  P  P210  1  0.55075612  0.58331934  0.61000015  1
  P  P211  1  0.55461964  0.58268901  0.86181189  1
  P  P212  1  0.55515247  0.91662588  0.11051822  1
  P  P213  1  0.55628831  0.91605609  0.36069031  1
  P  P214  1  0.55267654  0.91659900  0.60974635  1
  P  P215  1  0.55313887  0.91670251  0.86147668  1
  P  P216  1  0.44803553  0.08220767  0.14017351  1
  P  P217  1  0.44692483  0.08329657  0.38874797  1
  P  P218  1  0.44546740  0.08218800  0.63919265  1
  P  P219  1  0.44662163  0.08342036  0.89092083  1
  P  P220  1  0.44700169  0.41756215  0.13890713  1
  P  P221  1  0.44558698  0.41645824  0.38842163  1
  P  P222  1  0.44509954  0.41792093  0.64114852  1
  P  P223  1  0.44550837  0.41593985  0.89008361  1
  P  P224  1  0.44728558  0.75029618  0.13811295  1
  P  P225  1  0.44814082  0.75032026  0.39058218  1
  P  P226  1  0.44485215  0.75009159  0.63873043  1
  P  P227  1  0.44561648  0.75092680  0.89109850  1
  P  P228  1  0.94582377  0.08294025  0.13849434  1
  P  P229  1  0.94658061  0.08381169  0.38973162  1
  P  P230  1  0.94563336  0.08233184  0.64061610  1
  P  P231  1  0.94548067  0.08237177  0.88971223  1
  P  P232  1  0.94469836  0.41656851  0.13915121  1
  P  P233  1  0.94470524  0.41677697  0.38840436  1
  P  P234  1  0.94895098  0.41702262  0.64019817  1
  P  P235  1  0.94587671  0.41681374  0.89108518  1
  P  P236  1  0.94346168  0.75028480  0.13930696  1
  P  P237  1  0.94551406  0.74958247  0.38944222  1
  P  P238  1  0.94566115  0.75081800  0.63862827  1
  P  P239  1  0.94595174  0.75065426  0.89095578  1
  P  P240  1  0.19771362  0.08364780  0.23369274  1
  P  P241  1  0.19889796  0.08250410  0.48488457  1
  P  P242  1  0.19491397  0.08221237  0.73694238  1
  P  P243  1  0.19394007  0.08221621  0.98588083  1
  P  P244  1  0.19706393  0.41628902  0.23382419  1
  P  P245  1  0.19530166  0.41764483  0.48558219  1
  P  P246  1  0.19745013  0.41720148  0.73509881  1
  P  P247  1  0.19652570  0.41727900  0.98697521  1
  P  P248  1  0.19525121  0.75010463  0.23592754  1
  P  P249  1  0.19774892  0.74959588  0.48377146  1
  P  P250  1  0.19608290  0.75069920  0.73549323  1
  P  P251  1  0.19817936  0.75071303  0.98591022  1
  P  P252  1  0.69450979  0.08314905  0.23546766  1
  P  P253  1  0.69561073  0.08192319  0.48423710  1
  P  P254  1  0.69840433  0.08305069  0.73517528  1
  P  P255  1  0.69669127  0.08314073  0.98674696  1
  P  P256  1  0.69742331  0.41623611  0.23436344  1
  P  P257  1  0.69673905  0.41717132  0.48483033  1
  P  P258  1  0.69547652  0.41635641  0.73589006  1
  P  P259  1  0.69561782  0.41666443  0.98603900  1
  P  P260  1  0.69577999  0.75029090  0.23528191  1
  P  P261  1  0.69723755  0.75072672  0.48450059  1
  P  P262  1  0.69680813  0.75037282  0.73510970  1
  P  P263  1  0.69653181  0.75019077  0.98666584  1
  P  P264  1  0.30506250  0.25055582  0.01430167  1
  P  P265  1  0.30356218  0.24996955  0.26417188  1
  P  P266  1  0.30355631  0.24885486  0.51477472  1
  P  P267  1  0.30390100  0.25094314  0.76661995  1
  P  P268  1  0.30427657  0.58391955  0.01617075  1
  P  P269  1  0.30516726  0.58206220  0.26301067  1
  P  P270  1  0.30270090  0.58471121  0.51484942  1
  P  P271  1  0.30313066  0.58262996  0.76417323  1
  P  P272  1  0.30422384  0.91599422  0.01500567  1
  P  P273  1  0.30569904  0.91796170  0.26300878  1
  P  P274  1  0.30471191  0.91623678  0.51490907  1
  P  P275  1  0.30383662  0.91670245  0.76504558  1
  P  P276  1  0.80290002  0.24982733  0.01554855  1
  P  P277  1  0.80395373  0.25059889  0.26388229  1
  P  P278  1  0.80411446  0.24971843  0.51385424  1
  P  P279  1  0.80308288  0.24916637  0.76532937  1
  P  P280  1  0.80258956  0.58316139  0.01524192  1
  P  P281  1  0.80570775  0.58331848  0.26411471  1
  P  P282  1  0.80459413  0.58458332  0.51394255  1
  P  P283  1  0.80304621  0.58320079  0.76525240  1
  P  P284  1  0.80446090  0.91687427  0.01439953  1
  P  P285  1  0.80303715  0.91604641  0.26319039  1
  P  P286  1  0.80234291  0.91541290  0.51512891  1
  P  P287  1  0.80552568  0.91753909  0.76511576  1
  O  O288  1  0.05523968  0.25024183  0.18694611  1
  O  O289  1  0.05586565  0.24959113  0.43611143  1
  O  O290  1  0.05701587  0.25001012  0.68668095  1
  O  O291  1  0.05584582  0.24990975  0.93727394  1
  O  O292  1  0.05480691  0.58310908  0.18723487  1
  O  O293  1  0.05857828  0.58448402  0.43757013  1
  O  O294  1  0.06034350  0.58341592  0.68703963  1
  O  O295  1  0.05684450  0.58386037  0.93668624  1
  O  O296  1  0.05637195  0.91647029  0.18627157  1
  O  O297  1  0.05644089  0.91642264  0.43670836  1
  O  O298  1  0.05802440  0.91642997  0.68753030  1
  O  O299  1  0.05877725  0.91572368  0.93775980  1
  O  O300  1  0.56030451  0.25047922  0.18756376  1
  O  O301  1  0.55667815  0.25017600  0.43562422  1
  O  O302  1  0.55550294  0.24992496  0.68685049  1
  O  O303  1  0.55895862  0.24981358  0.93848500  1
  O  O304  1  0.55726463  0.58330710  0.18631020  1
  O  O305  1  0.55623874  0.58361708  0.43623984  1
  O  O306  1  0.55470568  0.58351485  0.68675761  1
  O  O307  1  0.55947371  0.58340360  0.93842696  1
  O  O308  1  0.55941854  0.91638774  0.18732765  1
  O  O309  1  0.55947982  0.91582736  0.43740273  1
  O  O310  1  0.55645150  0.91661069  0.68654576  1
  O  O311  1  0.55912217  0.91676868  0.93804382  1
  O  O312  1  0.44365825  0.08287421  0.06360891  1
  O  O313  1  0.44223839  0.08350749  0.31207803  1
  O  O314  1  0.44205625  0.08273030  0.56247596  1
  O  O315  1  0.44349448  0.08330059  0.81389375  1
  O  O316  1  0.44224060  0.41672125  0.06224811  1
  O  O317  1  0.44157805  0.41626789  0.31162565  1
  O  O318  1  0.44245595  0.41713591  0.56429640  1
  O  O319  1  0.44059930  0.41688577  0.81342405  1
  O  O320  1  0.44240485  0.75043131  0.06184916  1
  O  O321  1  0.44452165  0.75041156  0.31330638  1
  O  O322  1  0.44129268  0.74984166  0.56214316  1
  O  O323  1  0.44246227  0.75024720  0.81421400  1
  O  O324  1  0.94120468  0.08292731  0.06177103  1
  O  O325  1  0.94319497  0.08294534  0.31297781  1
  O  O326  1  0.94227642  0.08270049  0.56383246  1
  O  O327  1  0.94131259  0.08330624  0.81306092  1
  O  O328  1  0.94001569  0.41683188  0.06243343  1
  O  O329  1  0.94056823  0.41661554  0.31166209  1
  O  O330  1  0.94485243  0.41733233  0.56346512  1
  O  O331  1  0.94327631  0.41677487  0.81430333  1
  O  O332  1  0.93954372  0.75002440  0.06244965  1
  O  O333  1  0.94075531  0.75044148  0.31273022  1
  O  O334  1  0.94128717  0.75056707  0.56191045  1
  O  O335  1  0.94382352  0.74976207  0.81413675  1
  O  O336  1  0.18967842  0.08328304  0.06266305  1
  O  O337  1  0.19397127  0.08335806  0.31043845  1
  O  O338  1  0.19443116  0.08271356  0.56158321  1
  O  O339  1  0.19056796  0.08272597  0.81358554  1
  O  O340  1  0.19040370  0.41673819  0.06350894  1
  O  O341  1  0.19300461  0.41660287  0.31058981  1
  O  O342  1  0.19175846  0.41655727  0.56235225  1
  O  O343  1  0.19408051  0.41670159  0.81186890  1
  O  O344  1  0.19392422  0.75025209  0.06256963  1
  O  O345  1  0.19062738  0.74997468  0.31227737  1
  O  O346  1  0.19420978  0.75038427  0.56052214  1
  O  O347  1  0.19334757  0.75092541  0.81225503  1
  O  O348  1  0.69188813  0.08295209  0.06339605  1
  O  O349  1  0.69095567  0.08305321  0.31224588  1
  O  O350  1  0.69328453  0.08280722  0.56107051  1
  O  O351  1  0.69441010  0.08299956  0.81192751  1
  O  O352  1  0.69133983  0.41703410  0.06279864  1
  O  O353  1  0.69386981  0.41703297  0.31100948  1
  O  O354  1  0.69304301  0.41729494  0.56159535  1
  O  O355  1  0.69098418  0.41636592  0.81267130  1
  O  O356  1  0.69196315  0.75015864  0.06336131  1
  O  O357  1  0.69136307  0.74962405  0.31192691  1
  O  O358  1  0.69352108  0.74997793  0.56122425  1
  O  O359  1  0.69331596  0.75032161  0.81189433  1
  O  O360  1  0.30642990  0.24988461  0.18738151  1
  O  O361  1  0.30685655  0.24949427  0.43800935  1
  O  O362  1  0.30639493  0.24974821  0.68981505  1
  O  O363  1  0.30923896  0.24987292  0.93758871  1
  O  O364  1  0.31020089  0.58332705  0.18650075  1
  O  O365  1  0.30634531  0.58393853  0.43806474  1
  O  O366  1  0.30743922  0.58336625  0.68751681  1
  O  O367  1  0.30629250  0.58372173  0.93926891  1
  O  O368  1  0.31015030  0.91698338  0.18638841  1
  O  O369  1  0.30768607  0.91640875  0.43808348  1
  O  O370  1  0.30882161  0.91677032  0.68843605  1
  O  O371  1  0.30862134  0.91697527  0.93824756  1
  O  O372  1  0.80868883  0.24977455  0.18716957  1
  O  O373  1  0.80823814  0.24993881  0.43703363  1
  O  O374  1  0.80613246  0.24994648  0.68852072  1
  O  O375  1  0.80628390  0.24962037  0.93885755  1
  O  O376  1  0.80886715  0.58315459  0.18726905  1
  O  O377  1  0.80862388  0.58369847  0.43714341  1
  O  O378  1  0.80689823  0.58325247  0.68848348  1
  O  O379  1  0.80593312  0.58318412  0.93858188  1
  O  O380  1  0.80808600  0.91703314  0.18659951  1
  O  O381  1  0.80556910  0.91606568  0.43835825  1
  O  O382  1  0.80903831  0.91663606  0.68830734  1
  O  O383  1  0.80892191  0.91698257  0.93771138  1
  O  O384  1  0.23488213  0.24996691  0.03816841  1
  O  O385  1  0.23414972  0.24994049  0.29011991  1
  O  O386  1  0.23394815  0.24921833  0.54019127  1
  O  O387  1  0.23438579  0.25061403  0.79222963  1
  O  O388  1  0.23472822  0.58359911  0.04195696  1
  O  O389  1  0.23506643  0.58255074  0.28684168  1
  O  O390  1  0.23264985  0.58386486  0.53931268  1
  O  O391  1  0.23293082  0.58349844  0.78838678  1
  O  O392  1  0.23378351  0.91675930  0.03861207  1
  O  O393  1  0.23572524  0.91733139  0.28718378  1
  O  O394  1  0.23504595  0.91636586  0.54032220  1
  O  O395  1  0.23348941  0.91644737  0.78858231  1
  O  O396  1  0.73274277  0.25020580  0.03993783  1
  O  O397  1  0.73343193  0.24987223  0.28718226  1
  O  O398  1  0.73416018  0.24943937  0.53811942  1
  O  O399  1  0.73359379  0.24928277  0.79099784  1
  O  O400  1  0.73246830  0.58323167  0.03999319  1
  O  O401  1  0.73559020  0.58320478  0.28853136  1
  O  O402  1  0.73471767  0.58447075  0.53856401  1
  O  O403  1  0.73334239  0.58334651  0.79011337  1
  O  O404  1  0.73402988  0.91673314  0.03815691  1
  O  O405  1  0.73259702  0.91600800  0.28648689  1
  O  O406  1  0.73237929  0.91631967  0.54001565  1
  O  O407  1  0.73562336  0.91660163  0.78986544  1
  O  O408  1  0.26779395  0.08354127  0.20917993  1
  O  O409  1  0.26904919  0.08224247  0.46072819  1
  O  O410  1  0.26516229  0.08289266  0.71295912  1
  O  O411  1  0.26416954  0.08259806  0.96227646  1
  O  O412  1  0.26727086  0.41614289  0.20981789  1
  O  O413  1  0.26522595  0.41769780  0.46101273  1
  O  O414  1  0.26740940  0.41660876  0.71025146  1
  O  O415  1  0.26715171  0.41787276  0.96431695  1
  O  O416  1  0.26577319  0.75050202  0.21231304  1
  O  O417  1  0.26777490  0.75017465  0.45895406  1
  O  O418  1  0.26571524  0.75013213  0.71015223  1
  O  O419  1  0.26810990  0.75026842  0.96124056  1
  O  O420  1  0.76451737  0.08335778  0.21109544  1
  O  O421  1  0.76511646  0.08221130  0.45837708  1
  O  O422  1  0.76827723  0.08302620  0.71050234  1
  O  O423  1  0.76715561  0.08312657  0.96323961  1
  O  O424  1  0.76757023  0.41690481  0.21009377  1
  O  O425  1  0.76648557  0.41676560  0.46006679  1
  O  O426  1  0.76541798  0.41652921  0.71153482  1
  O  O427  1  0.76615467  0.41641646  0.96249465  1
  O  O428  1  0.76618919  0.74979943  0.21181856  1
  O  O429  1  0.76719460  0.75034884  0.45963949  1
  O  O430  1  0.76654730  0.75063427  0.71043291  1
  O  O431  1  0.76695729  0.75009035  0.96291867  1
  O  O432  1  0.01617506  0.08315073  0.16236873  1
  O  O433  1  0.01616248  0.08340729  0.41517110  1
  O  O434  1  0.01540489  0.08264434  0.66542356  1
  O  O435  1  0.01581442  0.08277943  0.91350718  1
  O  O436  1  0.01507820  0.41655884  0.16311269  1
  O  O437  1  0.01476822  0.41718149  0.41254867  1
  O  O438  1  0.01893717  0.41666969  0.66468986  1
  O  O439  1  0.01555923  0.41675158  0.91630476  1
  O  O440  1  0.01357101  0.74985377  0.16339358  1
  O  O441  1  0.01574045  0.75029743  0.41343299  1
  O  O442  1  0.01567180  0.75017787  0.66277873  1
  O  O443  1  0.01545638  0.75030998  0.91670541  1
  O  O444  1  0.51840485  0.08276867  0.16379268  1
  O  O445  1  0.51734833  0.08276562  0.41220687  1
  O  O446  1  0.51515134  0.08281695  0.66454301  1
  O  O447  1  0.51624090  0.08324683  0.91601004  1
  O  O448  1  0.51761676  0.41709056  0.16213027  1
  O  O449  1  0.51549487  0.41670388  0.41282759  1
  O  O450  1  0.51462278  0.41705544  0.66676380  1
  O  O451  1  0.51599293  0.41636612  0.91350446  1
  O  O452  1  0.51777278  0.75037220  0.16190146  1
  O  O453  1  0.51811485  0.75029923  0.41470517  1
  O  O454  1  0.51461204  0.75029011  0.66411432  1
  O  O455  1  0.51542909  0.75042922  0.91578454  1
  O  O456  1  0.48614860  0.25000885  0.08694695  1
  O  O457  1  0.48504447  0.24994861  0.33295327  1
  O  O458  1  0.48286439  0.24987011  0.58467594  1
  O  O459  1  0.48311563  0.25042701  0.83842652  1
  O  O460  1  0.48368231  0.58329466  0.08494647  1
  O  O461  1  0.48406665  0.58432722  0.33383171  1
  O  O462  1  0.48079283  0.58353046  0.58540096  1
  O  O463  1  0.48435007  0.58331497  0.83822029  1
  O  O464  1  0.48466769  0.91665141  0.08699910  1
  O  O465  1  0.48633573  0.91640289  0.33586975  1
  O  O466  1  0.48267752  0.91641947  0.58524588  1
  O  O467  1  0.48258752  0.91669550  0.83854908  1
  O  O468  1  0.98155241  0.24979023  0.08566507  1
  O  O469  1  0.98134256  0.24985256  0.33516562  1
  O  O470  1  0.98396282  0.25068110  0.58488276  1
  O  O471  1  0.98345747  0.24955087  0.83513020  1
  O  O472  1  0.98064798  0.58308799  0.08636999  1
  O  O473  1  0.98294929  0.58376078  0.33756640  1
  O  O474  1  0.98609929  0.58354889  0.58617800  1
  O  O475  1  0.98448079  0.58350370  0.83452203  1
  O  O476  1  0.98236622  0.91703544  0.08544286  1
  O  O477  1  0.98346449  0.91613651  0.33479777  1
  O  O478  1  0.98257828  0.91698868  0.58725050  1
  O  O479  1  0.98359759  0.91647794  0.83767627  1
  O  O480  1  0.08525196  0.31543915  0.07754196  1
  O  O481  1  0.08510635  0.31479630  0.32657544  1
  O  O482  1  0.08783555  0.31581287  0.57773452  1
  O  O483  1  0.08738557  0.31420249  0.82827455  1
  O  O484  1  0.08470146  0.64757556  0.07763081  1
  O  O485  1  0.08597004  0.65014158  0.32748876  1
  O  O486  1  0.09023062  0.64724206  0.57672704  1
  O  O487  1  0.08827270  0.64882447  0.82751117  1
  O  O488  1  0.08656629  0.98207056  0.07705815  1
  O  O489  1  0.08742340  0.98078012  0.32735744  1
  O  O490  1  0.08633792  0.98181007  0.57758707  1
  O  O491  1  0.08708676  0.98221639  0.82802431  1
  O  O492  1  0.58974254  0.31520539  0.07757393  1
  O  O493  1  0.58938600  0.31415512  0.32635058  1
  O  O494  1  0.58638749  0.31521570  0.57767233  1
  O  O495  1  0.58655029  0.31586485  0.82873929  1
  O  O496  1  0.58764952  0.64842148  0.07676811  1
  O  O497  1  0.58788852  0.64962740  0.32768019  1
  O  O498  1  0.58490385  0.64828654  0.57736796  1
  O  O499  1  0.58788017  0.64765962  0.82821503  1
  O  O500  1  0.58846275  0.98175978  0.07735143  1
  O  O501  1  0.59020738  0.98107326  0.32782396  1
  O  O502  1  0.58666247  0.98149724  0.57699353  1
  O  O503  1  0.58615146  0.98176347  0.82778925  1
  O  O504  1  0.41469581  0.01711215  0.17311285  1
  O  O505  1  0.41343827  0.01838501  0.42215131  1
  O  O506  1  0.41186779  0.01680760  0.67175167  1
  O  O507  1  0.41235998  0.01836737  0.92307645  1
  O  O508  1  0.41362083  0.35267513  0.17267382  1
  O  O509  1  0.41208594  0.35145685  0.42151164  1
  O  O510  1  0.41030186  0.35316956  0.67364703  1
  O  O511  1  0.41236740  0.35091998  0.92345363  1
  O  O512  1  0.41425256  0.68504638  0.17169202  1
  O  O513  1  0.41386000  0.68552143  0.42283927  1
  O  O514  1  0.41109282  0.68498794  0.67179380  1
  O  O515  1  0.41129992  0.68597129  0.92360374  1
  O  O516  1  0.91266754  0.01781128  0.17185994  1
  O  O517  1  0.91233961  0.01870131  0.42219881  1
  O  O518  1  0.91155919  0.01730405  0.67306337  1
  O  O519  1  0.91226743  0.01711927  0.92276855  1
  O  O520  1  0.91132118  0.35132307  0.17212509  1
  O  O521  1  0.91153668  0.35147678  0.42139166  1
  O  O522  1  0.91476706  0.35208331  0.67272435  1
  O  O523  1  0.91133083  0.35193613  0.92346101  1
  O  O524  1  0.90952364  0.68546386  0.17231549  1
  O  O525  1  0.91233787  0.68428962  0.42246696  1
  O  O526  1  0.91206350  0.68583408  0.67189734  1
  O  O527  1  0.91113132  0.68591269  0.92339107  1
  O  O528  1  0.16342226  0.01882263  0.20094427  1
  O  O529  1  0.16514892  0.01747606  0.45203992  1
  O  O530  1  0.16200484  0.01690457  0.70373874  1
  O  O531  1  0.16067951  0.01682829  0.95326533  1
  O  O532  1  0.16306781  0.35124850  0.20125209  1
  O  O533  1  0.16170682  0.35268519  0.45222892  1
  O  O534  1  0.16323009  0.35231235  0.70225178  1
  O  O535  1  0.16401768  0.35213764  0.95286347  1
  O  O536  1  0.16229291  0.68497583  0.20223563  1
  O  O537  1  0.16382574  0.68436073  0.45143344  1
  O  O538  1  0.16183105  0.68564140  0.70335064  1
  O  O539  1  0.16413178  0.68573773  0.95322066  1
  O  O540  1  0.66096095  0.01804674  0.20235694  1
  O  O541  1  0.66139170  0.01659238  0.45264647  1
  O  O542  1  0.66449715  0.01795842  0.70263341  1
  O  O543  1  0.66360778  0.01808794  0.95317372  1
  O  O544  1  0.66377232  0.35120614  0.20170131  1
  O  O545  1  0.66256818  0.35217920  0.45235581  1
  O  O546  1  0.66195642  0.35121152  0.70299661  1
  O  O547  1  0.66227930  0.35145791  0.95296285  1
  O  O548  1  0.66228767  0.68527668  0.20171915  1
  O  O549  1  0.66301952  0.68597878  0.45137192  1
  O  O550  1  0.66292038  0.68537320  0.70231548  1
  O  O551  1  0.66328542  0.68509602  0.95358394  1
  O  O552  1  0.33837367  0.31572143  0.04720184  1
  O  O553  1  0.33782731  0.31517323  0.29619156  1
  O  O554  1  0.33756188  0.31408824  0.54719969  1
  O  O555  1  0.33821938  0.31619217  0.79822830  1
  O  O556  1  0.33860848  0.64912105  0.04809616  1
  O  O557  1  0.33862849  0.64722537  0.29669643  1
  O  O558  1  0.33611102  0.65010304  0.54729771  1
  O  O559  1  0.33704504  0.64733195  0.79759438  1
  O  O560  1  0.33816585  0.98070971  0.04843690  1
  O  O561  1  0.33895446  0.98329758  0.29570294  1
  O  O562  1  0.33916887  0.98102430  0.54753375  1
  O  O563  1  0.33714831  0.98172049  0.79882612  1
  O  O564  1  0.83690646  0.31488343  0.04804158  1
  O  O565  1  0.83677253  0.31595580  0.29691877  1
  O  O566  1  0.83756363  0.31470239  0.54719444  1
  O  O567  1  0.83735307  0.31414117  0.79782015  1
  O  O568  1  0.83659931  0.64807854  0.04805920  1
  O  O569  1  0.83917977  0.64860276  0.29683700  1
  O  O570  1  0.83828941  0.64992644  0.54619613  1
  O  O571  1  0.83705371  0.64830378  0.79779905  1
  O  O572  1  0.83773396  0.98188018  0.04796953  1
  O  O573  1  0.83593648  0.98095416  0.29716195  1
  O  O574  1  0.83696220  0.98009419  0.54783057  1
  O  O575  1  0.83888133  0.98295452  0.79767400  1
  O  O576  1  0.41427440  0.14717224  0.17343796  1
  O  O577  1  0.41380258  0.14828113  0.42227353  1
  O  O578  1  0.41115320  0.14697873  0.67219988  1
  O  O579  1  0.41263013  0.14854607  0.92313129  1
  O  O580  1  0.41385442  0.48270196  0.17190275  1
  O  O581  1  0.41181613  0.48149330  0.42128215  1
  O  O582  1  0.41111083  0.48330313  0.67312541  1
  O  O583  1  0.41210223  0.48094931  0.92370925  1
  O  O584  1  0.41412843  0.81531163  0.17196072  1
  O  O585  1  0.41408029  0.81516396  0.42291582  1
  O  O586  1  0.41108134  0.81541481  0.67138031  1
  O  O587  1  0.41162813  0.81597065  0.92345756  1
  O  O588  1  0.91228080  0.14793442  0.17153756  1
  O  O589  1  0.91236195  0.14891668  0.42169157  1
  O  O590  1  0.91146679  0.14735842  0.67332749  1
  O  O591  1  0.91168366  0.14701962  0.92346501  1
  O  O592  1  0.91121868  0.48149324  0.17255245  1
  O  O593  1  0.91129816  0.48199132  0.42146950  1
  O  O594  1  0.91534437  0.48207495  0.67309992  1
  O  O595  1  0.91146651  0.48176714  0.92341154  1
  O  O596  1  0.91025595  0.81574738  0.17211743  1
  O  O597  1  0.91149303  0.81429694  0.42286409  1
  O  O598  1  0.91238870  0.81602974  0.67167121  1
  O  O599  1  0.91157939  0.81585050  0.92274800  1
  O  O600  1  0.08579419  0.18527888  0.07774006  1
  O  O601  1  0.08521138  0.18465256  0.32666339  1
  O  O602  1  0.08738949  0.18543621  0.57717683  1
  O  O603  1  0.08698696  0.18394329  0.82845572  1
  O  O604  1  0.08449405  0.51752549  0.07791805  1
  O  O605  1  0.08694236  0.51997302  0.32728831  1
  O  O606  1  0.08927002  0.51712336  0.57752019  1
  O  O607  1  0.08870180  0.51877560  0.82771026  1
  O  O608  1  0.08630824  0.85208443  0.07642541  1
  O  O609  1  0.08706479  0.85054589  0.32773186  1
  O  O610  1  0.08617298  0.85192750  0.57717181  1
  O  O611  1  0.08761300  0.85220574  0.82721901  1
  O  O612  1  0.58983227  0.18494623  0.07783627  1
  O  O613  1  0.58873548  0.18407895  0.32713997  1
  O  O614  1  0.58679308  0.18504318  0.57785752  1
  O  O615  1  0.58653204  0.18556421  0.82805702  1
  O  O616  1  0.58775917  0.51842388  0.07680614  1
  O  O617  1  0.58784499  0.51948238  0.32684811  1
  O  O618  1  0.58458714  0.51832776  0.57729714  1
  O  O619  1  0.58739382  0.51718745  0.82885235  1
  O  O620  1  0.58857951  0.85171856  0.07709709  1
  O  O621  1  0.58981343  0.85091369  0.32755149  1
  O  O622  1  0.58681653  0.85170431  0.57695760  1
  O  O623  1  0.58607788  0.85165662  0.82782848  1
  O  O624  1  0.33865733  0.18559537  0.04757277  1
  O  O625  1  0.33797046  0.18470225  0.29603452  1
  O  O626  1  0.33753769  0.18370372  0.54702833  1
  O  O627  1  0.33855319  0.18604897  0.79926806  1
  O  O628  1  0.33923944  0.51910471  0.04810508  1
  O  O629  1  0.33824444  0.51669330  0.29582526  1
  O  O630  1  0.33702985  0.52006012  0.54794514  1
  O  O631  1  0.33614783  0.51737333  0.79735747  1
  O  O632  1  0.33746895  0.85080006  0.04799714  1
  O  O633  1  0.33952680  0.85300337  0.29651980  1
  O  O634  1  0.33867357  0.85087199  0.54704506  1
  O  O635  1  0.33749025  0.85187166  0.79840113  1
  O  O636  1  0.83662317  0.18479629  0.04854108  1
  O  O637  1  0.83746507  0.18582544  0.29755814  1
  O  O638  1  0.83778766  0.18454681  0.54641039  1
  O  O639  1  0.83726251  0.18391142  0.79732665  1
  O  O640  1  0.83641303  0.51807278  0.04800561  1
  O  O641  1  0.83946629  0.51834983  0.29688145  1
  O  O642  1  0.83833059  0.51971465  0.54733332  1
  O  O643  1  0.83699224  0.51815939  0.79781585  1
  O  O644  1  0.83784768  0.85181492  0.04757461  1
  O  O645  1  0.83612106  0.85087456  0.29639916  1
  O  O646  1  0.83609188  0.85021363  0.54759315  1
  O  O647  1  0.84001363  0.85297819  0.79829558  1
  O  O648  1  0.16362211  0.14871378  0.20117820  1
  O  O649  1  0.16528583  0.14752283  0.45172200  1
  O  O650  1  0.16153511  0.14725836  0.70362597  1
  O  O651  1  0.16014071  0.14700175  0.95245315  1
  O  O652  1  0.16308614  0.48118438  0.20088014  1
  O  O653  1  0.16171259  0.48300628  0.45310974  1
  O  O654  1  0.16359155  0.48229176  0.70259595  1
  O  O655  1  0.16330852  0.48227617  0.95360558  1
  O  O656  1  0.16189340  0.81505900  0.20246553  1
  O  O657  1  0.16329555  0.81439277  0.45108826  1
  O  O658  1  0.16240184  0.81592892  0.70277571  1
  O  O659  1  0.16444331  0.81588844  0.95322236  1
  O  O660  1  0.66075824  0.14816224  0.20258727  1
  O  O661  1  0.66094020  0.14668687  0.45167416  1
  O  O662  1  0.66435463  0.14796892  0.70249236  1
  O  O663  1  0.66364603  0.14838385  0.95350235  1
  O  O664  1  0.66327702  0.48112483  0.20125668  1
  O  O665  1  0.66307770  0.48239328  0.45214081  1
  O  O666  1  0.66179990  0.48138373  0.70281073  1
  O  O667  1  0.66233989  0.48164331  0.95270532  1
  O  O668  1  0.66246351  0.81522346  0.20184251  1
  O  O669  1  0.66338393  0.81592713  0.45217630  1
  O  O670  1  0.66271273  0.81541234  0.70272396  1
  O  O671  1  0.66356606  0.81542804  0.95330512  1
