# generated using pymatgen
data_Na2MnFe(PO4)2
_symmetry_space_group_name_H-M   'P 1'
_cell_length_a   21.08796560
_cell_length_b   18.94073537
_cell_length_c   20.04639828
_cell_angle_alpha   89.99979903
_cell_angle_beta   90.00202725
_cell_angle_gamma   90.00039332
_symmetry_Int_Tables_number   1
_chemical_formula_structural   Na2MnFe(PO4)2
_chemical_formula_sum   'Na96 Mn48 Fe48 P96 O384'
_cell_volume   8006.96398730
_cell_formula_units_Z   48
loop_
 _symmetry_equiv_pos_site_id
 _symmetry_equiv_pos_as_xyz
  1  'x, y, z'
loop_
 _atom_site_type_symbol
 _atom_site_label
 _atom_site_symmetry_multiplicity
 _atom_site_fract_x
 _atom_site_fract_y
 _atom_site_fract_z
 _atom_site_occupancy
  Na  Na0  1  -0.00000116  -0.00059484  0.00009081  1
  Na  Na1  1  0.00200793  0.00028723  0.25010787  1
  Na  Na2  1  -0.00039626  -0.00029585  0.50043384  1
  Na  Na3  1  -0.00223232  -0.00145753  0.75033448  1
  Na  Na4  1  -0.00012218  0.33348274  -0.00063899  1
  Na  Na5  1  -0.00005361  0.33372179  0.24930110  1
  Na  Na6  1  -0.00192522  0.33299271  0.50146169  1
  Na  Na7  1  -0.00008353  0.33361648  0.74894104  1
  Na  Na8  1  0.00059577  0.66637791  -0.00044394  1
  Na  Na9  1  0.00083189  0.66656063  0.24881511  1
  Na  Na10  1  -0.00047895  0.66658294  0.50077713  1
  Na  Na11  1  -0.00045992  0.66664959  0.75057975  1
  Na  Na12  1  0.50002931  -0.00036174  -0.00136281  1
  Na  Na13  1  0.49890549  -0.00026984  0.24902710  1
  Na  Na14  1  0.49649323  -0.00127691  0.50146992  1
  Na  Na15  1  0.49861755  -0.00080764  0.75038589  1
  Na  Na16  1  0.50007610  0.33359334  0.00117864  1
  Na  Na17  1  0.49888016  0.33321082  0.24858228  1
  Na  Na18  1  0.49978064  0.33329635  0.50015696  1
  Na  Na19  1  0.50035744  0.33312267  0.75049751  1
  Na  Na20  1  0.49930553  0.66688612  -0.00133888  1
  Na  Na21  1  0.49945266  0.66660483  0.25070843  1
  Na  Na22  1  0.49944974  0.66651521  0.49997269  1
  Na  Na23  1  0.49848727  0.66564616  0.75064860  1
  Na  Na24  1  0.24869339  -0.00049741  0.12500156  1
  Na  Na25  1  0.24936059  -0.00049045  0.37472322  1
  Na  Na26  1  0.25343246  0.00099765  0.62511745  1
  Na  Na27  1  0.25245882  0.00058342  0.87494863  1
  Na  Na28  1  0.25221562  0.33452637  0.12422917  1
  Na  Na29  1  0.25182630  0.33398635  0.37527968  1
  Na  Na30  1  0.24872689  0.33255829  0.62525632  1
  Na  Na31  1  0.25003827  0.33384042  0.87497531  1
  Na  Na32  1  0.24714394  0.66568788  0.12483470  1
  Na  Na33  1  0.25063396  0.66686017  0.37576491  1
  Na  Na34  1  0.24963846  0.66687933  0.62512794  1
  Na  Na35  1  0.24689018  0.66621940  0.87492847  1
  Na  Na36  1  0.75037863  -0.00075035  0.12487164  1
  Na  Na37  1  0.75124500  -0.00026619  0.37438420  1
  Na  Na38  1  0.75199594  0.00000134  0.62562052  1
  Na  Na39  1  0.75018974  -0.00119323  0.87504636  1
  Na  Na40  1  0.74801934  0.33259261  0.12403248  1
  Na  Na41  1  0.74958650  0.33339425  0.37520332  1
  Na  Na42  1  0.75156484  0.33453921  0.62576721  1
  Na  Na43  1  0.75000871  0.33354414  0.87553055  1
  Na  Na44  1  0.75156106  0.66652104  0.12431334  1
  Na  Na45  1  0.75124414  0.66678074  0.37393094  1
  Na  Na46  1  0.75096454  0.66689204  0.62476462  1
  Na  Na47  1  0.75343015  0.66802028  0.87646922  1
  Na  Na48  1  0.00041498  0.16680012  -0.00049135  1
  Na  Na49  1  0.00257694  0.16536394  0.24988039  1
  Na  Na50  1  0.00002735  0.16668284  0.50112949  1
  Na  Na51  1  -0.00008856  0.16659793  0.74913329  1
  Na  Na52  1  -0.00087919  0.50032454  -0.00010567  1
  Na  Na53  1  -0.00095034  0.50040659  0.24902223  1
  Na  Na54  1  -0.00190140  0.50110261  0.50126135  1
  Na  Na55  1  -0.00046820  0.49985539  0.75033731  1
  Na  Na56  1  0.00152316  0.83283579  -0.00039070  1
  Na  Na57  1  0.00193367  0.83265061  0.24943745  1
  Na  Na58  1  -0.00179251  0.83363365  0.49980989  1
  Na  Na59  1  -0.00072717  0.83304179  0.75066144  1
  Na  Na60  1  0.49884591  0.16734741  -0.00034818  1
  Na  Na61  1  0.50003224  0.16610637  0.24874246  1
  Na  Na62  1  0.49804471  0.16744886  0.50125968  1
  Na  Na63  1  0.49988833  0.16676423  0.75027832  1
  Na  Na64  1  0.49885722  0.50024038  0.00024633  1
  Na  Na65  1  0.49762312  0.50123203  0.25000955  1
  Na  Na66  1  0.49905141  0.50088705  0.49906503  1
  Na  Na67  1  0.50080754  0.49981464  0.75043055  1
  Na  Na68  1  0.50142265  0.83245025  -0.00141677  1
  Na  Na69  1  0.49998193  0.83334436  0.24961701  1
  Na  Na70  1  0.49785757  0.83420070  0.50107056  1
  Na  Na71  1  0.49793504  0.83427067  0.75107845  1
  Na  Na72  1  0.24924271  0.16691671  0.12481157  1
  Na  Na73  1  0.25129576  0.16593923  0.37451724  1
  Na  Na74  1  0.25139967  0.16636319  0.62454447  1
  Na  Na75  1  0.25157439  0.16604705  0.87626680  1
  Na  Na76  1  0.25102944  0.50025782  0.12531865  1
  Na  Na77  1  0.25121118  0.50062092  0.37521209  1
  Na  Na78  1  0.25019705  0.50001062  0.62568651  1
  Na  Na79  1  0.24815763  0.50103836  0.87383200  1
  Na  Na80  1  0.24662593  0.83435734  0.12406037  1
  Na  Na81  1  0.24943049  0.83335129  0.37602202  1
  Na  Na82  1  0.25070794  0.83300887  0.62535872  1
  Na  Na83  1  0.24946537  0.83280920  0.87482624  1
  Na  Na84  1  0.74752787  0.16785651  0.12395801  1
  Na  Na85  1  0.74992607  0.16607504  0.37516249  1
  Na  Na86  1  0.74895640  0.16705134  0.62549676  1
  Na  Na87  1  0.74918939  0.16708322  0.87553374  1
  Na  Na88  1  0.75309643  0.49946452  0.12443516  1
  Na  Na89  1  0.75140972  0.50038301  0.37396276  1
  Na  Na90  1  0.75160506  0.49994203  0.62588182  1
  Na  Na91  1  0.75190079  0.49958687  0.87547994  1
  Na  Na92  1  0.74966643  0.83381140  0.12465399  1
  Na  Na93  1  0.75127374  0.83299462  0.37425199  1
  Na  Na94  1  0.75255044  0.83263484  0.62508561  1
  Na  Na95  1  0.75177858  0.83328432  0.87604161  1
  Mn  Mn96  1  0.89164231  0.58416615  0.62771624  1
  Mn  Mn97  1  0.35720300  0.08324021  0.25243045  1
  Mn  Mn98  1  0.35824355  0.75033366  0.50293059  1
  Mn  Mn99  1  0.39185426  0.91533924  0.12638011  1
  Mn  Mn100  1  0.39235937  0.25042572  0.12708258  1
  Mn  Mn101  1  0.14252489  0.91713651  0.49875426  1
  Mn  Mn102  1  0.10784897  0.08374573  0.87203177  1
  Mn  Mn103  1  0.89292920  0.91647808  0.37701862  1
  Mn  Mn104  1  0.60856194  0.41763144  0.62305453  1
  Mn  Mn105  1  0.14269001  0.91727248  0.74769637  1
  Mn  Mn106  1  0.85774628  0.08344712  0.00254072  1
  Mn  Mn107  1  0.35843454  0.41644134  0.50265716  1
  Mn  Mn108  1  0.89183967  0.25007557  0.37702295  1
  Mn  Mn109  1  0.35707616  0.75001880  0.25136858  1
  Mn  Mn110  1  0.14260084  0.25057809  0.24795557  1
  Mn  Mn111  1  0.14251684  0.25046423  0.99703630  1
  Mn  Mn112  1  0.60722684  0.08268235  0.62286493  1
  Mn  Mn113  1  0.10765094  0.74982816  0.37289719  1
  Mn  Mn114  1  0.10743691  0.41664617  0.37285258  1
  Mn  Mn115  1  0.89170503  0.24930037  0.62769558  1
  Mn  Mn116  1  0.39129034  0.58270345  0.87751078  1
  Mn  Mn117  1  0.10840728  0.41638897  0.12238745  1
  Mn  Mn118  1  0.60695637  0.08357824  0.87275553  1
  Mn  Mn119  1  0.60773618  0.75062059  0.37327523  1
  Mn  Mn120  1  0.35737688  0.41678941  0.75290735  1
  Mn  Mn121  1  0.89192117  0.24915130  0.12736153  1
  Mn  Mn122  1  0.60707581  0.41817474  0.12272734  1
  Mn  Mn123  1  0.85738017  0.08360287  0.75301290  1
  Mn  Mn124  1  0.60774440  0.08212953  0.12224525  1
  Mn  Mn125  1  0.60748318  0.41645760  0.37264357  1
  Mn  Mn126  1  0.64235985  0.25012300  0.49734777  1
  Mn  Mn127  1  0.85851861  0.75014851  0.25133614  1
  Mn  Mn128  1  0.64160022  0.91684078  0.24781332  1
  Mn  Mn129  1  0.85831081  0.08381853  0.25175292  1
  Mn  Mn130  1  0.14240839  0.24990175  0.49716416  1
  Mn  Mn131  1  0.64325067  0.58396525  0.74824563  1
  Mn  Mn132  1  0.60778558  0.74977490  0.62370461  1
  Mn  Mn133  1  0.39201912  0.25071391  0.62834133  1
  Mn  Mn134  1  0.64213784  0.58309299  0.24722801  1
  Mn  Mn135  1  0.10825554  0.08218078  0.62308680  1
  Mn  Mn136  1  0.64238442  0.91620695  0.49818835  1
  Mn  Mn137  1  0.14218454  0.58299246  0.49775009  1
  Mn  Mn138  1  0.10710707  0.41705922  0.62279044  1
  Mn  Mn139  1  0.85800242  0.41585126  0.25210909  1
  Mn  Mn140  1  0.60820679  0.74939085  0.87233782  1
  Mn  Mn141  1  0.64318959  0.58346165  0.99818770  1
  Mn  Mn142  1  0.60736728  0.08309725  0.37376956  1
  Mn  Mn143  1  0.35628774  0.74969360  0.00242947  1
  Fe  Fe144  1  0.85756026  0.41647920  0.00125116  1
  Fe  Fe145  1  0.10688451  0.41660367  0.87335910  1
  Fe  Fe146  1  0.64280196  0.24994472  0.74913984  1
  Fe  Fe147  1  0.85817579  0.74993763  0.75235501  1
  Fe  Fe148  1  0.89272524  0.91670151  0.87744054  1
  Fe  Fe149  1  0.39276227  0.58372033  0.62698895  1
  Fe  Fe150  1  0.35770981  0.08348148  0.75218987  1
  Fe  Fe151  1  0.39229798  0.91564005  0.62808724  1
  Fe  Fe152  1  0.35733338  0.41716873  0.25191020  1
  Fe  Fe153  1  0.39234234  0.58373706  0.37705110  1
  Fe  Fe154  1  0.89263837  0.58322658  0.37651998  1
  Fe  Fe155  1  0.64364805  0.91643983  0.99808707  1
  Fe  Fe156  1  0.60758965  0.41677004  0.87406064  1
  Fe  Fe157  1  0.10655974  0.75044519  0.62399768  1
  Fe  Fe158  1  0.64156836  0.24994295  0.24884854  1
  Fe  Fe159  1  0.39272924  0.91670229  0.87733382  1
  Fe  Fe160  1  0.14226200  0.91672754  0.99742597  1
  Fe  Fe161  1  0.85833356  0.08314679  0.50156283  1
  Fe  Fe162  1  0.60749669  0.74961446  0.12313545  1
  Fe  Fe163  1  0.10728172  0.75012441  0.12300988  1
  Fe  Fe164  1  0.14200910  0.58330617  0.74810248  1
  Fe  Fe165  1  0.14202432  0.58308731  0.99816453  1
  Fe  Fe166  1  0.35617174  0.74993488  0.75196258  1
  Fe  Fe167  1  0.64331071  0.91633146  0.74861102  1
  Fe  Fe168  1  0.10768132  0.08301986  0.12285757  1
  Fe  Fe169  1  0.85735829  0.41672859  0.75304175  1
  Fe  Fe170  1  0.64317619  0.58367867  0.49829997  1
  Fe  Fe171  1  0.10788502  0.08368776  0.37391170  1
  Fe  Fe172  1  0.85767812  0.74986535  0.50185611  1
  Fe  Fe173  1  0.35756233  0.08354599  0.50125162  1
  Fe  Fe174  1  0.85705240  0.41682257  0.50129786  1
  Fe  Fe175  1  0.35703549  0.41704056  0.00079203  1
  Fe  Fe176  1  0.39157299  0.58445177  0.12629432  1
  Fe  Fe177  1  0.89410556  0.91658980  0.12639529  1
  Fe  Fe178  1  0.35676959  0.08320189  0.00170621  1
  Fe  Fe179  1  0.64246725  0.25003252  0.99747741  1
  Fe  Fe180  1  0.39130050  0.91686196  0.37642207  1
  Fe  Fe181  1  0.89249572  0.25006904  0.87627587  1
  Fe  Fe182  1  0.14226832  0.91625074  0.24813502  1
  Fe  Fe183  1  0.39267523  0.25018000  0.87673653  1
  Fe  Fe184  1  0.89229462  0.91645141  0.62669384  1
  Fe  Fe185  1  0.10614483  0.74982908  0.87275849  1
  Fe  Fe186  1  0.39266281  0.24961252  0.37644270  1
  Fe  Fe187  1  0.89368955  0.58308188  0.87697948  1
  Fe  Fe188  1  0.14265667  0.58326365  0.24855073  1
  Fe  Fe189  1  0.89412104  0.58385647  0.12641618  1
  Fe  Fe190  1  0.85837515  0.75003516  0.00246243  1
  Fe  Fe191  1  0.14292192  0.24987694  0.74926991  1
  P  P192  1  0.05364071  0.24938210  0.10958290  1
  P  P193  1  0.05288833  0.24971551  0.36009182  1
  P  P194  1  0.05474175  0.24958832  0.61128732  1
  P  P195  1  0.05245899  0.25098562  0.85918667  1
  P  P196  1  0.05472174  0.58358254  0.11035733  1
  P  P197  1  0.05240362  0.58306444  0.35937463  1
  P  P198  1  0.05429669  0.58447970  0.61165536  1
  P  P199  1  0.05411026  0.58303339  0.86100888  1
  P  P200  1  0.05475661  0.91666104  0.11039037  1
  P  P201  1  0.05443007  0.91731893  0.35983837  1
  P  P202  1  0.05203492  0.91551166  0.61056802  1
  P  P203  1  0.05323369  0.91610045  0.86104385  1
  P  P204  1  0.55535150  0.25007276  0.11012806  1
  P  P205  1  0.55203281  0.24966493  0.35937972  1
  P  P206  1  0.55476671  0.25025967  0.61141022  1
  P  P207  1  0.55389295  0.25095918  0.86099099  1
  P  P208  1  0.55161351  0.58456494  0.10967178  1
  P  P209  1  0.55338202  0.58353638  0.36113730  1
  P  P210  1  0.55304489  0.58372181  0.60954007  1
  P  P211  1  0.55348883  0.58223794  0.86036286  1
  P  P212  1  0.55388330  0.91535547  0.10848646  1
  P  P213  1  0.55119546  0.91703529  0.36046079  1
  P  P214  1  0.55306676  0.91605433  0.61179418  1
  P  P215  1  0.55420467  0.91658357  0.86051015  1
  P  P216  1  0.44502907  0.08266042  0.13827216  1
  P  P217  1  0.44579447  0.08337154  0.39046603  1
  P  P218  1  0.44447603  0.08269760  0.64013316  1
  P  P219  1  0.44412151  0.08352168  0.88925278  1
  P  P220  1  0.44399203  0.41835940  0.13902238  1
  P  P221  1  0.44518224  0.41647891  0.38848246  1
  P  P222  1  0.44692455  0.41793481  0.64060985  1
  P  P223  1  0.44714619  0.41559763  0.89068138  1
  P  P224  1  0.44756324  0.74930742  0.13943303  1
  P  P225  1  0.44592922  0.75039978  0.39005607  1
  P  P226  1  0.44582631  0.74946109  0.64107995  1
  P  P227  1  0.44479658  0.75049291  0.88881809  1
  P  P228  1  0.94830329  0.08230598  0.13970328  1
  P  P229  1  0.94793173  0.08342581  0.39052136  1
  P  P230  1  0.94543556  0.08221470  0.63937203  1
  P  P231  1  0.94659058  0.08361478  0.88996575  1
  P  P232  1  0.94568732  0.41704514  0.13825102  1
  P  P233  1  0.94611242  0.41754023  0.39078597  1
  P  P234  1  0.94388994  0.41694475  0.63998604  1
  P  P235  1  0.94602431  0.41643618  0.88904369  1
  P  P236  1  0.94726899  0.75028925  0.13808546  1
  P  P237  1  0.94621526  0.74884538  0.39020739  1
  P  P238  1  0.94560620  0.75075831  0.63989433  1
  P  P239  1  0.94580806  0.74980126  0.88946952  1
  P  P240  1  0.19464449  0.08259453  0.23554350  1
  P  P241  1  0.19771789  0.08307493  0.48456950  1
  P  P242  1  0.19841354  0.08412914  0.73536283  1
  P  P243  1  0.19625033  0.08254614  0.98586872  1
  P  P244  1  0.19809964  0.41758679  0.23521366  1
  P  P245  1  0.19700008  0.41684025  0.48488837  1
  P  P246  1  0.19468404  0.41641051  0.73650615  1
  P  P247  1  0.19709465  0.41783437  0.98411734  1
  P  P248  1  0.19543895  0.74981629  0.23462594  1
  P  P249  1  0.19568548  0.75024239  0.48645772  1
  P  P250  1  0.19504667  0.74968011  0.73579121  1
  P  P251  1  0.19346215  0.74985045  0.98534601  1
  P  P252  1  0.69642764  0.08382094  0.23482383  1
  P  P253  1  0.69837330  0.08253386  0.48538724  1
  P  P254  1  0.69610659  0.08282089  0.73556499  1
  P  P255  1  0.69640094  0.08254591  0.98484103  1
  P  P256  1  0.69644659  0.41627087  0.23458460  1
  P  P257  1  0.69785408  0.41807192  0.48511997  1
  P  P258  1  0.69694551  0.41637167  0.73700974  1
  P  P259  1  0.69711987  0.41682487  0.98473756  1
  P  P260  1  0.69614115  0.74980600  0.23384307  1
  P  P261  1  0.69818586  0.74942508  0.48518733  1
  P  P262  1  0.69880382  0.75081417  0.73554321  1
  P  P263  1  0.69719282  0.75045944  0.98638077  1
  P  P264  1  0.30483926  0.25030624  0.01341550  1
  P  P265  1  0.30409517  0.25083857  0.26528095  1
  P  P266  1  0.30482123  0.24919331  0.51400937  1
  P  P267  1  0.30282003  0.24951000  0.76606738  1
  P  P268  1  0.30186359  0.58290639  0.01503028  1
  P  P269  1  0.30370869  0.58351271  0.26433613  1
  P  P270  1  0.30522704  0.58357953  0.51533440  1
  P  P271  1  0.30266726  0.58442382  0.76384913  1
  P  P272  1  0.30268277  0.91690329  0.01360096  1
  P  P273  1  0.30188947  0.91600591  0.26501514  1
  P  P274  1  0.30543438  0.91748390  0.51493092  1
  P  P275  1  0.30519318  0.91617252  0.76473774  1
  P  P276  1  0.80341900  0.25077732  0.01348168  1
  P  P277  1  0.80140321  0.24971484  0.26483591  1
  P  P278  1  0.80350341  0.24999559  0.51511458  1
  P  P279  1  0.80261467  0.25054026  0.76586177  1
  P  P280  1  0.80662680  0.58326020  0.01409422  1
  P  P281  1  0.80561454  0.58354377  0.26385529  1
  P  P282  1  0.80376275  0.58350554  0.51365028  1
  P  P283  1  0.80469573  0.58382455  0.76624572  1
  P  P284  1  0.80511494  0.91585446  0.01471232  1
  P  P285  1  0.80487876  0.91664158  0.26340725  1
  P  P286  1  0.80452438  0.91642564  0.51528510  1
  P  P287  1  0.80455283  0.91570666  0.76489862  1
  O  O288  1  0.05705366  0.25037346  0.18631484  1
  O  O289  1  0.05562750  0.25049518  0.43690337  1
  O  O290  1  0.05948773  0.24945165  0.68806587  1
  O  O291  1  0.05649719  0.25035459  0.93588562  1
  O  O292  1  0.05931548  0.58268686  0.18702968  1
  O  O293  1  0.05620510  0.58304651  0.43617628  1
  O  O294  1  0.05838483  0.58356980  0.68840197  1
  O  O295  1  0.05830832  0.58268441  0.93772629  1
  O  O296  1  0.05879284  0.91654643  0.18710554  1
  O  O297  1  0.05707166  0.91658850  0.43665277  1
  O  O298  1  0.05604437  0.91633727  0.68722825  1
  O  O299  1  0.05820662  0.91699666  0.93767304  1
  O  O300  1  0.55920428  0.24994033  0.18689006  1
  O  O301  1  0.55606461  0.25000142  0.43617102  1
  O  O302  1  0.55960081  0.25020646  0.68817935  1
  O  O303  1  0.55870384  0.25021686  0.93773245  1
  O  O304  1  0.55537248  0.58379071  0.18640286  1
  O  O305  1  0.55900274  0.58344338  0.43770987  1
  O  O306  1  0.55745761  0.58357001  0.68630294  1
  O  O307  1  0.55713028  0.58321797  0.93702462  1
  O  O308  1  0.55647062  0.91653393  0.18541636  1
  O  O309  1  0.55537511  0.91687393  0.43708696  1
  O  O310  1  0.55889024  0.91611248  0.68842287  1
  O  O311  1  0.55975089  0.91626262  0.93708493  1
  O  O312  1  0.44059279  0.08271855  0.06153051  1
  O  O313  1  0.44336310  0.08326461  0.31354890  1
  O  O314  1  0.44069223  0.08357668  0.56340611  1
  O  O315  1  0.44068164  0.08366273  0.81241928  1
  O  O316  1  0.43999850  0.41745820  0.06229015  1
  O  O317  1  0.44148002  0.41678161  0.31167624  1
  O  O318  1  0.44391866  0.41703103  0.56384375  1
  O  O319  1  0.44337280  0.41633408  0.81395298  1
  O  O320  1  0.44337978  0.74990595  0.06279305  1
  O  O321  1  0.44306750  0.75024306  0.31307101  1
  O  O322  1  0.44351183  0.74980481  0.56483007  1
  O  O323  1  0.44012893  0.74967183  0.81212098  1
  O  O324  1  0.94404545  0.08314905  0.06303959  1
  O  O325  1  0.94421979  0.08352293  0.31379827  1
  O  O326  1  0.94142625  0.08321264  0.56260173  1
  O  O327  1  0.94344852  0.08347144  0.81319879  1
  O  O328  1  0.94153266  0.41611155  0.06151976  1
  O  O329  1  0.94363771  0.41651712  0.31392557  1
  O  O330  1  0.93949612  0.41706095  0.56321298  1
  O  O331  1  0.94158787  0.41627593  0.81230240  1
  O  O332  1  0.94297747  0.75033828  0.06139302  1
  O  O333  1  0.94381412  0.74971386  0.31341224  1
  O  O334  1  0.94115307  0.74973276  0.56319675  1
  O  O335  1  0.94160203  0.75000605  0.81272804  1
  O  O336  1  0.19140975  0.08298453  0.06255749  1
  O  O337  1  0.19089033  0.08344081  0.31230299  1
  O  O338  1  0.19393987  0.08297937  0.56134161  1
  O  O339  1  0.19435922  0.08321371  0.81204102  1
  O  O340  1  0.19392673  0.41709431  0.06090117  1
  O  O341  1  0.19428690  0.41712969  0.31183535  1
  O  O342  1  0.19313489  0.41693435  0.56166559  1
  O  O343  1  0.19050001  0.41670581  0.81323036  1
  O  O344  1  0.18978027  0.75001254  0.06217591  1
  O  O345  1  0.19331658  0.74957882  0.31142869  1
  O  O346  1  0.19097485  0.75043457  0.56342546  1
  O  O347  1  0.19001645  0.75024900  0.81248484  1
  O  O348  1  0.69368549  0.08251483  0.06151618  1
  O  O349  1  0.69348067  0.08282987  0.31162198  1
  O  O350  1  0.69401260  0.08236616  0.56202816  1
  O  O351  1  0.69310155  0.08261781  0.81240630  1
  O  O352  1  0.69314300  0.41767550  0.06139049  1
  O  O353  1  0.69330071  0.41731811  0.31138749  1
  O  O354  1  0.69459663  0.41787087  0.56186773  1
  O  O355  1  0.69191013  0.41687852  0.81361903  1
  O  O356  1  0.69191714  0.74951990  0.06294244  1
  O  O357  1  0.69282446  0.74975672  0.31065533  1
  O  O358  1  0.69417548  0.74991120  0.56186046  1
  O  O359  1  0.69487380  0.75038523  0.81222784  1
  O  O360  1  0.30681329  0.24993961  0.18832035  1
  O  O361  1  0.30895223  0.24996914  0.43733119  1
  O  O362  1  0.30612065  0.25035236  0.68926288  1
  O  O363  1  0.30862097  0.25042434  0.93675897  1
  O  O364  1  0.30802742  0.58457155  0.18761045  1
  O  O365  1  0.30953775  0.58371181  0.43843220  1
  O  O366  1  0.30786434  0.58380106  0.68730019  1
  O  O367  1  0.30542428  0.58386388  0.93830365  1
  O  O368  1  0.30576079  0.91596916  0.18829674  1
  O  O369  1  0.30868041  0.91641760  0.43806718  1
  O  O370  1  0.30876532  0.91591196  0.68788505  1
  O  O371  1  0.30788487  0.91617546  0.93701070  1
  O  O372  1  0.80537035  0.24957897  0.18811820  1
  O  O373  1  0.80614982  0.24979544  0.43824355  1
  O  O374  1  0.80617421  0.24987918  0.68941083  1
  O  O375  1  0.80877981  0.25000963  0.93685663  1
  O  O376  1  0.81042202  0.58384026  0.18711506  1
  O  O377  1  0.80800692  0.58357129  0.43699567  1
  O  O378  1  0.80662614  0.58401594  0.68937743  1
  O  O379  1  0.81051138  0.58344310  0.93731899  1
  O  O380  1  0.80979923  0.91654184  0.18672893  1
  O  O381  1  0.80731514  0.91653506  0.43845776  1
  O  O382  1  0.80904900  0.91620435  0.68823234  1
  O  O383  1  0.80981388  0.91648448  0.93793417  1
  O  O384  1  0.23494208  0.25060036  0.03815538  1
  O  O385  1  0.23446374  0.25016159  0.29042422  1
  O  O386  1  0.23492182  0.24946195  0.53852291  1
  O  O387  1  0.23281322  0.24996640  0.79086379  1
  O  O388  1  0.23172240  0.58312048  0.03932552  1
  O  O389  1  0.23337313  0.58387806  0.28833830  1
  O  O390  1  0.23501061  0.58329943  0.53900568  1
  O  O391  1  0.23219929  0.58379461  0.78730418  1
  O  O392  1  0.23225372  0.91663319  0.03697371  1
  O  O393  1  0.23180625  0.91603739  0.28934310  1
  O  O394  1  0.23548485  0.91708664  0.53978634  1
  O  O395  1  0.23513115  0.91662947  0.78905845  1
  O  O396  1  0.73283597  0.25045011  0.03643689  1
  O  O397  1  0.73149687  0.24995338  0.28964999  1
  O  O398  1  0.73394081  0.25052211  0.54076565  1
  O  O399  1  0.73243488  0.25007766  0.79036440  1
  O  O400  1  0.73655123  0.58322183  0.03836545  1
  O  O401  1  0.73540462  0.58355100  0.28735556  1
  O  O402  1  0.73373638  0.58361649  0.53851357  1
  O  O403  1  0.73522817  0.58399428  0.79213680  1
  O  O404  1  0.73465284  0.91632339  0.03795699  1
  O  O405  1  0.73476920  0.91634745  0.28739643  1
  O  O406  1  0.73488797  0.91623415  0.54074932  1
  O  O407  1  0.73419505  0.91623929  0.78871609  1
  O  O408  1  0.26468353  0.08340246  0.21115880  1
  O  O409  1  0.26771935  0.08281344  0.46015350  1
  O  O410  1  0.26851146  0.08350377  0.71110976  1
  O  O411  1  0.26663416  0.08304838  0.96236976  1
  O  O412  1  0.26810578  0.41734942  0.21053578  1
  O  O413  1  0.26679589  0.41720498  0.46050483  1
  O  O414  1  0.26471447  0.41645388  0.71218909  1
  O  O415  1  0.26713970  0.41749564  0.95942831  1
  O  O416  1  0.26487571  0.75007734  0.20855271  1
  O  O417  1  0.26545357  0.75008192  0.46266178  1
  O  O418  1  0.26550667  0.75017940  0.71247620  1
  O  O419  1  0.26351310  0.74951717  0.96113457  1
  O  O420  1  0.76594524  0.08367455  0.20906068  1
  O  O421  1  0.76848209  0.08268540  0.46102450  1
  O  O422  1  0.76580253  0.08342351  0.71057633  1
  O  O423  1  0.76602415  0.08289927  0.95940068  1
  O  O424  1  0.76608373  0.41619633  0.20938574  1
  O  O425  1  0.76776580  0.41708280  0.46013782  1
  O  O426  1  0.76738497  0.41697884  0.71353201  1
  O  O427  1  0.76741129  0.41693118  0.96079003  1
  O  O428  1  0.76599648  0.75002313  0.20927110  1
  O  O429  1  0.76824344  0.74999554  0.46061936  1
  O  O430  1  0.76886249  0.74998564  0.71117125  1
  O  O431  1  0.76776405  0.75026664  0.96328998  1
  O  O432  1  0.01840377  0.08254412  0.16385893  1
  O  O433  1  0.01799407  0.08326976  0.41515636  1
  O  O434  1  0.01539545  0.08217634  0.66390460  1
  O  O435  1  0.01629630  0.08346065  0.91506151  1
  O  O436  1  0.01568713  0.41699777  0.16258968  1
  O  O437  1  0.01551739  0.41703842  0.41676422  1
  O  O438  1  0.01412753  0.41701228  0.66346118  1
  O  O439  1  0.01643866  0.41687412  0.91288390  1
  O  O440  1  0.01752897  0.74999808  0.16217115  1
  O  O441  1  0.01583195  0.74976031  0.41565418  1
  O  O442  1  0.01581022  0.75002658  0.66408305  1
  O  O443  1  0.01627888  0.74960086  0.91301381  1
  O  O444  1  0.51501341  0.08260544  0.16223689  1
  O  O445  1  0.51518657  0.08323448  0.41666533  1
  O  O446  1  0.51447843  0.08291118  0.66453834  1
  O  O447  1  0.51419879  0.08349424  0.91354988  1
  O  O448  1  0.51403235  0.41758957  0.16320995  1
  O  O449  1  0.51498857  0.41685045  0.41350958  1
  O  O450  1  0.51654829  0.41722507  0.66579960  1
  O  O451  1  0.51715462  0.41656619  0.91532094  1
  O  O452  1  0.51743672  0.74973033  0.16427560  1
  O  O453  1  0.51549755  0.75046100  0.41566431  1
  O  O454  1  0.51550300  0.74981031  0.66711477  1
  O  O455  1  0.51503335  0.74996914  0.91233513  1
  O  O456  1  0.48508371  0.25027096  0.08639442  1
  O  O457  1  0.48202000  0.24955091  0.33488965  1
  O  O458  1  0.48454777  0.25044138  0.58798282  1
  O  O459  1  0.48349099  0.24994347  0.83742090  1
  O  O460  1  0.48163814  0.58409572  0.08487961  1
  O  O461  1  0.48281164  0.58368411  0.33805540  1
  O  O462  1  0.48283574  0.58390853  0.58573346  1
  O  O463  1  0.48359262  0.58251587  0.83584903  1
  O  O464  1  0.48421839  0.91582752  0.08322878  1
  O  O465  1  0.48117115  0.91686370  0.33576534  1
  O  O466  1  0.48242999  0.91592556  0.58928742  1
  O  O467  1  0.48349604  0.91693540  0.83801080  1
  O  O468  1  0.98390966  0.24973204  0.08461235  1
  O  O469  1  0.98342646  0.24962982  0.33423466  1
  O  O470  1  0.98464463  0.24979878  0.58781646  1
  O  O471  1  0.98227324  0.25033744  0.83494926  1
  O  O472  1  0.98434077  0.58348407  0.08668857  1
  O  O473  1  0.98240480  0.58346902  0.33488238  1
  O  O474  1  0.98426200  0.58425931  0.58765035  1
  O  O475  1  0.98363331  0.58319703  0.83731874  1
  O  O476  1  0.98445773  0.91632580  0.08621625  1
  O  O477  1  0.98479047  0.91630312  0.33449172  1
  O  O478  1  0.98215944  0.91616635  0.58586091  1
  O  O479  1  0.98275807  0.91600294  0.83773830  1
  O  O480  1  0.08779494  0.31434941  0.07681084  1
  O  O481  1  0.08697750  0.31478241  0.32745623  1
  O  O482  1  0.08807151  0.31465940  0.57805454  1
  O  O483  1  0.08610685  0.31618788  0.82673263  1
  O  O484  1  0.08797603  0.64868368  0.07726076  1
  O  O485  1  0.08674057  0.64790794  0.32677035  1
  O  O486  1  0.08765031  0.64978193  0.57896787  1
  O  O487  1  0.08737257  0.64822714  0.82783619  1
  O  O488  1  0.08806679  0.98179375  0.07707203  1
  O  O489  1  0.08817758  0.98270271  0.32785326  1
  O  O490  1  0.08636362  0.98028530  0.57771747  1
  O  O491  1  0.08631827  0.98103140  0.82719808  1
  O  O492  1  0.58885074  0.31518616  0.07712859  1
  O  O493  1  0.58595819  0.31460883  0.32644942  1
  O  O494  1  0.58804939  0.31533174  0.57815471  1
  O  O495  1  0.58694298  0.31631884  0.82806117  1
  O  O496  1  0.58561075  0.64956828  0.07711164  1
  O  O497  1  0.58651496  0.64857804  0.32769129  1
  O  O498  1  0.58692824  0.64878354  0.57682047  1
  O  O499  1  0.58745210  0.64714819  0.82729438  1
  O  O500  1  0.58850914  0.98004022  0.07581444  1
  O  O501  1  0.58490790  0.98210849  0.32757789  1
  O  O502  1  0.58573133  0.98105820  0.57779158  1
  O  O503  1  0.58723530  0.98165397  0.82690563  1
  O  O504  1  0.41142550  0.01768351  0.17135581  1
  O  O505  1  0.41104687  0.01841103  0.42239702  1
  O  O506  1  0.41074679  0.01754511  0.67280499  1
  O  O507  1  0.41039414  0.01834137  0.92205706  1
  O  O508  1  0.41001655  0.35354606  0.17235886  1
  O  O509  1  0.41191368  0.35103369  0.42118828  1
  O  O510  1  0.41238104  0.35319423  0.67329711  1
  O  O511  1  0.41355817  0.35034164  0.92315688  1
  O  O512  1  0.41361081  0.68425494  0.17202384  1
  O  O513  1  0.41183291  0.68527588  0.42223706  1
  O  O514  1  0.41160676  0.68410863  0.67341875  1
  O  O515  1  0.41117967  0.68565235  0.92225850  1
  O  O516  1  0.91483682  0.01708945  0.17226344  1
  O  O517  1  0.91389055  0.01836668  0.42305714  1
  O  O518  1  0.91174343  0.01698243  0.67181607  1
  O  O519  1  0.91253593  0.01849907  0.92232746  1
  O  O520  1  0.91217712  0.35211361  0.17170623  1
  O  O521  1  0.91118526  0.35284166  0.42314681  1
  O  O522  1  0.91044281  0.35205023  0.67328364  1
  O  O523  1  0.91274141  0.35133567  0.92236822  1
  O  O524  1  0.91383723  0.68524266  0.17114829  1
  O  O525  1  0.91243702  0.68349064  0.42239568  1
  O  O526  1  0.91171552  0.68607365  0.67349371  1
  O  O527  1  0.91257463  0.68467250  0.92265322  1
  O  O528  1  0.16150610  0.01705949  0.20287728  1
  O  O529  1  0.16352457  0.01815982  0.45204292  1
  O  O530  1  0.16456762  0.01916321  0.70223478  1
  O  O531  1  0.16323796  0.01753258  0.95232305  1
  O  O532  1  0.16435233  0.35258238  0.20213318  1
  O  O533  1  0.16341146  0.35168641  0.45222331  1
  O  O534  1  0.16143061  0.35098492  0.70383388  1
  O  O535  1  0.16278394  0.35302711  0.95130525  1
  O  O536  1  0.16101118  0.68474488  0.20243359  1
  O  O537  1  0.16206067  0.68526355  0.45333599  1
  O  O538  1  0.16174713  0.68463144  0.70259404  1
  O  O539  1  0.15967575  0.68473202  0.95260012  1
  O  O540  1  0.66217236  0.01873039  0.20228947  1
  O  O541  1  0.66467230  0.01755155  0.45238184  1
  O  O542  1  0.66262906  0.01740126  0.70305205  1
  O  O543  1  0.66255184  0.01723437  0.95257961  1
  O  O544  1  0.66206926  0.35118316  0.20290962  1
  O  O545  1  0.66338452  0.35312114  0.45275270  1
  O  O546  1  0.66399856  0.35119755  0.70369860  1
  O  O547  1  0.66316602  0.35186881  0.95199886  1
  O  O548  1  0.66220553  0.68477293  0.20106695  1
  O  O549  1  0.66460501  0.68427158  0.45246737  1
  O  O550  1  0.66476572  0.68584223  0.70278554  1
  O  O551  1  0.66415407  0.68551892  0.95242368  1
  O  O552  1  0.33852959  0.31557298  0.04602092  1
  O  O553  1  0.33803510  0.31611829  0.29713253  1
  O  O554  1  0.33847549  0.31404677  0.54759741  1
  O  O555  1  0.33724232  0.31430849  0.79880577  1
  O  O556  1  0.33563256  0.64780058  0.04841466  1
  O  O557  1  0.33734031  0.64831606  0.29792636  1
  O  O558  1  0.33860642  0.64840645  0.54853590  1
  O  O559  1  0.33537225  0.64956156  0.79748860  1
  O  O560  1  0.33588726  0.98187372  0.04691496  1
  O  O561  1  0.33586777  0.98097915  0.29780555  1
  O  O562  1  0.33909941  0.98287304  0.54706660  1
  O  O563  1  0.33920041  0.98116028  0.79738488  1
  O  O564  1  0.83633165  0.31595444  0.04672634  1
  O  O565  1  0.83549294  0.31468719  0.29737775  1
  O  O566  1  0.83786333  0.31509197  0.54706137  1
  O  O567  1  0.83651877  0.31554673  0.79868223  1
  O  O568  1  0.84030279  0.64834788  0.04717151  1
  O  O569  1  0.83913256  0.64842622  0.29724232  1
  O  O570  1  0.83748078  0.64859125  0.54678670  1
  O  O571  1  0.83946054  0.64871289  0.79821189  1
  O  O572  1  0.83865084  0.98074904  0.04817655  1
  O  O573  1  0.83817238  0.98173143  0.29660888  1
  O  O574  1  0.83881912  0.98139888  0.54776126  1
  O  O575  1  0.83820760  0.98058871  0.79839533  1
  O  O576  1  0.41164352  0.14780359  0.17139568  1
  O  O577  1  0.41147053  0.14858010  0.42251140  1
  O  O578  1  0.41072760  0.14760899  0.67358774  1
  O  O579  1  0.41051702  0.14857955  0.92217489  1
  O  O580  1  0.41068069  0.48373883  0.17166074  1
  O  O581  1  0.41121152  0.48148021  0.42122977  1
  O  O582  1  0.41305990  0.48330003  0.67270473  1
  O  O583  1  0.41240169  0.48028934  0.92336383  1
  O  O584  1  0.41350511  0.81426889  0.17229528  1
  O  O585  1  0.41171829  0.81547378  0.42205771  1
  O  O586  1  0.41095444  0.81423369  0.67366942  1
  O  O587  1  0.41176134  0.81580166  0.92193849  1
  O  O588  1  0.91459097  0.14732755  0.17279186  1
  O  O589  1  0.91383231  0.14828536  0.42334275  1
  O  O590  1  0.91184481  0.14710101  0.67268509  1
  O  O591  1  0.91270692  0.14893382  0.92218243  1
  O  O592  1  0.91225092  0.48235697  0.17076514  1
  O  O593  1  0.91198400  0.48303130  0.42245398  1
  O  O594  1  0.91051390  0.48201977  0.67324246  1
  O  O595  1  0.91252677  0.48145802  0.92217770  1
  O  O596  1  0.91419648  0.81537645  0.17143027  1
  O  O597  1  0.91137434  0.81347048  0.42273902  1
  O  O598  1  0.91246564  0.81605354  0.67281329  1
  O  O599  1  0.91253822  0.81478027  0.92295575  1
  O  O600  1  0.08756677  0.18413919  0.07739629  1
  O  O601  1  0.08748028  0.18461379  0.32853149  1
  O  O602  1  0.08802392  0.18441609  0.57814767  1
  O  O603  1  0.08673473  0.18615294  0.82625488  1
  O  O604  1  0.08805517  0.51873725  0.07648607  1
  O  O605  1  0.08616645  0.51803114  0.32646121  1
  O  O606  1  0.08769761  0.51959063  0.57812346  1
  O  O607  1  0.08740738  0.51810941  0.82754606  1
  O  O608  1  0.08838228  0.85171710  0.07718236  1
  O  O609  1  0.08914965  0.85265245  0.32715990  1
  O  O610  1  0.08558439  0.85021275  0.57805379  1
  O  O611  1  0.08639190  0.85094523  0.82799938  1
  O  O612  1  0.58874822  0.18514248  0.07674264  1
  O  O613  1  0.58600601  0.18457157  0.32693845  1
  O  O614  1  0.58776199  0.18507558  0.57804196  1
  O  O615  1  0.58767271  0.18623084  0.82737808  1
  O  O616  1  0.58574066  0.51962425  0.07694166  1
  O  O617  1  0.58618926  0.51848907  0.32722543  1
  O  O618  1  0.58675030  0.51873750  0.57646050  1
  O  O619  1  0.58724290  0.51693803  0.82816844  1
  O  O620  1  0.58805662  0.85001438  0.07675941  1
  O  O621  1  0.58529293  0.85212746  0.32764505  1
  O  O622  1  0.58597264  0.85101279  0.57808943  1
  O  O623  1  0.58724676  0.85163788  0.82661950  1
  O  O624  1  0.33825158  0.18511295  0.04644080  1
  O  O625  1  0.33870037  0.18606048  0.29772213  1
  O  O626  1  0.33829706  0.18387446  0.54660463  1
  O  O627  1  0.33683701  0.18442569  0.79829380  1
  O  O628  1  0.33593310  0.51786142  0.04717971  1
  O  O629  1  0.33722943  0.51834194  0.29716222  1
  O  O630  1  0.33895293  0.51862158  0.54844250  1
  O  O631  1  0.33598625  0.51947358  0.79754321  1
  O  O632  1  0.33555740  0.85173873  0.04738481  1
  O  O633  1  0.33574095  0.85109456  0.29788948  1
  O  O634  1  0.33945124  0.85290241  0.54830806  1
  O  O635  1  0.33851668  0.85096375  0.79779362  1
  O  O636  1  0.83633665  0.18576879  0.04744140  1
  O  O637  1  0.83537184  0.18475194  0.29750988  1
  O  O638  1  0.83743496  0.18470559  0.54735308  1
  O  O639  1  0.83669605  0.18568438  0.79898931  1
  O  O640  1  0.84027205  0.51809776  0.04676082  1
  O  O641  1  0.83909585  0.51855877  0.29710676  1
  O  O642  1  0.83732427  0.51850991  0.54682277  1
  O  O643  1  0.83918012  0.51868049  0.79814560  1
  O  O644  1  0.83846339  0.85076105  0.04783158  1
  O  O645  1  0.83841104  0.85164566  0.29654921  1
  O  O646  1  0.83891058  0.85128544  0.54748960  1
  O  O647  1  0.83792089  0.85063366  0.79811328  1
  O  O648  1  0.16052140  0.14723194  0.20214826  1
  O  O649  1  0.16383154  0.14799189  0.45166255  1
  O  O650  1  0.16490018  0.14937105  0.70300842  1
  O  O651  1  0.16303153  0.14763306  0.95244216  1
  O  O652  1  0.16433799  0.48268673  0.20256250  1
  O  O653  1  0.16300021  0.48179345  0.45218707  1
  O  O654  1  0.16115359  0.48150641  0.70337904  1
  O  O655  1  0.16298628  0.48287011  0.95181865  1
  O  O656  1  0.16078102  0.81483068  0.20257848  1
  O  O657  1  0.16224807  0.81533066  0.45346997  1
  O  O658  1  0.16168188  0.81464898  0.70214431  1
  O  O659  1  0.15996038  0.81494871  0.95220944  1
  O  O660  1  0.66208059  0.14894223  0.20302856  1
  O  O661  1  0.66446475  0.14765540  0.45278224  1
  O  O662  1  0.66178041  0.14793601  0.70365242  1
  O  O663  1  0.66192637  0.14756430  0.95266928  1
  O  O664  1  0.66260551  0.48141170  0.20171928  1
  O  O665  1  0.66433966  0.48320836  0.45239374  1
  O  O666  1  0.66381747  0.48145167  0.70333806  1
  O  O667  1  0.66348031  0.48178812  0.95153602  1
  O  O668  1  0.66176110  0.81473721  0.20148828  1
  O  O669  1  0.66423200  0.81444823  0.45231507  1
  O  O670  1  0.66525933  0.81592158  0.70270903  1
  O  O671  1  0.66418188  0.81562586  0.95300337  1
