# generated using pymatgen
data_Na2MnFe(PO4)2
_symmetry_space_group_name_H-M   'P 1'
_cell_length_a   21.09453922
_cell_length_b   18.94821259
_cell_length_c   20.05240250
_cell_angle_alpha   90.00046482
_cell_angle_beta   90.00246819
_cell_angle_gamma   90.00250725
_symmetry_Int_Tables_number   1
_chemical_formula_structural   Na2MnFe(PO4)2
_chemical_formula_sum   'Na96 Mn48 Fe48 P96 O384'
_cell_volume   8015.02173925
_cell_formula_units_Z   48
loop_
 _symmetry_equiv_pos_site_id
 _symmetry_equiv_pos_as_xyz
  1  'x, y, z'
loop_
 _atom_site_type_symbol
 _atom_site_label
 _atom_site_symmetry_multiplicity
 _atom_site_fract_x
 _atom_site_fract_y
 _atom_site_fract_z
 _atom_site_occupancy
  Na  Na0  1  -0.00321535  -0.00101748  -0.00035702  1
  Na  Na1  1  0.00028102  -0.00008130  0.24957022  1
  Na  Na2  1  0.00059888  -0.00061967  0.50093886  1
  Na  Na3  1  -0.00118525  -0.00015573  0.74978993  1
  Na  Na4  1  -0.00156434  0.33281892  -0.00001204  1
  Na  Na5  1  -0.00205107  0.33258248  0.25046177  1
  Na  Na6  1  0.00041483  0.33315910  0.49885453  1
  Na  Na7  1  -0.00100584  0.33244722  0.75058173  1
  Na  Na8  1  -0.00215128  0.66651980  0.00083657  1
  Na  Na9  1  0.00040960  0.66754610  0.24938932  1
  Na  Na10  1  0.00105422  0.66764143  0.49926969  1
  Na  Na11  1  -0.00053286  0.66734582  0.74974322  1
  Na  Na12  1  0.49902425  -0.00040560  -0.00074409  1
  Na  Na13  1  0.49850988  -0.00069528  0.25007214  1
  Na  Na14  1  0.49827002  -0.00021186  0.50028708  1
  Na  Na15  1  0.50041863  0.00115171  0.74908851  1
  Na  Na16  1  0.50222379  0.33354259  -0.00013901  1
  Na  Na17  1  0.49830156  0.33268868  0.25119972  1
  Na  Na18  1  0.49964422  0.33316811  0.49997035  1
  Na  Na19  1  0.50119628  0.33269052  0.74977787  1
  Na  Na20  1  0.50147846  0.66706836  -0.00028212  1
  Na  Na21  1  0.50287583  0.66734066  0.25062707  1
  Na  Na22  1  0.50173588  0.66713845  0.50098076  1
  Na  Na23  1  0.49982760  0.66653002  0.74991506  1
  Na  Na24  1  0.25124577  -0.00025694  0.12444972  1
  Na  Na25  1  0.25051118  -0.00044593  0.37472041  1
  Na  Na26  1  0.24952987  -0.00041712  0.62448270  1
  Na  Na27  1  0.25065394  -0.00021120  0.87591783  1
  Na  Na28  1  0.24947486  0.33299560  0.12423862  1
  Na  Na29  1  0.25185644  0.33381944  0.37567536  1
  Na  Na30  1  0.25042892  0.33250778  0.62542577  1
  Na  Na31  1  0.25133223  0.33339170  0.87474059  1
  Na  Na32  1  0.24817389  0.66645702  0.12565812  1
  Na  Na33  1  0.24689121  0.66577332  0.37548201  1
  Na  Na34  1  0.24992079  0.66740713  0.62458701  1
  Na  Na35  1  0.25058142  0.66743654  0.87509674  1
  Na  Na36  1  0.75217091  0.00073735  0.12489697  1
  Na  Na37  1  0.75095414  -0.00008058  0.37573063  1
  Na  Na38  1  0.74992465  0.00011039  0.62439256  1
  Na  Na39  1  0.75213249  0.00130046  0.87465202  1
  Na  Na40  1  0.75081211  0.33278153  0.12515471  1
  Na  Na41  1  0.75198312  0.33404043  0.37544404  1
  Na  Na42  1  0.74867549  0.33189619  0.62464241  1
  Na  Na43  1  0.75083501  0.33280398  0.87481871  1
  Na  Na44  1  0.74974271  0.66754562  0.12540418  1
  Na  Na45  1  0.74803715  0.66664341  0.37432593  1
  Na  Na46  1  0.74962998  0.66734008  0.62446752  1
  Na  Na47  1  0.75045865  0.66737021  0.87583927  1
  Na  Na48  1  -0.00168241  0.16689732  -0.00070370  1
  Na  Na49  1  -0.00128637  0.16776131  0.24948462  1
  Na  Na50  1  0.00008139  0.16700322  0.50003662  1
  Na  Na51  1  -0.00282209  0.16797921  0.75064320  1
  Na  Na52  1  -0.00131217  0.49966402  0.00095527  1
  Na  Na53  1  0.00091066  0.49895103  0.24947510  1
  Na  Na54  1  0.00063815  0.49924647  0.49886915  1
  Na  Na55  1  0.00041465  0.49892006  0.75019747  1
  Na  Na56  1  -0.00310170  0.83411326  0.00024686  1
  Na  Na57  1  -0.00165988  0.83389054  0.25019465  1
  Na  Na58  1  0.00160693  0.83288462  0.50020150  1
  Na  Na59  1  -0.00026161  0.83325571  0.74916673  1
  Na  Na60  1  0.50263928  0.16627997  -0.00100118  1
  Na  Na61  1  0.49888356  0.16733198  0.25038565  1
  Na  Na62  1  0.49894728  0.16704071  0.50072139  1
  Na  Na63  1  0.50009924  0.16714434  0.74966344  1
  Na  Na64  1  0.50082016  0.50021815  0.00063963  1
  Na  Na65  1  0.50121800  0.49964513  0.25149171  1
  Na  Na66  1  0.50025986  0.50031345  0.49965957  1
  Na  Na67  1  0.50298989  0.49889266  0.74882891  1
  Na  Na68  1  0.49911732  0.83344308  -0.00104133  1
  Na  Na69  1  0.49963776  0.83347983  0.25016212  1
  Na  Na70  1  0.49978325  0.83341161  0.50087795  1
  Na  Na71  1  0.49807755  0.83421231  0.75025480  1
  Na  Na72  1  0.24929166  0.16760156  0.12475289  1
  Na  Na73  1  0.25190796  0.16652209  0.37485728  1
  Na  Na74  1  0.25310969  0.16620994  0.62564260  1
  Na  Na75  1  0.25179148  0.16682286  0.87444051  1
  Na  Na76  1  0.24876090  0.49974670  0.12431184  1
  Na  Na77  1  0.25087702  0.49836785  0.37594033  1
  Na  Na78  1  0.24897724  0.49974709  0.62517201  1
  Na  Na79  1  0.24899099  0.49995641  0.87557213  1
  Na  Na80  1  0.25023757  0.83347717  0.12535793  1
  Na  Na81  1  0.24837253  0.83369282  0.37479599  1
  Na  Na82  1  0.24772596  0.83442226  0.62391426  1
  Na  Na83  1  0.25121041  0.83314348  0.87557354  1
  Na  Na84  1  0.75069509  0.16700582  0.12534007  1
  Na  Na85  1  0.75052923  0.16715135  0.37532358  1
  Na  Na86  1  0.74985554  0.16685413  0.62504043  1
  Na  Na87  1  0.74953318  0.16715082  0.87388667  1
  Na  Na88  1  0.74940178  0.49961075  0.12494303  1
  Na  Na89  1  0.74767305  0.50032649  0.37591892  1
  Na  Na90  1  0.74615993  0.50121029  0.62438272  1
  Na  Na91  1  0.75008372  0.49903056  0.87539237  1
  Na  Na92  1  0.75202000  0.83329527  0.12545911  1
  Na  Na93  1  0.75235586  0.83250367  0.37430109  1
  Na  Na94  1  0.75176270  0.83316108  0.62416020  1
  Na  Na95  1  0.75361334  0.83264837  0.87590718  1
  Mn  Mn96  1  0.35766587  0.74891903  0.25256748  1
  Mn  Mn97  1  0.89182839  0.58235802  0.62700040  1
  Mn  Mn98  1  0.14159366  0.58397831  0.74752736  1
  Mn  Mn99  1  0.10702055  0.08389884  0.12219908  1
  Mn  Mn100  1  0.14177163  0.58277906  0.49756739  1
  Mn  Mn101  1  0.14234901  0.25016092  0.24787207  1
  Mn  Mn102  1  0.60825347  0.08302960  0.12253356  1
  Mn  Mn103  1  0.60821785  0.75108338  0.87230908  1
  Mn  Mn104  1  0.64290565  0.91761249  0.99778745  1
  Mn  Mn105  1  0.64248510  0.91664013  0.24794599  1
  Mn  Mn106  1  0.14182535  0.91720934  0.99772609  1
  Mn  Mn107  1  0.85719805  0.41742884  0.50282467  1
  Mn  Mn108  1  0.85708050  0.41680158  0.75118955  1
  Mn  Mn109  1  0.10827849  0.08423246  0.62349127  1
  Mn  Mn110  1  0.89168883  0.58276938  0.12837547  1
  Mn  Mn111  1  0.89307285  0.91710018  0.62727207  1
  Mn  Mn112  1  0.10680217  0.75033417  0.87297548  1
  Mn  Mn113  1  0.39282674  0.25011206  0.12634583  1
  Mn  Mn114  1  0.39276720  0.58342929  0.12806252  1
  Mn  Mn115  1  0.89197508  0.58366920  0.37695860  1
  Mn  Mn116  1  0.39236082  0.58402463  0.37708435  1
  Mn  Mn117  1  0.35840131  0.41712889  0.75229394  1
  Mn  Mn118  1  0.10828939  0.08310528  0.37278248  1
  Mn  Mn119  1  0.39256958  0.58282220  0.87683354  1
  Mn  Mn120  1  0.60896548  0.41622488  0.87258054  1
  Mn  Mn121  1  0.60828525  0.75062054  0.62322807  1
  Mn  Mn122  1  0.64241923  0.91644240  0.49740006  1
  Mn  Mn123  1  0.64276136  0.58300789  0.99788535  1
  Mn  Mn124  1  0.64287885  0.91648247  0.74813462  1
  Mn  Mn125  1  0.85847296  0.08353055  0.25311628  1
  Mn  Mn126  1  0.39137208  0.91692709  0.62763456  1
  Mn  Mn127  1  0.35828161  0.74937945  0.00267657  1
  Mn  Mn128  1  0.60675561  0.08265345  0.37304440  1
  Mn  Mn129  1  0.14143362  0.58317490  0.99737100  1
  Mn  Mn130  1  0.35783317  0.08376667  0.25195178  1
  Mn  Mn131  1  0.14262022  0.24926485  0.74804723  1
  Mn  Mn132  1  0.10671611  0.41642675  0.87300819  1
  Mn  Mn133  1  0.39277887  0.58301082  0.62744882  1
  Mn  Mn134  1  0.35839294  0.08373713  0.00189228  1
  Mn  Mn135  1  0.64249153  0.25036160  0.24845760  1
  Mn  Mn136  1  0.89101555  0.58311019  0.87699789  1
  Mn  Mn137  1  0.35706489  0.74971629  0.50185040  1
  Mn  Mn138  1  0.10795679  0.41674493  0.37218405  1
  Mn  Mn139  1  0.60704262  0.41647268  0.37266021  1
  Mn  Mn140  1  0.85796752  0.08328894  0.50243403  1
  Mn  Mn141  1  0.10673176  0.08310962  0.87260397  1
  Mn  Mn142  1  0.35811114  0.41676629  0.00250489  1
  Mn  Mn143  1  0.10650940  0.75000040  0.12286979  1
  Fe  Fe144  1  0.14274630  0.91691741  0.74929484  1
  Fe  Fe145  1  0.89371272  0.91702746  0.37672665  1
  Fe  Fe146  1  0.39194323  0.91636880  0.37642515  1
  Fe  Fe147  1  0.64249670  0.58372635  0.49815606  1
  Fe  Fe148  1  0.89144915  0.24969587  0.87726342  1
  Fe  Fe149  1  0.85694362  0.41753966  0.25164416  1
  Fe  Fe150  1  0.85652219  0.74924923  0.25253020  1
  Fe  Fe151  1  0.60779844  0.75116757  0.37358949  1
  Fe  Fe152  1  0.39425658  0.25003635  0.87687944  1
  Fe  Fe153  1  0.14269554  0.91651301  0.24775525  1
  Fe  Fe154  1  0.64306050  0.24984156  0.74760524  1
  Fe  Fe155  1  0.89221088  0.91719073  0.87641624  1
  Fe  Fe156  1  0.89248817  0.24987794  0.12663983  1
  Fe  Fe157  1  0.10658903  0.75024043  0.37276923  1
  Fe  Fe158  1  0.64263853  0.24992361  0.49803251  1
  Fe  Fe159  1  0.10759990  0.41620278  0.62368568  1
  Fe  Fe160  1  0.85708300  0.74995506  0.00255680  1
  Fe  Fe161  1  0.85685435  0.08374217  0.00161230  1
  Fe  Fe162  1  0.60798705  0.41653687  0.12396450  1
  Fe  Fe163  1  0.60702230  0.08362588  0.62309565  1
  Fe  Fe164  1  0.89270121  0.25030767  0.62610196  1
  Fe  Fe165  1  0.60747595  0.41565887  0.62292200  1
  Fe  Fe166  1  0.39198886  0.24966817  0.37768601  1
  Fe  Fe167  1  0.14282217  0.91782368  0.49761132  1
  Fe  Fe168  1  0.14354946  0.24946182  0.49894772  1
  Fe  Fe169  1  0.39296770  0.91614166  0.12676314  1
  Fe  Fe170  1  0.60787703  0.08303329  0.87285969  1
  Fe  Fe171  1  0.64276050  0.58367810  0.74849956  1
  Fe  Fe172  1  0.85707245  0.41621762  0.00251229  1
  Fe  Fe173  1  0.10679964  0.41586175  0.12356426  1
  Fe  Fe174  1  0.89282538  0.24945438  0.37752622  1
  Fe  Fe175  1  0.35721814  0.08355371  0.50179578  1
  Fe  Fe176  1  0.64282542  0.58320016  0.24828450  1
  Fe  Fe177  1  0.85802433  0.75010760  0.75119932  1
  Fe  Fe178  1  0.60776811  0.75051965  0.12345960  1
  Fe  Fe179  1  0.64380678  0.24958469  0.99841950  1
  Fe  Fe180  1  0.35737844  0.41724392  0.25086874  1
  Fe  Fe181  1  0.39371466  0.25028539  0.62681143  1
  Fe  Fe182  1  0.35675147  0.75041710  0.75115296  1
  Fe  Fe183  1  0.85676907  0.08313750  0.75149204  1
  Fe  Fe184  1  0.85752047  0.74950506  0.50113736  1
  Fe  Fe185  1  0.10739773  0.74937183  0.62343315  1
  Fe  Fe186  1  0.14201400  0.24982259  0.99785102  1
  Fe  Fe187  1  0.39244214  0.91729727  0.87623129  1
  Fe  Fe188  1  0.35813350  0.08252410  0.75210609  1
  Fe  Fe189  1  0.35719385  0.41621027  0.50262919  1
  Fe  Fe190  1  0.89226061  0.91725637  0.12744030  1
  Fe  Fe191  1  0.14243848  0.58295561  0.24822059  1
  P  P192  1  0.05247486  0.25087534  0.10946458  1
  P  P193  1  0.05344612  0.24971225  0.36108564  1
  P  P194  1  0.05301174  0.25042398  0.60963617  1
  P  P195  1  0.05230871  0.24963802  0.86109973  1
  P  P196  1  0.05412649  0.58225660  0.11138383  1
  P  P197  1  0.05367890  0.58405207  0.35898364  1
  P  P198  1  0.05299973  0.58290269  0.60978923  1
  P  P199  1  0.05202688  0.58351143  0.85994528  1
  P  P200  1  0.05247210  0.91666842  0.11088490  1
  P  P201  1  0.05440797  0.91624632  0.36048635  1
  P  P202  1  0.05609177  0.91629002  0.61097251  1
  P  P203  1  0.05185743  0.91669584  0.85946599  1
  P  P204  1  0.55476652  0.25088429  0.10962751  1
  P  P205  1  0.55256144  0.24969703  0.36153962  1
  P  P206  1  0.55463440  0.24950768  0.61069469  1
  P  P207  1  0.55546777  0.24896985  0.86036578  1
  P  P208  1  0.55541824  0.58321736  0.11174758  1
  P  P209  1  0.55565982  0.58448184  0.36099461  1
  P  P210  1  0.55587170  0.58278126  0.61065920  1
  P  P211  1  0.55457487  0.58337243  0.85920949  1
  P  P212  1  0.55248128  0.91581174  0.10979914  1
  P  P213  1  0.55182456  0.91618226  0.36029404  1
  P  P214  1  0.55343415  0.91772761  0.61028955  1
  P  P215  1  0.55229821  0.91784145  0.85982387  1
  P  P216  1  0.44713481  0.08290987  0.13965330  1
  P  P217  1  0.44516583  0.08316542  0.39069896  1
  P  P218  1  0.44570176  0.08435760  0.63919978  1
  P  P219  1  0.44690507  0.08380029  0.88823564  1
  P  P220  1  0.44811767  0.41665789  0.14085531  1
  P  P221  1  0.44414511  0.41637305  0.38963635  1
  P  P222  1  0.44720706  0.41578247  0.63862188  1
  P  P223  1  0.44761222  0.41577369  0.88994574  1
  P  P224  1  0.44819562  0.75018983  0.14025795  1
  P  P225  1  0.44797477  0.75037308  0.39033387  1
  P  P226  1  0.44598258  0.75006054  0.64065455  1
  P  P227  1  0.44539494  0.75058021  0.88846802  1
  P  P228  1  0.94497785  0.08379839  0.13855379  1
  P  P229  1  0.94711020  0.08300026  0.39024445  1
  P  P230  1  0.94618753  0.08447547  0.64064413  1
  P  P231  1  0.94386422  0.08326261  0.88894605  1
  P  P232  1  0.94547989  0.41543727  0.13964450  1
  P  P233  1  0.94497311  0.41642198  0.38869063  1
  P  P234  1  0.94793849  0.41561353  0.63957193  1
  P  P235  1  0.94471079  0.41580109  0.89064549  1
  P  P236  1  0.94369531  0.75071193  0.13995379  1
  P  P237  1  0.94584286  0.75074743  0.38916671  1
  P  P238  1  0.94632587  0.74969318  0.63879088  1
  P  P239  1  0.94403943  0.75087998  0.88946344  1
  P  P240  1  0.19653975  0.08244375  0.23466744  1
  P  P241  1  0.19792894  0.08425390  0.48541982  1
  P  P242  1  0.19842161  0.08264490  0.73561197  1
  P  P243  1  0.19635035  0.08434438  0.98469451  1
  P  P244  1  0.19719521  0.41692245  0.23446639  1
  P  P245  1  0.19633231  0.41492124  0.48661305  1
  P  P246  1  0.19609381  0.41611583  0.73465437  1
  P  P247  1  0.19500331  0.41528040  0.98593679  1
  P  P248  1  0.19478502  0.75022169  0.23639801  1
  P  P249  1  0.19396824  0.75080094  0.48536406  1
  P  P250  1  0.19688905  0.75132385  0.73483105  1
  P  P251  1  0.19630208  0.75043982  0.98508073  1
  P  P252  1  0.69709965  0.08330815  0.23534456  1
  P  P253  1  0.69528982  0.08424938  0.48609807  1
  P  P254  1  0.69595777  0.08376104  0.73536981  1
  P  P255  1  0.69746701  0.08411582  0.98435105  1
  P  P256  1  0.69717968  0.41687721  0.23505069  1
  P  P257  1  0.69470460  0.41590443  0.48629461  1
  P  P258  1  0.69585798  0.41606696  0.73424245  1
  P  P259  1  0.69711617  0.41526759  0.98657642  1
  P  P260  1  0.69588363  0.74997843  0.23577884  1
  P  P261  1  0.69727754  0.74998267  0.48422563  1
  P  P262  1  0.69864924  0.75020769  0.73523260  1
  P  P263  1  0.69681731  0.75084161  0.98648498  1
  P  P264  1  0.30345119  0.24999254  0.01369860  1
  P  P265  1  0.30427806  0.25123760  0.26521021  1
  P  P266  1  0.30476323  0.24988832  0.51476812  1
  P  P267  1  0.30625167  0.24930258  0.76442158  1
  P  P268  1  0.30324726  0.58324292  0.01560572  1
  P  P269  1  0.30175153  0.58252625  0.26516803  1
  P  P270  1  0.30334713  0.58249574  0.51507604  1
  P  P271  1  0.30295272  0.58406939  0.76495626  1
  P  P272  1  0.30538657  0.91673815  0.01474884  1
  P  P273  1  0.30401504  0.91615959  0.26433337  1
  P  P274  1  0.30337856  0.91711865  0.51340483  1
  P  P275  1  0.30268961  0.91667479  0.76529973  1
  P  P276  1  0.80418348  0.24943735  0.01423940  1
  P  P277  1  0.80544690  0.25108659  0.26479485  1
  P  P278  1  0.80393949  0.25001837  0.51471171  1
  P  P279  1  0.80406875  0.24940081  0.76367443  1
  P  P280  1  0.80353065  0.58309170  0.01542909  1
  P  P281  1  0.80176900  0.58313046  0.26511108  1
  P  P282  1  0.80191890  0.58432558  0.51454200  1
  P  P283  1  0.80169978  0.58365806  0.76448178  1
  P  P284  1  0.80538110  0.91744529  0.01438305  1
  P  P285  1  0.80541657  0.91613431  0.26484696  1
  P  P286  1  0.80525574  0.91573721  0.51354824  1
  P  P287  1  0.80431263  0.91694222  0.76493531  1
  O  O288  1  0.05639468  0.25035100  0.18618378  1
  O  O289  1  0.05905758  0.24964060  0.43760190  1
  O  O290  1  0.05664424  0.24961520  0.68635191  1
  O  O291  1  0.05748477  0.24943617  0.93765285  1
  O  O292  1  0.05866837  0.58291140  0.18807220  1
  O  O293  1  0.05661567  0.58300972  0.43577933  1
  O  O294  1  0.05558639  0.58317415  0.68657378  1
  O  O295  1  0.05498825  0.58371097  0.93674170  1
  O  O296  1  0.05785044  0.91662154  0.18749215  1
  O  O297  1  0.05916619  0.91733835  0.43722167  1
  O  O298  1  0.05998932  0.91717255  0.68771045  1
  O  O299  1  0.05560544  0.91676640  0.93617846  1
  O  O300  1  0.55716980  0.25019538  0.18643604  1
  O  O301  1  0.55774206  0.24993008  0.43810846  1
  O  O302  1  0.55909751  0.24961488  0.68740211  1
  O  O303  1  0.56034291  0.24971486  0.93701856  1
  O  O304  1  0.55938782  0.58301182  0.18855213  1
  O  O305  1  0.55955903  0.58370791  0.43780640  1
  O  O306  1  0.56009763  0.58380596  0.68743513  1
  O  O307  1  0.55776483  0.58349711  0.93604792  1
  O  O308  1  0.55634425  0.91640229  0.18646194  1
  O  O309  1  0.55590496  0.91670451  0.43692646  1
  O  O310  1  0.55693856  0.91711256  0.68698058  1
  O  O311  1  0.55643791  0.91711841  0.93645646  1
  O  O312  1  0.44446262  0.08381794  0.06288443  1
  O  O313  1  0.44274169  0.08331459  0.31388750  1
  O  O314  1  0.44069734  0.08336029  0.56257712  1
  O  O315  1  0.44242173  0.08344894  0.81155627  1
  O  O316  1  0.44427136  0.41695760  0.06413742  1
  O  O317  1  0.44012669  0.41719951  0.31290014  1
  O  O318  1  0.44213562  0.41662600  0.56200666  1
  O  O319  1  0.44456750  0.41640102  0.81318250  1
  O  O320  1  0.44446772  0.74925547  0.06357484  1
  O  O321  1  0.44401654  0.74944059  0.31366176  1
  O  O322  1  0.44257468  0.74994398  0.56391026  1
  O  O323  1  0.44070281  0.75002258  0.81179153  1
  O  O324  1  0.94111912  0.08365549  0.06184806  1
  O  O325  1  0.94443397  0.08324661  0.31346709  1
  O  O326  1  0.94340569  0.08347589  0.56389350  1
  O  O327  1  0.94020213  0.08358260  0.81219079  1
  O  O328  1  0.94056364  0.41650096  0.06298876  1
  O  O329  1  0.94065112  0.41744380  0.31200061  1
  O  O330  1  0.94395393  0.41648670  0.56290081  1
  O  O331  1  0.94182771  0.41640046  0.81386062  1
  O  O332  1  0.93970626  0.74975625  0.06313346  1
  O  O333  1  0.94080968  0.74944753  0.31250760  1
  O  O334  1  0.94153995  0.74962654  0.56214474  1
  O  O335  1  0.94047495  0.74980904  0.81259633  1
  O  O336  1  0.19296055  0.08377667  0.06146046  1
  O  O337  1  0.19380884  0.08291658  0.31144988  1
  O  O338  1  0.19444773  0.08422438  0.56206722  1
  O  O339  1  0.19401518  0.08348604  0.81220534  1
  O  O340  1  0.19048757  0.41556846  0.06263648  1
  O  O341  1  0.19384429  0.41608641  0.31127437  1
  O  O342  1  0.19120638  0.41558857  0.56320396  1
  O  O343  1  0.19255993  0.41594392  0.81141233  1
  O  O344  1  0.19239099  0.75063611  0.06181917  1
  O  O345  1  0.19079561  0.75035786  0.31313400  1
  O  O346  1  0.19025015  0.74987618  0.56214756  1
  O  O347  1  0.19323243  0.75047413  0.81151050  1
  O  O348  1  0.69387699  0.08321645  0.06106639  1
  O  O349  1  0.69332604  0.08300282  0.31208325  1
  O  O350  1  0.69111020  0.08358651  0.56282914  1
  O  O351  1  0.69149524  0.08306622  0.81207704  1
  O  O352  1  0.69241844  0.41580842  0.06315590  1
  O  O353  1  0.69325872  0.41598286  0.31176849  1
  O  O354  1  0.69085738  0.41541349  0.56301752  1
  O  O355  1  0.69408311  0.41570247  0.81110106  1
  O  O356  1  0.69170523  0.75129181  0.06310915  1
  O  O357  1  0.69113844  0.75130400  0.31242702  1
  O  O358  1  0.69359655  0.75114364  0.56091640  1
  O  O359  1  0.69491109  0.75108186  0.81192633  1
  O  O360  1  0.30718470  0.25037968  0.18844257  1
  O  O361  1  0.30865112  0.25008923  0.43801759  1
  O  O362  1  0.31042116  0.25024012  0.68764777  1
  O  O363  1  0.30916196  0.25000799  0.93714471  1
  O  O364  1  0.30578862  0.58353492  0.18852200  1
  O  O365  1  0.30639933  0.58320622  0.43833381  1
  O  O366  1  0.30638254  0.58315574  0.68821227  1
  O  O367  1  0.30708218  0.58324116  0.93888708  1
  O  O368  1  0.30927581  0.91594020  0.18766930  1
  O  O369  1  0.30831691  0.91611255  0.43678442  1
  O  O370  1  0.30562211  0.91695209  0.68852154  1
  O  O371  1  0.30993753  0.91688405  0.93799774  1
  O  O372  1  0.80914480  0.24999920  0.18802019  1
  O  O373  1  0.80910632  0.24982005  0.43804528  1
  O  O374  1  0.80882320  0.25012702  0.68703385  1
  O  O375  1  0.80792470  0.24966841  0.93746746  1
  O  O376  1  0.80539895  0.58315408  0.18841202  1
  O  O377  1  0.80577564  0.58343213  0.43793141  1
  O  O378  1  0.80520554  0.58303735  0.68778401  1
  O  O379  1  0.80588774  0.58294731  0.93866088  1
  O  O380  1  0.80906403  0.91728989  0.18805140  1
  O  O381  1  0.80958306  0.91664057  0.43686469  1
  O  O382  1  0.80691002  0.91708033  0.68810557  1
  O  O383  1  0.80873439  0.91728456  0.93761524  1
  O  O384  1  0.23314276  0.25001934  0.03722478  1
  O  O385  1  0.23454707  0.25036656  0.29035046  1
  O  O386  1  0.23461628  0.24979380  0.53918859  1
  O  O387  1  0.23608053  0.25003324  0.78828624  1
  O  O388  1  0.23339461  0.58317477  0.03999482  1
  O  O389  1  0.23175636  0.58236657  0.28980427  1
  O  O390  1  0.23361130  0.58287800  0.54000734  1
  O  O391  1  0.23327052  0.58368491  0.79008342  1
  O  O392  1  0.23518585  0.91686368  0.03833122  1
  O  O393  1  0.23356115  0.91634573  0.28754398  1
  O  O394  1  0.23299012  0.91729996  0.53688571  1
  O  O395  1  0.23274973  0.91669869  0.79045246  1
  O  O396  1  0.73400501  0.24938203  0.03857769  1
  O  O397  1  0.73546096  0.25047477  0.28924822  1
  O  O398  1  0.73350225  0.24977501  0.53784495  1
  O  O399  1  0.73359607  0.24994226  0.78711216  1
  O  O400  1  0.73403399  0.58351954  0.04102715  1
  O  O401  1  0.73176053  0.58328122  0.28969436  1
  O  O402  1  0.73181973  0.58420084  0.53883329  1
  O  O403  1  0.73189796  0.58324347  0.78976152  1
  O  O404  1  0.73549960  0.91725066  0.03925684  1
  O  O405  1  0.73544571  0.91640766  0.28920368  1
  O  O406  1  0.73529632  0.91638558  0.53779681  1
  O  O407  1  0.73479709  0.91676869  0.79067514  1
  O  O408  1  0.26612607  0.08322338  0.20927302  1
  O  O409  1  0.26783986  0.08370506  0.46048403  1
  O  O410  1  0.26850812  0.08265318  0.71125314  1
  O  O411  1  0.26609143  0.08374555  0.95990708  1
  O  O412  1  0.26721568  0.41662748  0.20975468  1
  O  O413  1  0.26672631  0.41550204  0.46324205  1
  O  O414  1  0.26600955  0.41615944  0.71024145  1
  O  O415  1  0.26505032  0.41619949  0.96184131  1
  O  O416  1  0.26472566  0.75019911  0.21187514  1
  O  O417  1  0.26398606  0.74980135  0.46103383  1
  O  O418  1  0.26691148  0.75097528  0.71004797  1
  O  O419  1  0.26613786  0.75032046  0.96073936  1
  O  O420  1  0.76690373  0.08362479  0.21084480  1
  O  O421  1  0.76530326  0.08393013  0.46193419  1
  O  O422  1  0.76636192  0.08341418  0.71170250  1
  O  O423  1  0.76752189  0.08423466  0.96000493  1
  O  O424  1  0.76728573  0.41660358  0.21071678  1
  O  O425  1  0.76462550  0.41656975  0.46185910  1
  O  O426  1  0.76529165  0.41633229  0.70819390  1
  O  O427  1  0.76734878  0.41559692  0.96256088  1
  O  O428  1  0.76637495  0.75012259  0.21249517  1
  O  O429  1  0.76734917  0.74972915  0.45975485  1
  O  O430  1  0.76861400  0.75044746  0.71041920  1
  O  O431  1  0.76732715  0.75039620  0.96342032  1
  O  O432  1  0.01478776  0.08411694  0.16339654  1
  O  O433  1  0.01660385  0.08295849  0.41587814  1
  O  O434  1  0.01585743  0.08418669  0.66583865  1
  O  O435  1  0.01377230  0.08298382  0.91360002  1
  O  O436  1  0.01583425  0.41565886  0.16325120  1
  O  O437  1  0.01512551  0.41646364  0.41252447  1
  O  O438  1  0.01781123  0.41557542  0.66442136  1
  O  O439  1  0.01436780  0.41622982  0.91577315  1
  O  O440  1  0.01378964  0.75038678  0.16374176  1
  O  O441  1  0.01630206  0.75036388  0.41242704  1
  O  O442  1  0.01674560  0.75015045  0.66233248  1
  O  O443  1  0.01386718  0.75039131  0.91429809  1
  O  O444  1  0.51659966  0.08331987  0.16543343  1
  O  O445  1  0.51473750  0.08327711  0.41622731  1
  O  O446  1  0.51616053  0.08413313  0.66253675  1
  O  O447  1  0.51712233  0.08343348  0.91238250  1
  O  O448  1  0.51813684  0.41629625  0.16541948  1
  O  O449  1  0.51433285  0.41700661  0.41345609  1
  O  O450  1  0.51758847  0.41547523  0.66213270  1
  O  O451  1  0.51730975  0.41643303  0.91502221  1
  O  O452  1  0.51821722  0.75020882  0.16481626  1
  O  O453  1  0.51796461  0.75039911  0.41500091  1
  O  O454  1  0.51587087  0.75045896  0.66521263  1
  O  O455  1  0.51550133  0.75027923  0.91251087  1
  O  O456  1  0.48521868  0.25000293  0.08400846  1
  O  O457  1  0.48215913  0.24964048  0.33821250  1
  O  O458  1  0.48419300  0.24971092  0.58710898  1
  O  O459  1  0.48513549  0.24966658  0.83672694  1
  O  O460  1  0.48558111  0.58342025  0.08699352  1
  O  O461  1  0.48561328  0.58351739  0.33683820  1
  O  O462  1  0.48577974  0.58359901  0.58663483  1
  O  O463  1  0.48491865  0.58269874  0.83423862  1
  O  O464  1  0.48250448  0.91616680  0.08510778  1
  O  O465  1  0.48173529  0.91652999  0.33595792  1
  O  O466  1  0.48357681  0.91713034  0.58570203  1
  O  O467  1  0.48223791  0.91787630  0.83536185  1
  O  O468  1  0.98224960  0.25012564  0.08544639  1
  O  O469  1  0.98300966  0.24993366  0.33784998  1
  O  O470  1  0.98289828  0.24989229  0.58516810  1
  O  O471  1  0.98182181  0.24985663  0.83794114  1
  O  O472  1  0.98392749  0.58275769  0.08764558  1
  O  O473  1  0.98397147  0.58348094  0.33393999  1
  O  O474  1  0.98357110  0.58305170  0.58375284  1
  O  O475  1  0.98244011  0.58314163  0.83462966  1
  O  O476  1  0.98202682  0.91653738  0.08772048  1
  O  O477  1  0.98400169  0.91676059  0.33701847  1
  O  O478  1  0.98593547  0.91669558  0.58694395  1
  O  O479  1  0.98177732  0.91685318  0.83515849  1
  O  O480  1  0.08591646  0.31608212  0.07678601  1
  O  O481  1  0.08653001  0.31469749  0.32738595  1
  O  O482  1  0.08684437  0.31538615  0.57692579  1
  O  O483  1  0.08561100  0.31450743  0.82768595  1
  O  O484  1  0.08740829  0.64726215  0.07798893  1
  O  O485  1  0.08756434  0.64934862  0.32709167  1
  O  O486  1  0.08742082  0.64796146  0.57778567  1
  O  O487  1  0.08593226  0.64862734  0.82751563  1
  O  O488  1  0.08537051  0.98176240  0.07727746  1
  O  O489  1  0.08809774  0.98087003  0.32674951  1
  O  O490  1  0.08975560  0.98128184  0.57759346  1
  O  O491  1  0.08595018  0.98153867  0.82661527  1
  O  O492  1  0.58869330  0.31628517  0.07770747  1
  O  O493  1  0.58565189  0.31473830  0.32795454  1
  O  O494  1  0.58807371  0.31430738  0.57711630  1
  O  O495  1  0.58917300  0.31370226  0.82674265  1
  O  O496  1  0.58910302  0.64839544  0.07903532  1
  O  O497  1  0.58892669  0.64980971  0.32844741  1
  O  O498  1  0.58990312  0.64761971  0.57749967  1
  O  O499  1  0.58857100  0.64847516  0.82671981  1
  O  O500  1  0.58638472  0.98088674  0.07697791  1
  O  O501  1  0.58560027  0.98109066  0.32720445  1
  O  O502  1  0.58702366  0.98297411  0.57785496  1
  O  O503  1  0.58625611  0.98281865  0.82734405  1
  O  O504  1  0.41299239  0.01765004  0.17145569  1
  O  O505  1  0.41091466  0.01801868  0.42279644  1
  O  O506  1  0.41226636  0.01950528  0.67297200  1
  O  O507  1  0.41300853  0.01905797  0.92130392  1
  O  O508  1  0.41381587  0.35167376  0.17311199  1
  O  O509  1  0.41103120  0.35100161  0.42256149  1
  O  O510  1  0.41388860  0.35078321  0.67171146  1
  O  O511  1  0.41401715  0.35033629  0.92215886  1
  O  O512  1  0.41450682  0.68527905  0.17357671  1
  O  O513  1  0.41428716  0.68530119  0.42327198  1
  O  O514  1  0.41201938  0.68513166  0.67329415  1
  O  O515  1  0.41214042  0.68554851  0.92200962  1
  O  O516  1  0.91153012  0.01871724  0.17168414  1
  O  O517  1  0.91295226  0.01783146  0.42231225  1
  O  O518  1  0.91170678  0.01961592  0.67316860  1
  O  O519  1  0.91003596  0.01819173  0.92167032  1
  O  O520  1  0.91211837  0.35028836  0.17235191  1
  O  O521  1  0.91151411  0.35131743  0.42152463  1
  O  O522  1  0.91388368  0.35057530  0.67188189  1
  O  O523  1  0.91067413  0.35060393  0.92282212  1
  O  O524  1  0.91004235  0.68578632  0.17344548  1
  O  O525  1  0.91239259  0.68596245  0.42301688  1
  O  O526  1  0.91310470  0.68472262  0.67229088  1
  O  O527  1  0.90981114  0.68618788  0.92266575  1
  O  O528  1  0.16268503  0.01716985  0.20251302  1
  O  O529  1  0.16367546  0.01943106  0.45270376  1
  O  O530  1  0.16452639  0.01769480  0.70310235  1
  O  O531  1  0.16216221  0.01929525  0.95226828  1
  O  O532  1  0.16301516  0.35200619  0.20168513  1
  O  O533  1  0.16353198  0.34967899  0.45319164  1
  O  O534  1  0.16217531  0.35107829  0.70194802  1
  O  O535  1  0.16193618  0.34998974  0.95276179  1
  O  O536  1  0.16118189  0.68498894  0.20375916  1
  O  O537  1  0.15959760  0.68620593  0.45226502  1
  O  O538  1  0.16263264  0.68655194  0.70171348  1
  O  O539  1  0.16236461  0.68542469  0.95248654  1
  O  O540  1  0.66355041  0.01819820  0.20245326  1
  O  O541  1  0.66180684  0.01921672  0.45285912  1
  O  O542  1  0.66236668  0.01900169  0.70185386  1
  O  O543  1  0.66373737  0.01916388  0.95114676  1
  O  O544  1  0.66329616  0.35205950  0.20192945  1
  O  O545  1  0.66155402  0.35070635  0.45296710  1
  O  O546  1  0.66151265  0.35090024  0.70215407  1
  O  O547  1  0.66401444  0.35017151  0.95322669  1
  O  O548  1  0.66273248  0.68468433  0.20298997  1
  O  O549  1  0.66298425  0.68505998  0.45206777  1
  O  O550  1  0.66475080  0.68513357  0.70294935  1
  O  O551  1  0.66352654  0.68583827  0.95329193  1
  O  O552  1  0.33679085  0.31486381  0.04732165  1
  O  O553  1  0.33798920  0.31655509  0.29733215  1
  O  O554  1  0.33855851  0.31479078  0.54799650  1
  O  O555  1  0.34032547  0.31390371  0.79783901  1
  O  O556  1  0.33701855  0.64827446  0.04845838  1
  O  O557  1  0.33536242  0.64756322  0.29841077  1
  O  O558  1  0.33748143  0.64749929  0.54746366  1
  O  O559  1  0.33675914  0.64942331  0.79689044  1
  O  O560  1  0.33905602  0.98171576  0.04778064  1
  O  O561  1  0.33738688  0.98122047  0.29756168  1
  O  O562  1  0.33663115  0.98222807  0.54655697  1
  O  O563  1  0.33700039  0.98159256  0.79792464  1
  O  O564  1  0.83785296  0.31425687  0.04757339  1
  O  O565  1  0.83879551  0.31645328  0.29720889  1
  O  O566  1  0.83706686  0.31508221  0.54819898  1
  O  O567  1  0.83754816  0.31417006  0.79736628  1
  O  O568  1  0.83795826  0.64803980  0.04752096  1
  O  O569  1  0.83559819  0.64820585  0.29774889  1
  O  O570  1  0.83576056  0.64938034  0.54690387  1
  O  O571  1  0.83566786  0.64871315  0.79676318  1
  O  O572  1  0.83892792  0.98285289  0.04694085  1
  O  O573  1  0.83947454  0.98079337  0.29823774  1
  O  O574  1  0.83905995  0.98044409  0.54704285  1
  O  O575  1  0.83841837  0.98215537  0.79708333  1
  O  O576  1  0.41269277  0.14781571  0.17201301  1
  O  O577  1  0.41080594  0.14816091  0.42304119  1
  O  O578  1  0.41263920  0.14948181  0.67230761  1
  O  O579  1  0.41395115  0.14920005  0.92141147  1
  O  O580  1  0.41423588  0.48155722  0.17395821  1
  O  O581  1  0.41036240  0.48109686  0.42310433  1
  O  O582  1  0.41434753  0.48081120  0.67245232  1
  O  O583  1  0.41325623  0.48057176  0.92252688  1
  O  O584  1  0.41414116  0.81525926  0.17245450  1
  O  O585  1  0.41384833  0.81539213  0.42261326  1
  O  O586  1  0.41163540  0.81501805  0.67300369  1
  O  O587  1  0.41223838  0.81597178  0.92118102  1
  O  O588  1  0.91128457  0.14895455  0.17127822  1
  O  O589  1  0.91276272  0.14801291  0.42245385  1
  O  O590  1  0.91186918  0.14960395  0.67246528  1
  O  O591  1  0.91014915  0.14827819  0.92201884  1
  O  O592  1  0.91200126  0.48025532  0.17357339  1
  O  O593  1  0.91169851  0.48144499  0.42221067  1
  O  O594  1  0.91404033  0.48061687  0.67244270  1
  O  O595  1  0.91030273  0.48063417  0.92328454  1
  O  O596  1  0.91026623  0.81581870  0.17262057  1
  O  O597  1  0.91295415  0.81600922  0.42229806  1
  O  O598  1  0.91282185  0.81457330  0.67220998  1
  O  O599  1  0.91050746  0.81631996  0.92168583  1
  O  O600  1  0.08655474  0.18617264  0.07626086  1
  O  O601  1  0.08634497  0.18468960  0.32738540  1
  O  O602  1  0.08722728  0.18552134  0.57675624  1
  O  O603  1  0.08530896  0.18467109  0.82727916  1
  O  O604  1  0.08709831  0.51685387  0.07860725  1
  O  O605  1  0.08829876  0.51924574  0.32650473  1
  O  O606  1  0.08717271  0.51762423  0.57780059  1
  O  O607  1  0.08643085  0.51857456  0.82791044  1
  O  O608  1  0.08554238  0.85173947  0.07725594  1
  O  O609  1  0.08729154  0.85093778  0.32737924  1
  O  O610  1  0.08931271  0.85112527  0.57810289  1
  O  O611  1  0.08568786  0.85173050  0.82671364  1
  O  O612  1  0.58969605  0.18629219  0.07703649  1
  O  O613  1  0.58587063  0.18485286  0.32806698  1
  O  O614  1  0.58779111  0.18434863  0.57747723  1
  O  O615  1  0.58849828  0.18374839  0.82710920  1
  O  O616  1  0.58889437  0.51785301  0.07901533  1
  O  O617  1  0.58977654  0.51974489  0.32776891  1
  O  O618  1  0.58890273  0.51740385  0.57786017  1
  O  O619  1  0.58924846  0.51854002  0.82710064  1
  O  O620  1  0.58624559  0.85076897  0.07717767  1
  O  O621  1  0.58560697  0.85113507  0.32767239  1
  O  O622  1  0.58758465  0.85277595  0.57766344  1
  O  O623  1  0.58595571  0.85279242  0.82682138  1
  O  O624  1  0.33663834  0.18496907  0.04720228  1
  O  O625  1  0.33890166  0.18648738  0.29789153  1
  O  O626  1  0.33847232  0.18477302  0.54749277  1
  O  O627  1  0.33940127  0.18382554  0.79703100  1
  O  O628  1  0.33721521  0.51821736  0.04820804  1
  O  O629  1  0.33585679  0.51748393  0.29726944  1
  O  O630  1  0.33726182  0.51731002  0.54740339  1
  O  O631  1  0.33710355  0.51906597  0.79761176  1
  O  O632  1  0.33885356  0.85179470  0.04813348  1
  O  O633  1  0.33721426  0.85128110  0.29814960  1
  O  O634  1  0.33631016  0.85217056  0.54724378  1
  O  O635  1  0.33684813  0.85163300  0.79751921  1
  O  O636  1  0.83771568  0.18432318  0.04715461  1
  O  O637  1  0.83955185  0.18641541  0.29826058  1
  O  O638  1  0.83749125  0.18530413  0.54829397  1
  O  O639  1  0.83702629  0.18418847  0.79695299  1
  O  O640  1  0.83740687  0.51783927  0.04773894  1
  O  O641  1  0.83544202  0.51806835  0.29773185  1
  O  O642  1  0.83541620  0.51932847  0.54784318  1
  O  O643  1  0.83564142  0.51854306  0.79699190  1
  O  O644  1  0.83940336  0.85264429  0.04736160  1
  O  O645  1  0.83912465  0.85083621  0.29711054  1
  O  O646  1  0.83850761  0.85031452  0.54610575  1
  O  O647  1  0.83888236  0.85205787  0.79699416  1
  O  O648  1  0.16206928  0.14748526  0.20262387  1
  O  O649  1  0.16445473  0.14957331  0.45280157  1
  O  O650  1  0.16493696  0.14773362  0.70237227  1
  O  O651  1  0.16249815  0.14947760  0.95227634  1
  O  O652  1  0.16297471  0.48189023  0.20226383  1
  O  O653  1  0.16289374  0.47975394  0.45289373  1
  O  O654  1  0.16187885  0.48104866  0.70212532  1
  O  O655  1  0.16111495  0.48021186  0.95292312  1
  O  O656  1  0.16121028  0.81537461  0.20336308  1
  O  O657  1  0.16084009  0.81625534  0.45272612  1
  O  O658  1  0.16308173  0.81652678  0.70258220  1
  O  O659  1  0.16256075  0.81551859  0.95233249  1
  O  O660  1  0.66319999  0.14838966  0.20298708  1
  O  O661  1  0.66188780  0.14947211  0.45329372  1
  O  O662  1  0.66268781  0.14897550  0.70237195  1
  O  O663  1  0.66339270  0.14906235  0.95190397  1
  O  O664  1  0.66339271  0.48200269  0.20262872  1
  O  O665  1  0.66085933  0.48105601  0.45390746  1
  O  O666  1  0.66109109  0.48099835  0.70260858  1
  O  O667  1  0.66370846  0.48022214  0.95317117  1
  O  O668  1  0.66269232  0.81476362  0.20171841  1
  O  O669  1  0.66363352  0.81493499  0.45083595  1
  O  O670  1  0.66485069  0.81511314  0.70214864  1
  O  O671  1  0.66414677  0.81584173  0.95250183  1
