# generated using pymatgen
data_Na2MnFe(PO4)2
_symmetry_space_group_name_H-M   'P 1'
_cell_length_a   21.08536936
_cell_length_b   18.93783466
_cell_length_c   20.04423553
_cell_angle_alpha   90.00050822
_cell_angle_beta   90.00206656
_cell_angle_gamma   90.00225450
_symmetry_Int_Tables_number   1
_chemical_formula_structural   Na2MnFe(PO4)2
_chemical_formula_sum   'Na96 Mn48 Fe48 P96 O384'
_cell_volume   8003.88850346
_cell_formula_units_Z   48
loop_
 _symmetry_equiv_pos_site_id
 _symmetry_equiv_pos_as_xyz
  1  'x, y, z'
loop_
 _atom_site_type_symbol
 _atom_site_label
 _atom_site_symmetry_multiplicity
 _atom_site_fract_x
 _atom_site_fract_y
 _atom_site_fract_z
 _atom_site_occupancy
  Na  Na0  1  -0.00007847  -0.00021431  0.00147573  1
  Na  Na1  1  0.00093578  0.00079557  0.24896538  1
  Na  Na2  1  0.00049687  0.00068014  0.49936542  1
  Na  Na3  1  0.00099642  0.00095375  0.74972696  1
  Na  Na4  1  0.00040910  0.33310057  0.00098175  1
  Na  Na5  1  0.00169555  0.33328304  0.25111155  1
  Na  Na6  1  0.00234406  0.33351352  0.49934006  1
  Na  Na7  1  0.00142236  0.33347149  0.74934849  1
  Na  Na8  1  0.00134825  0.66583817  0.00122941  1
  Na  Na9  1  0.00133172  0.66660993  0.25129992  1
  Na  Na10  1  -0.00043656  0.66641961  0.49924778  1
  Na  Na11  1  0.00071965  0.66655912  0.74858005  1
  Na  Na12  1  0.50162928  0.00121483  0.00035405  1
  Na  Na13  1  0.49924551  -0.00012134  0.25031347  1
  Na  Na14  1  0.50006682  0.00042304  0.49924237  1
  Na  Na15  1  0.50082374  0.00042353  0.75023683  1
  Na  Na16  1  0.49784934  0.33264340  0.00020645  1
  Na  Na17  1  0.49717643  0.33262948  0.24921403  1
  Na  Na18  1  0.49855067  0.33362798  0.49966535  1
  Na  Na19  1  0.49852925  0.33304242  0.75032153  1
  Na  Na20  1  0.49807965  0.66598060  0.00020242  1
  Na  Na21  1  0.49835024  0.66595447  0.25096860  1
  Na  Na22  1  0.49765918  0.66576450  0.49895429  1
  Na  Na23  1  0.49876518  0.66659569  0.74942225  1
  Na  Na24  1  0.25090633  0.00095193  0.12577137  1
  Na  Na25  1  0.24955002  0.00036556  0.37580411  1
  Na  Na26  1  0.24850064  -0.00020415  0.62485889  1
  Na  Na27  1  0.24944657  0.00068387  0.87390250  1
  Na  Na28  1  0.25153670  0.33396918  0.12562007  1
  Na  Na29  1  0.24978474  0.33272692  0.37445332  1
  Na  Na30  1  0.24921843  0.33306546  0.62511051  1
  Na  Na31  1  0.25008529  0.33331755  0.87534845  1
  Na  Na32  1  0.25051969  0.66710980  0.12496544  1
  Na  Na33  1  0.25136956  0.66661588  0.37433534  1
  Na  Na34  1  0.25002975  0.66608874  0.62520255  1
  Na  Na35  1  0.24883861  0.66626129  0.87515597  1
  Na  Na36  1  0.74756088  -0.00004390  0.12504843  1
  Na  Na37  1  0.74945325  -0.00005429  0.37432313  1
  Na  Na38  1  0.75039246  0.00038971  0.62629212  1
  Na  Na39  1  0.74944766  0.00056555  0.87459827  1
  Na  Na40  1  0.75111032  0.33346509  0.12388606  1
  Na  Na41  1  0.74936925  0.33313080  0.37489381  1
  Na  Na42  1  0.75036471  0.33305032  0.62477494  1
  Na  Na43  1  0.75045750  0.33282725  0.87588982  1
  Na  Na44  1  0.75092667  0.66630086  0.12383126  1
  Na  Na45  1  0.75067727  0.66633026  0.37539284  1
  Na  Na46  1  0.75144982  0.66637840  0.62571381  1
  Na  Na47  1  0.75129174  0.66616726  0.87502039  1
  Na  Na48  1  -0.00160190  0.16808497  0.00140693  1
  Na  Na49  1  0.00138467  0.16643901  0.25000663  1
  Na  Na50  1  0.00198639  0.16627358  0.50012414  1
  Na  Na51  1  0.00209473  0.16600938  0.74909626  1
  Na  Na52  1  0.00181538  0.49968619  0.00134856  1
  Na  Na53  1  0.00219912  0.49948231  0.25110632  1
  Na  Na54  1  0.00203986  0.49994150  0.49887548  1
  Na  Na55  1  0.00112549  0.50051638  0.74924136  1
  Na  Na56  1  0.00266611  0.83190295  0.00119963  1
  Na  Na57  1  0.00088375  0.83291371  0.25046671  1
  Na  Na58  1  -0.00236822  0.83397910  0.49883050  1
  Na  Na59  1  -0.00098269  0.83337910  0.74905505  1
  Na  Na60  1  0.49941918  0.16708329  0.00085946  1
  Na  Na61  1  0.49978740  0.16632419  0.24946831  1
  Na  Na62  1  0.49735785  0.16828229  0.49964138  1
  Na  Na63  1  0.50135239  0.16624783  0.75002660  1
  Na  Na64  1  0.49778744  0.50005243  0.00042617  1
  Na  Na65  1  0.49793380  0.50079231  0.24987278  1
  Na  Na66  1  0.49906833  0.50004355  0.49869123  1
  Na  Na67  1  0.49755515  0.50035320  0.75006057  1
  Na  Na68  1  0.50077867  0.83299129  -0.00059870  1
  Na  Na69  1  0.49749659  0.83413884  0.25117207  1
  Na  Na70  1  0.49896392  0.83262645  0.49957409  1
  Na  Na71  1  0.49882320  0.83357087  0.74999895  1
  Na  Na72  1  0.25222388  0.16572639  0.12586717  1
  Na  Na73  1  0.24950807  0.16716822  0.37535016  1
  Na  Na74  1  0.24728419  0.16727878  0.62467375  1
  Na  Na75  1  0.24858155  0.16717958  0.87367007  1
  Na  Na76  1  0.25036525  0.49928701  0.12581482  1
  Na  Na77  1  0.24886422  0.50098021  0.37437880  1
  Na  Na78  1  0.25044008  0.49968779  0.62497690  1
  Na  Na79  1  0.25015682  0.49948535  0.87527840  1
  Na  Na80  1  0.24938086  0.83385598  0.12472984  1
  Na  Na81  1  0.25177304  0.83268599  0.37513606  1
  Na  Na82  1  0.25207085  0.83176797  0.62523853  1
  Na  Na83  1  0.24952746  0.83291170  0.87551567  1
  Na  Na84  1  0.75049944  0.16683876  0.12411906  1
  Na  Na85  1  0.74967032  0.16704328  0.37396770  1
  Na  Na86  1  0.75109465  0.16651696  0.62577908  1
  Na  Na87  1  0.75031460  0.16697389  0.87638876  1
  Na  Na88  1  0.74998695  0.50042675  0.12380104  1
  Na  Na89  1  0.74898493  0.50040124  0.37523769  1
  Na  Na90  1  0.75033812  0.50023644  0.62572723  1
  Na  Na91  1  0.75144887  0.49984048  0.87478830  1
  Na  Na92  1  0.74971062  0.83302214  0.12489426  1
  Na  Na93  1  0.75129933  0.83248481  0.37525477  1
  Na  Na94  1  0.75135798  0.83289327  0.62526762  1
  Na  Na95  1  0.74885611  0.83437284  0.87421637  1
  Mn  Mn96  1  0.85885391  0.75100787  0.00189146  1
  Mn  Mn97  1  0.89300873  0.24982303  0.37659357  1
  Mn  Mn98  1  0.14215895  0.91766865  0.99758018  1
  Mn  Mn99  1  0.39093018  0.58327030  0.87718195  1
  Mn  Mn100  1  0.60677082  0.41660686  0.12306868  1
  Mn  Mn101  1  0.89318470  0.58264652  0.12809771  1
  Mn  Mn102  1  0.89302015  0.25019141  0.62695951  1
  Mn  Mn103  1  0.14265006  0.58306637  0.99798732  1
  Mn  Mn104  1  0.60721787  0.08384308  0.37330766  1
  Mn  Mn105  1  0.10822941  0.75058474  0.37270805  1
  Mn  Mn106  1  0.85703506  0.08348040  0.25200714  1
  Mn  Mn107  1  0.60723868  0.74983571  0.37300703  1
  Mn  Mn108  1  0.60671295  0.41703693  0.62337669  1
  Mn  Mn109  1  0.85852447  0.08415300  0.75279834  1
  Mn  Mn110  1  0.60761624  0.74978300  0.87258974  1
  Mn  Mn111  1  0.39222443  0.91689086  0.62740598  1
  Mn  Mn112  1  0.64229106  0.58251709  0.74755653  1
  Mn  Mn113  1  0.60701950  0.74926392  0.62255306  1
  Mn  Mn114  1  0.35685504  0.08329741  0.75213055  1
  Mn  Mn115  1  0.39220550  0.91663163  0.12721563  1
  Mn  Mn116  1  0.35738244  0.75038868  0.00270015  1
  Mn  Mn117  1  0.39161029  0.24915122  0.87682863  1
  Mn  Mn118  1  0.89283116  0.91673973  0.87820307  1
  Mn  Mn119  1  0.64226641  0.91682023  0.74714480  1
  Mn  Mn120  1  0.10860797  0.41675636  0.62228160  1
  Mn  Mn121  1  0.39227404  0.91756587  0.87723402  1
  Mn  Mn122  1  0.10756861  0.75071091  0.62205347  1
  Mn  Mn123  1  0.60722950  0.41643056  0.37216666  1
  Mn  Mn124  1  0.85887427  0.41601608  0.75248485  1
  Mn  Mn125  1  0.85807510  0.41677450  0.50190510  1
  Mn  Mn126  1  0.64202835  0.58372823  0.99764233  1
  Mn  Mn127  1  0.60751168  0.75011293  0.12338446  1
  Mn  Mn128  1  0.64161469  0.24973401  0.49784845  1
  Mn  Mn129  1  0.35671916  0.08321802  0.50261032  1
  Mn  Mn130  1  0.14186722  0.91593001  0.49729417  1
  Mn  Mn131  1  0.89205988  0.91756947  0.37668423  1
  Mn  Mn132  1  0.64263083  0.25005595  0.99798582  1
  Mn  Mn133  1  0.64145465  0.91598849  0.24791366  1
  Mn  Mn134  1  0.60788456  0.08366261  0.62213737  1
  Mn  Mn135  1  0.14151875  0.91628830  0.74739454  1
  Mn  Mn136  1  0.14257499  0.24961726  0.99819564  1
  Mn  Mn137  1  0.60716063  0.41632488  0.87280382  1
  Mn  Mn138  1  0.85946258  0.41637116  0.00219894  1
  Mn  Mn139  1  0.89229247  0.91644794  0.12748464  1
  Mn  Mn140  1  0.89260874  0.58268718  0.37693896  1
  Mn  Mn141  1  0.35693420  0.41687519  0.50201344  1
  Mn  Mn142  1  0.10855053  0.08370675  0.12257835  1
  Mn  Mn143  1  0.85860039  0.74977675  0.75267792  1
  Fe  Fe144  1  0.14265264  0.58325346  0.74808677  1
  Fe  Fe145  1  0.35717606  0.74978935  0.50189792  1
  Fe  Fe146  1  0.64270092  0.25050096  0.74843967  1
  Fe  Fe147  1  0.10812737  0.41649810  0.87360922  1
  Fe  Fe148  1  0.10771924  0.74973319  0.87292411  1
  Fe  Fe149  1  0.35736872  0.08306724  0.25210316  1
  Fe  Fe150  1  0.89308508  0.58324929  0.62617445  1
  Fe  Fe151  1  0.39145929  0.25034378  0.62725867  1
  Fe  Fe152  1  0.10832556  0.41611716  0.37251385  1
  Fe  Fe153  1  0.10769320  0.08344316  0.37277219  1
  Fe  Fe154  1  0.39201593  0.24990686  0.37649743  1
  Fe  Fe155  1  0.14296130  0.25047982  0.49768751  1
  Fe  Fe156  1  0.10819774  0.74952894  0.12439824  1
  Fe  Fe157  1  0.35651076  0.74950563  0.75194829  1
  Fe  Fe158  1  0.64259176  0.91665264  0.99850028  1
  Fe  Fe159  1  0.85697753  0.75008423  0.50145032  1
  Fe  Fe160  1  0.14310770  0.58330594  0.49834760  1
  Fe  Fe161  1  0.10797446  0.41653595  0.12400017  1
  Fe  Fe162  1  0.64225782  0.58382635  0.49868954  1
  Fe  Fe163  1  0.35690133  0.41600099  0.00214947  1
  Fe  Fe164  1  0.64244842  0.58284107  0.24838484  1
  Fe  Fe165  1  0.35641892  0.41662948  0.25176243  1
  Fe  Fe166  1  0.39163484  0.58276469  0.62677470  1
  Fe  Fe167  1  0.85791485  0.74909401  0.25113778  1
  Fe  Fe168  1  0.89367174  0.25041529  0.87611634  1
  Fe  Fe169  1  0.85746266  0.41700122  0.25143783  1
  Fe  Fe170  1  0.39231403  0.24980498  0.12711500  1
  Fe  Fe171  1  0.39195421  0.58314160  0.37697329  1
  Fe  Fe172  1  0.39193310  0.58328347  0.12757431  1
  Fe  Fe173  1  0.14390815  0.58380537  0.24851156  1
  Fe  Fe174  1  0.89317010  0.25068640  0.12782218  1
  Fe  Fe175  1  0.10675823  0.08261437  0.62284352  1
  Fe  Fe176  1  0.35618475  0.41676944  0.75167517  1
  Fe  Fe177  1  0.64321132  0.91617423  0.49887089  1
  Fe  Fe178  1  0.89212651  0.91679919  0.62575216  1
  Fe  Fe179  1  0.14206119  0.25059337  0.74853941  1
  Fe  Fe180  1  0.10738105  0.08357145  0.87404737  1
  Fe  Fe181  1  0.35696720  0.75040855  0.25142030  1
  Fe  Fe182  1  0.64213900  0.25106846  0.24777254  1
  Fe  Fe183  1  0.85732405  0.08305503  0.00144832  1
  Fe  Fe184  1  0.60651778  0.08369583  0.12327241  1
  Fe  Fe185  1  0.60766559  0.08395743  0.87383330  1
  Fe  Fe186  1  0.35806445  0.08362034  0.00134203  1
  Fe  Fe187  1  0.14400743  0.24983295  0.24816196  1
  Fe  Fe188  1  0.39169710  0.91689574  0.37739387  1
  Fe  Fe189  1  0.14362582  0.91666835  0.24892559  1
  Fe  Fe190  1  0.89443382  0.58284486  0.87607819  1
  Fe  Fe191  1  0.85788262  0.08294873  0.50124779  1
  P  P192  1  0.05434020  0.25095572  0.11187132  1
  P  P193  1  0.05617530  0.24966822  0.36041983  1
  P  P194  1  0.05578626  0.24941227  0.61022231  1
  P  P195  1  0.05322109  0.25002846  0.86008158  1
  P  P196  1  0.05591496  0.58303841  0.11238362  1
  P  P197  1  0.05624139  0.58297728  0.36063269  1
  P  P198  1  0.05436300  0.58364654  0.60975316  1
  P  P199  1  0.05392553  0.58292048  0.85964913  1
  P  P200  1  0.05536821  0.91587789  0.11184320  1
  P  P201  1  0.05401728  0.91761361  0.35898951  1
  P  P202  1  0.05168195  0.91692359  0.60938039  1
  P  P203  1  0.05341824  0.91675501  0.86019190  1
  P  P204  1  0.55296898  0.24978558  0.11129990  1
  P  P205  1  0.55205590  0.25020896  0.35900691  1
  P  P206  1  0.55214003  0.25066932  0.61090609  1
  P  P207  1  0.55373325  0.24938646  0.85976737  1
  P  P208  1  0.55261729  0.58320522  0.11129265  1
  P  P209  1  0.55344533  0.58343374  0.36049584  1
  P  P210  1  0.55152463  0.58301760  0.60907612  1
  P  P211  1  0.55240817  0.58304674  0.85962525  1
  P  P212  1  0.55373694  0.91734022  0.10972848  1
  P  P213  1  0.55281483  0.91650232  0.36161849  1
  P  P214  1  0.55364496  0.91637312  0.60873644  1
  P  P215  1  0.55482924  0.91770379  0.86105842  1
  P  P216  1  0.44557052  0.08386487  0.13963964  1
  P  P217  1  0.44443861  0.08367826  0.38880676  1
  P  P218  1  0.44623938  0.08421140  0.64008802  1
  P  P219  1  0.44746078  0.08360549  0.89066847  1
  P  P220  1  0.44383212  0.41655692  0.13951676  1
  P  P221  1  0.44434385  0.41650737  0.38815818  1
  P  P222  1  0.44458066  0.41684605  0.64036560  1
  P  P223  1  0.44399866  0.41625486  0.88973811  1
  P  P224  1  0.44582423  0.74946707  0.14108573  1
  P  P225  1  0.44365862  0.74985917  0.38916884  1
  P  P226  1  0.44410149  0.74882275  0.63935807  1
  P  P227  1  0.44496894  0.75010679  0.88908826  1
  P  P228  1  0.94556643  0.08421986  0.13908156  1
  P  P229  1  0.94765765  0.08383694  0.39003511  1
  P  P230  1  0.94636785  0.08277749  0.63849536  1
  P  P231  1  0.94794614  0.08440160  0.89079949  1
  P  P232  1  0.94802366  0.41600327  0.14150001  1
  P  P233  1  0.94758547  0.41637022  0.38866033  1
  P  P234  1  0.94742767  0.41753994  0.63937858  1
  P  P235  1  0.94923832  0.41673260  0.88982189  1
  P  P236  1  0.94807480  0.74961066  0.14109403  1
  P  P237  1  0.94479689  0.74981803  0.38925483  1
  P  P238  1  0.94498578  0.74984616  0.63794486  1
  P  P239  1  0.94899906  0.74891151  0.89005101  1
  P  P240  1  0.19694049  0.08338197  0.23661111  1
  P  P241  1  0.19422254  0.08393503  0.48557332  1
  P  P242  1  0.19383799  0.08413723  0.73525368  1
  P  P243  1  0.19809189  0.08398980  0.98439539  1
  P  P244  1  0.19619884  0.41641902  0.23604665  1
  P  P245  1  0.19605638  0.41684734  0.48426345  1
  P  P246  1  0.19592747  0.41685289  0.73631748  1
  P  P247  1  0.19638469  0.41618886  0.98601175  1
  P  P248  1  0.19772495  0.75030940  0.23507895  1
  P  P249  1  0.19801467  0.74904312  0.48489353  1
  P  P250  1  0.19606184  0.74907978  0.73589630  1
  P  P251  1  0.19491835  0.74998304  0.98561911  1
  P  P252  1  0.69495454  0.08464890  0.23431712  1
  P  P253  1  0.69802413  0.08251098  0.48502521  1
  P  P254  1  0.69548009  0.08498488  0.73644701  1
  P  P255  1  0.69579870  0.08289959  0.98599566  1
  P  P256  1  0.69749790  0.41693656  0.23464389  1
  P  P257  1  0.69611465  0.41749061  0.48519436  1
  P  P258  1  0.69693707  0.41538456  0.73514253  1
  P  P259  1  0.69700153  0.41677856  0.98489749  1
  P  P260  1  0.69782423  0.74839079  0.23526455  1
  P  P261  1  0.69738683  0.74986462  0.48554689  1
  P  P262  1  0.69682012  0.74953788  0.73464155  1
  P  P263  1  0.69687975  0.75077045  0.98485676  1
  P  P264  1  0.30404286  0.24950326  0.01559899  1
  P  P265  1  0.30436961  0.24981768  0.26421593  1
  P  P266  1  0.30328493  0.25014785  0.51447180  1
  P  P267  1  0.30251513  0.25060765  0.76358615  1
  P  P268  1  0.30380996  0.58239455  0.01596927  1
  P  P269  1  0.30417767  0.58332881  0.26405438  1
  P  P270  1  0.30363977  0.58378448  0.51421791  1
  P  P271  1  0.30279704  0.58310196  0.76375855  1
  P  P272  1  0.30318464  0.91813796  0.01497400  1
  P  P273  1  0.30312062  0.91694282  0.26542436  1
  P  P274  1  0.30391309  0.91604102  0.51427827  1
  P  P275  1  0.30293100  0.91592023  0.76498352  1
  P  P276  1  0.80648628  0.24916085  0.01437591  1
  P  P277  1  0.80324537  0.25130747  0.26351513  1
  P  P278  1  0.80354827  0.24905292  0.51461645  1
  P  P279  1  0.80329326  0.25006368  0.76617019  1
  P  P280  1  0.80580468  0.58331775  0.01369189  1
  P  P281  1  0.80258093  0.58261267  0.26470618  1
  P  P282  1  0.80283631  0.58372281  0.51532880  1
  P  P283  1  0.80576891  0.58282388  0.76486870  1
  P  P284  1  0.80236213  0.91772680  0.01502443  1
  P  P285  1  0.80291445  0.91587085  0.26473586  1
  P  P286  1  0.80291184  0.91702958  0.51513215  1
  P  P287  1  0.80505457  0.91710272  0.76430764  1
  O  O288  1  0.05977665  0.24990296  0.18848916  1
  O  O289  1  0.05959632  0.25004400  0.43723019  1
  O  O290  1  0.05939249  0.25052827  0.68705836  1
  O  O291  1  0.05632160  0.25016490  0.93682904  1
  O  O292  1  0.06013083  0.58334738  0.18912856  1
  O  O293  1  0.06012869  0.58396025  0.43741965  1
  O  O294  1  0.05919086  0.58363362  0.68646599  1
  O  O295  1  0.05713234  0.58273598  0.93645216  1
  O  O296  1  0.05993182  0.91680184  0.18855206  1
  O  O297  1  0.05659824  0.91645730  0.43579830  1
  O  O298  1  0.05557165  0.91607922  0.68605995  1
  O  O299  1  0.05604530  0.91667197  0.93702388  1
  O  O300  1  0.55791187  0.25076473  0.18792246  1
  O  O301  1  0.55604608  0.25051362  0.43577106  1
  O  O302  1  0.55765927  0.25050387  0.68744916  1
  O  O303  1  0.55678994  0.25028531  0.93659321  1
  O  O304  1  0.55806790  0.58311062  0.18795510  1
  O  O305  1  0.55887860  0.58355008  0.43712332  1
  O  O306  1  0.55592524  0.58323939  0.68575342  1
  O  O307  1  0.55573757  0.58303613  0.93645674  1
  O  O308  1  0.55612827  0.91640886  0.18661601  1
  O  O309  1  0.55870669  0.91618782  0.43816138  1
  O  O310  1  0.55677176  0.91633618  0.68558462  1
  O  O311  1  0.55886522  0.91688329  0.93782466  1
  O  O312  1  0.44133860  0.08342836  0.06294711  1
  O  O313  1  0.44082903  0.08318966  0.31199383  1
  O  O314  1  0.44271031  0.08382891  0.56331487  1
  O  O315  1  0.44296619  0.08344045  0.81401045  1
  O  O316  1  0.44042564  0.41643340  0.06269693  1
  O  O317  1  0.44021355  0.41676143  0.31142487  1
  O  O318  1  0.44207836  0.41676409  0.56351853  1
  O  O319  1  0.43945473  0.41645076  0.81296991  1
  O  O320  1  0.44310536  0.75013763  0.06426219  1
  O  O321  1  0.43961420  0.75005036  0.31238026  1
  O  O322  1  0.44033008  0.74941399  0.56251422  1
  O  O323  1  0.44036121  0.74996053  0.81231478  1
  O  O324  1  0.94117274  0.08321986  0.06236932  1
  O  O325  1  0.94321912  0.08388036  0.31334778  1
  O  O326  1  0.94166243  0.08334878  0.56182175  1
  O  O327  1  0.94472520  0.08373644  0.81401427  1
  O  O328  1  0.94450457  0.41669226  0.06479043  1
  O  O329  1  0.94198033  0.41663371  0.31208369  1
  O  O330  1  0.94440341  0.41683382  0.56254461  1
  O  O331  1  0.94574187  0.41670755  0.81311833  1
  O  O332  1  0.94428096  0.74965536  0.06436335  1
  O  O333  1  0.94054279  0.74938458  0.31249849  1
  O  O334  1  0.94078595  0.74989142  0.56115639  1
  O  O335  1  0.94513346  0.74966087  0.81333308  1
  O  O336  1  0.19434146  0.08392762  0.06106670  1
  O  O337  1  0.19239146  0.08356747  0.31328863  1
  O  O338  1  0.19024355  0.08270862  0.56236172  1
  O  O339  1  0.18991525  0.08349602  0.81207799  1
  O  O340  1  0.19172605  0.41616802  0.06267664  1
  O  O341  1  0.19202390  0.41629335  0.31275566  1
  O  O342  1  0.19383541  0.41689559  0.56098069  1
  O  O343  1  0.19175247  0.41664754  0.81316352  1
  O  O344  1  0.19098604  0.74989761  0.06237822  1
  O  O345  1  0.19442679  0.75011090  0.31180466  1
  O  O346  1  0.19411822  0.74974145  0.56158273  1
  O  O347  1  0.19125775  0.74979263  0.81259815  1
  O  O348  1  0.69082231  0.08395968  0.06266201  1
  O  O349  1  0.69217179  0.08416821  0.31115042  1
  O  O350  1  0.69440697  0.08347187  0.56176892  1
  O  O351  1  0.69142997  0.08435947  0.81318370  1
  O  O352  1  0.69294645  0.41679637  0.06164702  1
  O  O353  1  0.69371674  0.41658047  0.31134798  1
  O  O354  1  0.69291996  0.41686171  0.56192385  1
  O  O355  1  0.69363187  0.41616466  0.81186034  1
  O  O356  1  0.69352584  0.74975952  0.06164707  1
  O  O357  1  0.69381968  0.74902994  0.31192713  1
  O  O358  1  0.69372850  0.74969453  0.56219711  1
  O  O359  1  0.69335676  0.74948940  0.81140014  1
  O  O360  1  0.30875859  0.24961719  0.18752528  1
  O  O361  1  0.30807623  0.25001406  0.43777393  1
  O  O362  1  0.30702195  0.24982138  0.68694119  1
  O  O363  1  0.30616404  0.24928960  0.93872575  1
  O  O364  1  0.30819043  0.58327057  0.18735861  1
  O  O365  1  0.30805484  0.58303610  0.43746663  1
  O  O366  1  0.30695237  0.58305111  0.68708744  1
  O  O367  1  0.30599431  0.58324375  0.93911292  1
  O  O368  1  0.30639902  0.91718118  0.18872981  1
  O  O369  1  0.30787900  0.91707433  0.43750237  1
  O  O370  1  0.30609210  0.91675967  0.68820406  1
  O  O371  1  0.30609894  0.91745202  0.93821928  1
  O  O372  1  0.80830621  0.25080701  0.18683645  1
  O  O373  1  0.80683255  0.24963922  0.43784318  1
  O  O374  1  0.80764096  0.25003028  0.68944993  1
  O  O375  1  0.81098517  0.25022937  0.93764385  1
  O  O376  1  0.80635128  0.58263043  0.18798052  1
  O  O377  1  0.80670652  0.58277052  0.43865505  1
  O  O378  1  0.81010870  0.58279562  0.68808561  1
  O  O379  1  0.81097588  0.58291328  0.93699588  1
  O  O380  1  0.80599181  0.91675495  0.18796973  1
  O  O381  1  0.80619336  0.91727480  0.43839180  1
  O  O382  1  0.80960409  0.91705702  0.68755346  1
  O  O383  1  0.80627478  0.91718525  0.93827994  1
  O  O384  1  0.23456227  0.24967004  0.04144433  1
  O  O385  1  0.23390798  0.25001999  0.28781453  1
  O  O386  1  0.23282403  0.25028491  0.53773682  1
  O  O387  1  0.23228575  0.25049340  0.78774218  1
  O  O388  1  0.23419452  0.58300646  0.04129704  1
  O  O389  1  0.23372446  0.58339394  0.28784545  1
  O  O390  1  0.23331058  0.58287712  0.53806570  1
  O  O391  1  0.23273286  0.58304905  0.78845293  1
  O  O392  1  0.23366283  0.91779124  0.04045639  1
  O  O393  1  0.23302694  0.91668129  0.29024148  1
  O  O394  1  0.23399941  0.91591987  0.53880583  1
  O  O395  1  0.23323917  0.91642488  0.79001793  1
  O  O396  1  0.73615746  0.24993879  0.03786614  1
  O  O397  1  0.73286848  0.25067201  0.28718515  1
  O  O398  1  0.73386149  0.24960184  0.53982146  1
  O  O399  1  0.73326270  0.25006125  0.79041894  1
  O  O400  1  0.73556071  0.58338318  0.03718564  1
  O  O401  1  0.73261774  0.58282236  0.28958252  1
  O  O402  1  0.73266164  0.58353336  0.53978529  1
  O  O403  1  0.73561526  0.58280654  0.78860593  1
  O  O404  1  0.73239440  0.91711083  0.03965496  1
  O  O405  1  0.73324204  0.91619264  0.28998798  1
  O  O406  1  0.73295316  0.91655452  0.54025426  1
  O  O407  1  0.73492370  0.91740075  0.78791187  1
  O  O408  1  0.26734017  0.08343619  0.21284937  1
  O  O409  1  0.26429821  0.08366565  0.46161213  1
  O  O410  1  0.26388386  0.08337677  0.71101897  1
  O  O411  1  0.26805495  0.08419195  0.95968481  1
  O  O412  1  0.26668451  0.41651959  0.21251634  1
  O  O413  1  0.26563806  0.41693931  0.45867528  1
  O  O414  1  0.26599295  0.41659169  0.71179769  1
  O  O415  1  0.26670934  0.41608725  0.96239296  1
  O  O416  1  0.26786747  0.75031251  0.21045558  1
  O  O417  1  0.26797857  0.74946085  0.46030482  1
  O  O418  1  0.26632452  0.74910629  0.71210177  1
  O  O419  1  0.26498027  0.74966483  0.96161910  1
  O  O420  1  0.76474909  0.08377612  0.20937542  1
  O  O421  1  0.76792863  0.08293918  0.45993620  1
  O  O422  1  0.76553448  0.08417151  0.71231272  1
  O  O423  1  0.76622526  0.08364700  0.96233760  1
  O  O424  1  0.76743125  0.41704226  0.20965640  1
  O  O425  1  0.76586918  0.41693046  0.46002424  1
  O  O426  1  0.76663044  0.41605655  0.71002632  1
  O  O427  1  0.76696418  0.41637091  0.96067366  1
  O  O428  1  0.76785328  0.74895091  0.21047451  1
  O  O429  1  0.76751152  0.74981186  0.46094214  1
  O  O430  1  0.76666766  0.74952894  0.71018973  1
  O  O431  1  0.76659592  0.75068418  0.95967993  1
  O  O432  1  0.01566235  0.08409383  0.16297959  1
  O  O433  1  0.01792088  0.08364563  0.41371783  1
  O  O434  1  0.01669448  0.08325413  0.66230454  1
  O  O435  1  0.01798516  0.08396142  0.91576640  1
  O  O436  1  0.01815838  0.41640609  0.16583116  1
  O  O437  1  0.01813088  0.41645082  0.41164811  1
  O  O438  1  0.01704857  0.41707743  0.66443533  1
  O  O439  1  0.01921079  0.41645172  0.91495712  1
  O  O440  1  0.01821691  0.74959637  0.16539810  1
  O  O441  1  0.01501787  0.75023530  0.41299397  1
  O  O442  1  0.01498901  0.74984082  0.66229237  1
  O  O443  1  0.01901660  0.74900308  0.91470206  1
  O  O444  1  0.51589461  0.08325179  0.16353860  1
  O  O445  1  0.51428362  0.08423354  0.41365411  1
  O  O446  1  0.51600295  0.08356889  0.66483132  1
  O  O447  1  0.51758602  0.08429213  0.91474370  1
  O  O448  1  0.51377708  0.41663891  0.16417963  1
  O  O449  1  0.51423969  0.41664731  0.41267177  1
  O  O450  1  0.51414940  0.41689717  0.66590194  1
  O  O451  1  0.51404046  0.41613079  0.91377133  1
  O  O452  1  0.51539308  0.75016266  0.16664145  1
  O  O453  1  0.51378316  0.74948863  0.41324609  1
  O  O454  1  0.51409926  0.74988084  0.66368658  1
  O  O455  1  0.51494563  0.74958687  0.91318700  1
  O  O456  1  0.48254565  0.25002861  0.08781747  1
  O  O457  1  0.48184550  0.24973489  0.33501795  1
  O  O458  1  0.48166968  0.25096463  0.58748004  1
  O  O459  1  0.48386479  0.24942481  0.83503920  1
  O  O460  1  0.48212274  0.58290891  0.08812443  1
  O  O461  1  0.48270099  0.58343133  0.33792330  1
  O  O462  1  0.48126687  0.58271457  0.58515520  1
  O  O463  1  0.48263532  0.58334959  0.83486283  1
  O  O464  1  0.48414084  0.91690538  0.08431498  1
  O  O465  1  0.48227205  0.91661791  0.33852980  1
  O  O466  1  0.48381774  0.91664973  0.58408702  1
  O  O467  1  0.48490140  0.91734845  0.83646725  1
  O  O468  1  0.98395835  0.25091974  0.08853249  1
  O  O469  1  0.98619676  0.24965169  0.33591349  1
  O  O470  1  0.98581584  0.25021258  0.58576924  1
  O  O471  1  0.98328583  0.24995008  0.83477586  1
  O  O472  1  0.98599290  0.58271088  0.08796521  1
  O  O473  1  0.98610241  0.58313264  0.33668977  1
  O  O474  1  0.98403017  0.58352107  0.58604641  1
  O  O475  1  0.98394830  0.58316120  0.83470177  1
  O  O476  1  0.98531205  0.91603242  0.08766818  1
  O  O477  1  0.98437685  0.91719958  0.33374690  1
  O  O478  1  0.98174440  0.91696503  0.58463822  1
  O  O479  1  0.98394979  0.91707198  0.83436898  1
  O  O480  1  0.08748997  0.31620679  0.07882423  1
  O  O481  1  0.09010468  0.31459861  0.32740140  1
  O  O482  1  0.09004432  0.31401379  0.57695300  1
  O  O483  1  0.08739514  0.31503167  0.82739217  1
  O  O484  1  0.08921424  0.64817759  0.07925845  1
  O  O485  1  0.08991887  0.64794395  0.32728811  1
  O  O486  1  0.08785054  0.64857014  0.57631347  1
  O  O487  1  0.08803387  0.64783911  0.82689393  1
  O  O488  1  0.08870925  0.98095260  0.07834342  1
  O  O489  1  0.08825180  0.98282577  0.32711380  1
  O  O490  1  0.08582438  0.98193099  0.57718217  1
  O  O491  1  0.08770570  0.98201925  0.82840199  1
  O  O492  1  0.58626469  0.31454492  0.07741670  1
  O  O493  1  0.58557202  0.31528966  0.32583229  1
  O  O494  1  0.58536779  0.31565385  0.57735480  1
  O  O495  1  0.58772182  0.31427381  0.82672782  1
  O  O496  1  0.58552898  0.64842916  0.07784062  1
  O  O497  1  0.58651757  0.64840637  0.32679990  1
  O  O498  1  0.58510226  0.64808147  0.57584192  1
  O  O499  1  0.58663395  0.64787199  0.82702089  1
  O  O500  1  0.58788507  0.98269242  0.07797334  1
  O  O501  1  0.58583648  0.98159209  0.32814589  1
  O  O502  1  0.58806376  0.98127721  0.57633092  1
  O  O503  1  0.58818172  0.98323450  0.82867048  1
  O  O504  1  0.41183038  0.01900698  0.17309365  1
  O  O505  1  0.41094421  0.01859582  0.42189235  1
  O  O506  1  0.41217854  0.01913975  0.67269777  1
  O  O507  1  0.41396778  0.01862882  0.92395012  1
  O  O508  1  0.40996562  0.35146418  0.17231859  1
  O  O509  1  0.41090396  0.35120901  0.42098630  1
  O  O510  1  0.41004871  0.35196117  0.67275165  1
  O  O511  1  0.41030034  0.35118765  0.92270349  1
  O  O512  1  0.41161758  0.68432045  0.17320004  1
  O  O513  1  0.40995090  0.68466376  0.42202647  1
  O  O514  1  0.41083708  0.68329205  0.67195348  1
  O  O515  1  0.41105365  0.68529925  0.92219733  1
  O  O516  1  0.91214541  0.01923060  0.17252975  1
  O  O517  1  0.91380891  0.01882343  0.42293634  1
  O  O518  1  0.91327874  0.01768277  0.67172097  1
  O  O519  1  0.91356467  0.01958868  0.92369138  1
  O  O520  1  0.91402362  0.35097383  0.17407647  1
  O  O521  1  0.91464006  0.35128047  0.42215576  1
  O  O522  1  0.91328997  0.35257174  0.67207866  1
  O  O523  1  0.91519511  0.35168059  0.92231625  1
  O  O524  1  0.91420962  0.68460453  0.17398688  1
  O  O525  1  0.91146163  0.68480504  0.42259690  1
  O  O526  1  0.91179149  0.68447502  0.67088723  1
  O  O527  1  0.91527796  0.68382880  0.92249335  1
  O  O528  1  0.16381659  0.01825976  0.20337666  1
  O  O529  1  0.16044495  0.01920189  0.45204849  1
  O  O530  1  0.15975336  0.01933742  0.70192665  1
  O  O531  1  0.16382989  0.01917565  0.95162683  1
  O  O532  1  0.16307989  0.35136348  0.20252907  1
  O  O533  1  0.16183840  0.35167970  0.45201907  1
  O  O534  1  0.16224794  0.35195342  0.70327110  1
  O  O535  1  0.16291431  0.35132217  0.95252077  1
  O  O536  1  0.16390203  0.68526272  0.20227754  1
  O  O537  1  0.16440567  0.68397581  0.45227482  1
  O  O538  1  0.16272257  0.68398131  0.70284791  1
  O  O539  1  0.16125344  0.68498118  0.95248185  1
  O  O540  1  0.66018401  0.01977360  0.20215078  1
  O  O541  1  0.66406451  0.01727419  0.45283550  1
  O  O542  1  0.66155290  0.02024261  0.70308530  1
  O  O543  1  0.66275095  0.01762199  0.95291588  1
  O  O544  1  0.66346450  0.35192409  0.20183603  1
  O  O545  1  0.66178410  0.35258021  0.45247631  1
  O  O546  1  0.66314965  0.35000143  0.70291310  1
  O  O547  1  0.66301044  0.35160877  0.95256765  1
  O  O548  1  0.66419317  0.68322743  0.20253179  1
  O  O549  1  0.66351497  0.68480074  0.45278675  1
  O  O550  1  0.66283583  0.68447814  0.70202838  1
  O  O551  1  0.66279874  0.68574523  0.95216707  1
  O  O552  1  0.33850212  0.31458940  0.04765509  1
  O  O553  1  0.33759834  0.31496708  0.29745161  1
  O  O554  1  0.33651967  0.31523864  0.54773739  1
  O  O555  1  0.33594246  0.31562572  0.79662295  1
  O  O556  1  0.33855602  0.64712397  0.04844998  1
  O  O557  1  0.33750220  0.64835055  0.29725426  1
  O  O558  1  0.33672825  0.64894262  0.54733245  1
  O  O559  1  0.33629729  0.64817397  0.79690730  1
  O  O560  1  0.33722606  0.98337238  0.04702667  1
  O  O561  1  0.33698585  0.98193738  0.29835580  1
  O  O562  1  0.33728746  0.98107655  0.54760848  1
  O  O563  1  0.33715066  0.98098996  0.79748506  1
  O  O564  1  0.84044078  0.31383403  0.04801756  1
  O  O565  1  0.83642146  0.31647671  0.29677930  1
  O  O566  1  0.83789172  0.31407087  0.54709455  1
  O  O567  1  0.83746617  0.31501121  0.79898172  1
  O  O568  1  0.83911500  0.64843163  0.04692556  1
  O  O569  1  0.83676307  0.64754997  0.29722816  1
  O  O570  1  0.83678880  0.64887948  0.54769070  1
  O  O571  1  0.83949780  0.64775666  0.79807802  1
  O  O572  1  0.83602505  0.98291461  0.04755244  1
  O  O573  1  0.83695728  0.98102058  0.29734840  1
  O  O574  1  0.83681113  0.98217329  0.54785267  1
  O  O575  1  0.83856103  0.98205680  0.79752934  1
  O  O576  1  0.41217845  0.14896509  0.17281382  1
  O  O577  1  0.41053334  0.14892998  0.42117595  1
  O  O578  1  0.41237794  0.14935192  0.67258760  1
  O  O579  1  0.41319754  0.14839398  0.92353738  1
  O  O580  1  0.40992656  0.48152911  0.17247624  1
  O  O581  1  0.41068792  0.48158258  0.42121808  1
  O  O582  1  0.41018717  0.48202243  0.67246233  1
  O  O583  1  0.41023926  0.48110075  0.92298583  1
  O  O584  1  0.41108917  0.81435062  0.17340555  1
  O  O585  1  0.41018187  0.81489652  0.42240178  1
  O  O586  1  0.40978310  0.81343211  0.67257020  1
  O  O587  1  0.41185013  0.81535302  0.92227736  1
  O  O588  1  0.91225215  0.14950500  0.17201695  1
  O  O589  1  0.91408426  0.14875680  0.42320768  1
  O  O590  1  0.91320926  0.14787205  0.67211061  1
  O  O591  1  0.91400886  0.14958356  0.92289355  1
  O  O592  1  0.91398009  0.48087125  0.17455946  1
  O  O593  1  0.91449951  0.48135720  0.42230572  1
  O  O594  1  0.91361852  0.48281191  0.67146764  1
  O  O595  1  0.91564503  0.48186710  0.92260564  1
  O  O596  1  0.91390324  0.81448605  0.17374454  1
  O  O597  1  0.91093481  0.81482660  0.42203491  1
  O  O598  1  0.91159025  0.81500159  0.67098864  1
  O  O599  1  0.91529247  0.81409239  0.92304547  1
  O  O600  1  0.08741090  0.18610909  0.07784461  1
  O  O601  1  0.08989377  0.18450227  0.32758398  1
  O  O602  1  0.08909635  0.18400000  0.57781891  1
  O  O603  1  0.08731715  0.18494286  0.82769717  1
  O  O604  1  0.08944745  0.51775869  0.07953335  1
  O  O605  1  0.09001415  0.51794623  0.32789620  1
  O  O606  1  0.08805464  0.51872482  0.57664739  1
  O  O607  1  0.08782230  0.51774359  0.82708045  1
  O  O608  1  0.08878461  0.85059551  0.07929655  1
  O  O609  1  0.08870115  0.85272863  0.32664169  1
  O  O610  1  0.08540684  0.85191902  0.57623504  1
  O  O611  1  0.08739219  0.85152843  0.82777645  1
  O  O612  1  0.58609359  0.18447775  0.07832132  1
  O  O613  1  0.58627733  0.18534384  0.32650985  1
  O  O614  1  0.58513317  0.18557085  0.57706008  1
  O  O615  1  0.58791470  0.18428362  0.82767613  1
  O  O616  1  0.58587084  0.51831281  0.07762493  1
  O  O617  1  0.58642650  0.51846103  0.32662061  1
  O  O618  1  0.58544933  0.51807797  0.57624810  1
  O  O619  1  0.58606302  0.51776495  0.82711983  1
  O  O620  1  0.58841293  0.85257901  0.07726055  1
  O  O621  1  0.58567121  0.85144484  0.32770300  1
  O  O622  1  0.58758216  0.85125349  0.57620233  1
  O  O623  1  0.58849086  0.85284212  0.82763014  1
  O  O624  1  0.33854923  0.18451082  0.04780536  1
  O  O625  1  0.33754474  0.18488478  0.29782660  1
  O  O626  1  0.33654295  0.18531298  0.54818096  1
  O  O627  1  0.33580632  0.18557662  0.79711380  1
  O  O628  1  0.33770422  0.51704397  0.04782515  1
  O  O629  1  0.33738118  0.51827853  0.29752941  1
  O  O630  1  0.33738658  0.51900385  0.54766457  1
  O  O631  1  0.33626044  0.51794554  0.79677951  1
  O  O632  1  0.33738155  0.85313521  0.04755160  1
  O  O633  1  0.33718337  0.85186455  0.29783843  1
  O  O634  1  0.33768428  0.85078718  0.54648746  1
  O  O635  1  0.33676913  0.85066911  0.79709565  1
  O  O636  1  0.83938384  0.18373258  0.04728923  1
  O  O637  1  0.83678017  0.18630708  0.29688139  1
  O  O638  1  0.83740243  0.18380441  0.54692065  1
  O  O639  1  0.83738912  0.18521988  0.79911943  1
  O  O640  1  0.83907411  0.51828023  0.04725278  1
  O  O641  1  0.83640793  0.51738904  0.29742340  1
  O  O642  1  0.83698438  0.51886956  0.54838097  1
  O  O643  1  0.83955132  0.51789665  0.79805395  1
  O  O644  1  0.83661613  0.85277267  0.04767299  1
  O  O645  1  0.83703064  0.85071824  0.29660685  1
  O  O646  1  0.83723844  0.85201290  0.54747923  1
  O  O647  1  0.83824913  0.85191127  0.79756819  1
  O  O648  1  0.16378943  0.14838955  0.20295945  1
  O  O649  1  0.16101172  0.14930943  0.45287705  1
  O  O650  1  0.16048618  0.14945761  0.70268583  1
  O  O651  1  0.16387013  0.14894358  0.95181557  1
  O  O652  1  0.16293721  0.48147269  0.20282681  1
  O  O653  1  0.16164814  0.48181675  0.45205662  1
  O  O654  1  0.16272858  0.48206491  0.70323784  1
  O  O655  1  0.16301784  0.48116285  0.95255049  1
  O  O656  1  0.16383562  0.81536298  0.20258698  1
  O  O657  1  0.16399634  0.81395702  0.45197874  1
  O  O658  1  0.16289062  0.81410755  0.70217558  1
  O  O659  1  0.16139682  0.81497211  0.95243790  1
  O  O660  1  0.66124014  0.14992784  0.20188145  1
  O  O661  1  0.66368238  0.14741737  0.45231567  1
  O  O662  1  0.66238723  0.15041927  0.70347943  1
  O  O663  1  0.66212069  0.14772278  0.95238956  1
  O  O664  1  0.66341724  0.48216051  0.20235028  1
  O  O665  1  0.66230371  0.48283090  0.45296963  1
  O  O666  1  0.66249213  0.48021265  0.70243086  1
  O  O667  1  0.66328215  0.48180290  0.95211644  1
  O  O668  1  0.66366185  0.81341626  0.20266317  1
  O  O669  1  0.66375794  0.81502523  0.45269166  1
  O  O670  1  0.66292055  0.81461891  0.70210467  1
  O  O671  1  0.66283064  0.81613786  0.95302850  1
