# generated using pymatgen
data_Na2MnFe(PO4)2
_symmetry_space_group_name_H-M   'P 1'
_cell_length_a   21.08661096
_cell_length_b   18.93939178
_cell_length_c   20.04572978
_cell_angle_alpha   90.00034803
_cell_angle_beta   89.99681153
_cell_angle_gamma   90.00022510
_symmetry_Int_Tables_number   1
_chemical_formula_structural   Na2MnFe(PO4)2
_chemical_formula_sum   'Na96 Mn48 Fe48 P96 O384'
_cell_volume   8005.61470369
_cell_formula_units_Z   48
loop_
 _symmetry_equiv_pos_site_id
 _symmetry_equiv_pos_as_xyz
  1  'x, y, z'
loop_
 _atom_site_type_symbol
 _atom_site_label
 _atom_site_symmetry_multiplicity
 _atom_site_fract_x
 _atom_site_fract_y
 _atom_site_fract_z
 _atom_site_occupancy
  Na  Na0  1  0.00053866  0.00006760  0.00071169  1
  Na  Na1  1  0.00300369  0.00068498  0.24915431  1
  Na  Na2  1  0.00245672  -0.00016851  0.49944050  1
  Na  Na3  1  0.00001857  -0.00105060  0.75115448  1
  Na  Na4  1  0.00185552  0.33339871  -0.00027428  1
  Na  Na5  1  0.00263628  0.33348922  0.24932708  1
  Na  Na6  1  0.00027595  0.33339605  0.50073591  1
  Na  Na7  1  -0.00011814  0.33304821  0.75027675  1
  Na  Na8  1  -0.00088954  0.66726215  0.00027861  1
  Na  Na9  1  -0.00074010  0.66663361  0.24882350  1
  Na  Na10  1  -0.00036957  0.66727914  0.50023352  1
  Na  Na11  1  -0.00213497  0.66642753  0.75074731  1
  Na  Na12  1  0.49960042  -0.00048575  0.00110949  1
  Na  Na13  1  0.49976941  -0.00005311  0.24979142  1
  Na  Na14  1  0.50011424  0.00032972  0.49838377  1
  Na  Na15  1  0.49918060  -0.00084902  0.75111628  1
  Na  Na16  1  0.50189852  0.33399647  0.00083977  1
  Na  Na17  1  0.49995995  0.33346519  0.24898529  1
  Na  Na18  1  0.49787072  0.33257338  0.50036676  1
  Na  Na19  1  0.50022039  0.33334568  0.74995613  1
  Na  Na20  1  0.49792516  0.66641150  -0.00031865  1
  Na  Na21  1  0.49639013  0.66584025  0.25091883  1
  Na  Na22  1  0.49764110  0.66676252  0.49982450  1
  Na  Na23  1  0.49874544  0.66686538  0.74884655  1
  Na  Na24  1  0.24918942  -0.00040333  0.12519871  1
  Na  Na25  1  0.24935836  -0.00039652  0.37497383  1
  Na  Na26  1  0.24968638  -0.00092861  0.62493506  1
  Na  Na27  1  0.25245380  0.00057793  0.87482790  1
  Na  Na28  1  0.24812528  0.33287763  0.12608514  1
  Na  Na29  1  0.24864250  0.33324783  0.37536747  1
  Na  Na30  1  0.24786097  0.33317469  0.62382422  1
  Na  Na31  1  0.24867106  0.33344960  0.87526548  1
  Na  Na32  1  0.25247086  0.66769906  0.12496331  1
  Na  Na33  1  0.25114967  0.66735839  0.37521980  1
  Na  Na34  1  0.25113286  0.66765586  0.62469426  1
  Na  Na35  1  0.25069507  0.66684472  0.87524999  1
  Na  Na36  1  0.74751406  -0.00098546  0.12545364  1
  Na  Na37  1  0.74957231  -0.00000725  0.37573755  1
  Na  Na38  1  0.74885810  -0.00082866  0.62415990  1
  Na  Na39  1  0.74999479  0.00040175  0.87508438  1
  Na  Na40  1  0.74780820  0.33221769  0.12418630  1
  Na  Na41  1  0.75156822  0.33337290  0.37497580  1
  Na  Na42  1  0.75277700  0.33417142  0.62507584  1
  Na  Na43  1  0.74929290  0.33296205  0.87507624  1
  Na  Na44  1  0.75081467  0.66739643  0.12468059  1
  Na  Na45  1  0.75134661  0.66677690  0.37571051  1
  Na  Na46  1  0.75215877  0.66696705  0.62484583  1
  Na  Na47  1  0.75165743  0.66751392  0.87412499  1
  Na  Na48  1  0.00041474  0.16698143  0.00068835  1
  Na  Na49  1  0.00186610  0.16594739  0.24879616  1
  Na  Na50  1  0.00026161  0.16690703  0.50059015  1
  Na  Na51  1  -0.00035929  0.16680773  0.75104859  1
  Na  Na52  1  -0.00087455  0.50020715  -0.00091652  1
  Na  Na53  1  0.00159008  0.49902487  0.24991952  1
  Na  Na54  1  -0.00163679  0.50067567  0.50011977  1
  Na  Na55  1  -0.00163848  0.50038812  0.75030010  1
  Na  Na56  1  0.00141643  0.83317264  0.00046304  1
  Na  Na57  1  0.00190966  0.83369706  0.24876176  1
  Na  Na58  1  0.00244160  0.83281963  0.49964454  1
  Na  Na59  1  0.00136080  0.83274313  0.75115118  1
  Na  Na60  1  0.50000362  0.16672259  0.00093755  1
  Na  Na61  1  0.49986653  0.16643267  0.24917916  1
  Na  Na62  1  0.49998311  0.16642021  0.49860416  1
  Na  Na63  1  0.50177255  0.16610444  0.75096187  1
  Na  Na64  1  0.49767946  0.50069055  0.00028492  1
  Na  Na65  1  0.49743622  0.50033092  0.25000739  1
  Na  Na66  1  0.49761566  0.50044122  0.50045929  1
  Na  Na67  1  0.49962690  0.49942792  0.74928478  1
  Na  Na68  1  0.50183072  0.83246588  0.00040172  1
  Na  Na69  1  0.49902241  0.83390652  0.25048085  1
  Na  Na70  1  0.49818345  0.83362781  0.49932191  1
  Na  Na71  1  0.49751907  0.83442483  0.74968997  1
  Na  Na72  1  0.24933242  0.16647750  0.12591221  1
  Na  Na73  1  0.24987300  0.16609058  0.37521679  1
  Na  Na74  1  0.24877177  0.16746445  0.62394635  1
  Na  Na75  1  0.24925545  0.16707334  0.87572712  1
  Na  Na76  1  0.25072940  0.49976337  0.12562900  1
  Na  Na77  1  0.25031344  0.49919427  0.37434357  1
  Na  Na78  1  0.24879952  0.50051563  0.62429935  1
  Na  Na79  1  0.25223412  0.49898039  0.87575620  1
  Na  Na80  1  0.24927127  0.83402170  0.12483822  1
  Na  Na81  1  0.25024950  0.83312710  0.37578454  1
  Na  Na82  1  0.25041435  0.83304819  0.62541202  1
  Na  Na83  1  0.24944232  0.83366299  0.87375739  1
  Na  Na84  1  0.74773429  0.16740771  0.12468474  1
  Na  Na85  1  0.74995649  0.16652226  0.37586250  1
  Na  Na86  1  0.74967821  0.16719757  0.62392568  1
  Na  Na87  1  0.75115613  0.16580419  0.87554456  1
  Na  Na88  1  0.74939738  0.50079298  0.12429804  1
  Na  Na89  1  0.75300561  0.49955357  0.37527995  1
  Na  Na90  1  0.75335591  0.49963283  0.62529741  1
  Na  Na91  1  0.75121013  0.49985997  0.87412723  1
  Na  Na92  1  0.74850654  0.83387078  0.12534116  1
  Na  Na93  1  0.74900848  0.83431971  0.37524529  1
  Na  Na94  1  0.75021465  0.83315599  0.62476070  1
  Na  Na95  1  0.74890110  0.83348245  0.87454536  1
  Mn  Mn96  1  0.64250031  0.25057241  0.49740850  1
  Mn  Mn97  1  0.10832400  0.08267417  0.62299999  1
  Mn  Mn98  1  0.10798103  0.08299697  0.87331565  1
  Mn  Mn99  1  0.60765838  0.41688682  0.37349609  1
  Mn  Mn100  1  0.89259570  0.91717025  0.12706516  1
  Mn  Mn101  1  0.35753550  0.08317570  0.50257737  1
  Mn  Mn102  1  0.35726062  0.41660207  0.75211196  1
  Mn  Mn103  1  0.85724407  0.41641015  0.00241404  1
  Mn  Mn104  1  0.39196441  0.24905670  0.62763073  1
  Mn  Mn105  1  0.39212995  0.91627965  0.12735345  1
  Mn  Mn106  1  0.64311706  0.58337947  0.49783638  1
  Mn  Mn107  1  0.10761800  0.41756492  0.87264613  1
  Mn  Mn108  1  0.14159060  0.58382317  0.49744742  1
  Mn  Mn109  1  0.14244476  0.58363817  0.24783925  1
  Mn  Mn110  1  0.35835628  0.08392828  0.75227816  1
  Mn  Mn111  1  0.89279582  0.25006697  0.12701952  1
  Mn  Mn112  1  0.35795726  0.75019696  0.00180974  1
  Mn  Mn113  1  0.10853165  0.74958099  0.12235145  1
  Mn  Mn114  1  0.85846228  0.08303498  0.50172497  1
  Mn  Mn115  1  0.39197180  0.25031002  0.87782514  1
  Mn  Mn116  1  0.35688634  0.41596035  0.25306148  1
  Mn  Mn117  1  0.89288036  0.91602050  0.62673063  1
  Mn  Mn118  1  0.85798839  0.75088123  0.25271990  1
  Mn  Mn119  1  0.14314122  0.91693792  0.74801722  1
  Mn  Mn120  1  0.14307185  0.58354215  0.99743445  1
  Mn  Mn121  1  0.60737365  0.41719670  0.12292488  1
  Mn  Mn122  1  0.60722910  0.74955914  0.12337103  1
  Mn  Mn123  1  0.14174001  0.24952461  0.49690427  1
  Mn  Mn124  1  0.64287398  0.25020475  0.74791334  1
  Mn  Mn125  1  0.64155683  0.91653004  0.74739551  1
  Mn  Mn126  1  0.85888046  0.75025248  0.50176825  1
  Mn  Mn127  1  0.89214865  0.58276976  0.12700789  1
  Mn  Mn128  1  0.39205415  0.25005150  0.12728040  1
  Mn  Mn129  1  0.89218246  0.91676767  0.87808820  1
  Mn  Mn130  1  0.60715594  0.75054710  0.62276558  1
  Mn  Mn131  1  0.85776117  0.08318214  0.25176081  1
  Mn  Mn132  1  0.60857703  0.41632001  0.62205362  1
  Mn  Mn133  1  0.14193313  0.58294723  0.74815365  1
  Mn  Mn134  1  0.64147044  0.58383443  0.99700693  1
  Mn  Mn135  1  0.85788131  0.08312874  0.75213409  1
  Mn  Mn136  1  0.64308531  0.58321461  0.74791839  1
  Mn  Mn137  1  0.60766132  0.08318581  0.87318019  1
  Mn  Mn138  1  0.64162895  0.58332058  0.24847318  1
  Mn  Mn139  1  0.39148267  0.58356363  0.62761456  1
  Mn  Mn140  1  0.89289661  0.24984098  0.62770046  1
  Mn  Mn141  1  0.60702270  0.08376210  0.37210004  1
  Mn  Mn142  1  0.85848670  0.41611558  0.25173314  1
  Mn  Mn143  1  0.60641385  0.74922943  0.37309391  1
  Fe  Fe144  1  0.39283781  0.58334455  0.87623055  1
  Fe  Fe145  1  0.85663819  0.75114430  0.00119148  1
  Fe  Fe146  1  0.35660405  0.08312933  0.25144382  1
  Fe  Fe147  1  0.14326545  0.91684080  0.24886527  1
  Fe  Fe148  1  0.85815638  0.41655417  0.75250383  1
  Fe  Fe149  1  0.10640402  0.41763803  0.62342903  1
  Fe  Fe150  1  0.60703701  0.74907342  0.87282974  1
  Fe  Fe151  1  0.89325557  0.24960228  0.37545349  1
  Fe  Fe152  1  0.60688212  0.41768029  0.87326054  1
  Fe  Fe153  1  0.64223493  0.24993125  0.24897195  1
  Fe  Fe154  1  0.64204035  0.91697519  0.24901198  1
  Fe  Fe155  1  0.35712826  0.74967698  0.75228716  1
  Fe  Fe156  1  0.14340536  0.91701046  0.99798928  1
  Fe  Fe157  1  0.89298116  0.24996504  0.87749692  1
  Fe  Fe158  1  0.89325522  0.58343811  0.37595633  1
  Fe  Fe159  1  0.10760054  0.08324851  0.37289359  1
  Fe  Fe160  1  0.35749851  0.41560408  0.00160485  1
  Fe  Fe161  1  0.10813139  0.41673859  0.12247719  1
  Fe  Fe162  1  0.89338648  0.58404387  0.62686185  1
  Fe  Fe163  1  0.35699780  0.08386444  0.00205782  1
  Fe  Fe164  1  0.14233593  0.24920941  0.24886199  1
  Fe  Fe165  1  0.10852620  0.08372983  0.12238428  1
  Fe  Fe166  1  0.39259922  0.91743526  0.62592957  1
  Fe  Fe167  1  0.89253589  0.58348461  0.87709117  1
  Fe  Fe168  1  0.14191607  0.25008395  0.74893542  1
  Fe  Fe169  1  0.39182528  0.91682930  0.37701321  1
  Fe  Fe170  1  0.85914229  0.41634144  0.50137448  1
  Fe  Fe171  1  0.85666643  0.08272810  0.00219493  1
  Fe  Fe172  1  0.35695223  0.75110665  0.25231979  1
  Fe  Fe173  1  0.64263719  0.91663352  0.99827659  1
  Fe  Fe174  1  0.39305515  0.91626671  0.87750730  1
  Fe  Fe175  1  0.39189100  0.58336068  0.12690187  1
  Fe  Fe176  1  0.10774985  0.74993994  0.37308654  1
  Fe  Fe177  1  0.64275272  0.24972992  0.99768164  1
  Fe  Fe178  1  0.60703013  0.08324504  0.12338738  1
  Fe  Fe179  1  0.85805491  0.75047471  0.75241845  1
  Fe  Fe180  1  0.39144632  0.58272932  0.37744732  1
  Fe  Fe181  1  0.64198802  0.91631349  0.49793594  1
  Fe  Fe182  1  0.10766262  0.74914740  0.62400461  1
  Fe  Fe183  1  0.10687182  0.41680572  0.37385812  1
  Fe  Fe184  1  0.35629170  0.41675299  0.50161132  1
  Fe  Fe185  1  0.89369119  0.91690655  0.37643942  1
  Fe  Fe186  1  0.14295903  0.91624814  0.49797788  1
  Fe  Fe187  1  0.35623494  0.74996304  0.50187399  1
  Fe  Fe188  1  0.10684920  0.74949399  0.87345629  1
  Fe  Fe189  1  0.14322748  0.24966588  0.99832673  1
  Fe  Fe190  1  0.60742590  0.08295722  0.62337293  1
  Fe  Fe191  1  0.39183477  0.25029292  0.37607756  1
  P  P192  1  0.05620809  0.24980571  0.11050614  1
  P  P193  1  0.05284823  0.24977573  0.35957512  1
  P  P194  1  0.05502112  0.25086165  0.61151754  1
  P  P195  1  0.05412276  0.24990858  0.86106061  1
  P  P196  1  0.05381150  0.58259698  0.10946875  1
  P  P197  1  0.05237354  0.58370117  0.36011212  1
  P  P198  1  0.05233489  0.58356751  0.61056584  1
  P  P199  1  0.05202371  0.58440756  0.86037313  1
  P  P200  1  0.05633784  0.91757807  0.11041766  1
  P  P201  1  0.05473208  0.91644371  0.36034129  1
  P  P202  1  0.05481980  0.91515148  0.60964480  1
  P  P203  1  0.05494721  0.91592948  0.86175527  1
  P  P204  1  0.55538511  0.24908388  0.11078999  1
  P  P205  1  0.55199919  0.25056921  0.35924830  1
  P  P206  1  0.55354447  0.24891782  0.60984025  1
  P  P207  1  0.55448867  0.25098953  0.86145802  1
  P  P208  1  0.55137471  0.58362037  0.11005177  1
  P  P209  1  0.55102640  0.58299828  0.36054816  1
  P  P210  1  0.55332074  0.58366043  0.60977294  1
  P  P211  1  0.55200119  0.58324056  0.85967490  1
  P  P212  1  0.55515480  0.91727821  0.11099066  1
  P  P213  1  0.55292830  0.91640088  0.36053867  1
  P  P214  1  0.55230716  0.91730199  0.60908968  1
  P  P215  1  0.55350810  0.91567865  0.86153077  1
  P  P216  1  0.44546075  0.08322683  0.13958089  1
  P  P217  1  0.44424501  0.08347752  0.38796930  1
  P  P218  1  0.44811839  0.08247057  0.63995647  1
  P  P219  1  0.44588837  0.08276520  0.89132718  1
  P  P220  1  0.44466305  0.41692681  0.13901114  1
  P  P221  1  0.44538411  0.41605710  0.39060172  1
  P  P222  1  0.44550836  0.41629621  0.63908145  1
  P  P223  1  0.44697811  0.41718323  0.89046948  1
  P  P224  1  0.44540182  0.74968063  0.14084436  1
  P  P225  1  0.44337677  0.75047468  0.38943021  1
  P  P226  1  0.44398309  0.75142503  0.63910862  1
  P  P227  1  0.44660390  0.74992867  0.88854524  1
  P  P228  1  0.94719561  0.08337223  0.13869335  1
  P  P229  1  0.94842367  0.08301842  0.38907559  1
  P  P230  1  0.94755541  0.08256605  0.64033810  1
  P  P231  1  0.94592166  0.08397111  0.89134003  1
  P  P232  1  0.94857627  0.41609439  0.13959595  1
  P  P233  1  0.94768079  0.41607563  0.38980704  1
  P  P234  1  0.94612346  0.41743250  0.63964610  1
  P  P235  1  0.94533978  0.41637741  0.88906893  1
  P  P236  1  0.94561583  0.75063607  0.13866456  1
  P  P237  1  0.94852664  0.75088736  0.38919711  1
  P  P238  1  0.94768401  0.74994609  0.64064457  1
  P  P239  1  0.94587841  0.74978317  0.89001963  1
  P  P240  1  0.19559909  0.08307013  0.23604446  1
  P  P241  1  0.19583627  0.08219549  0.48424908  1
  P  P242  1  0.19723336  0.08405511  0.73514252  1
  P  P243  1  0.19697657  0.08329507  0.98628513  1
  P  P244  1  0.19409712  0.41593032  0.23605503  1
  P  P245  1  0.19527794  0.41724630  0.48533060  1
  P  P246  1  0.19555593  0.41625641  0.73420458  1
  P  P247  1  0.19692761  0.41612823  0.98626638  1
  P  P248  1  0.19677720  0.75074426  0.23637928  1
  P  P249  1  0.19560810  0.75046948  0.48585388  1
  P  P250  1  0.19622570  0.74954949  0.73571913  1
  P  P251  1  0.19636451  0.75081574  0.98401807  1
  P  P252  1  0.69558611  0.08347348  0.23484454  1
  P  P253  1  0.69504331  0.08249932  0.48593482  1
  P  P254  1  0.69616686  0.08335143  0.73404120  1
  P  P255  1  0.69610989  0.08297363  0.98650863  1
  P  P256  1  0.69687085  0.41619474  0.23505705  1
  P  P257  1  0.69923421  0.41697436  0.48480095  1
  P  P258  1  0.69751875  0.41704377  0.73594055  1
  P  P259  1  0.69550809  0.41648196  0.98405940  1
  P  P260  1  0.69633681  0.75049210  0.23550190  1
  P  P261  1  0.69664648  0.75059032  0.48501114  1
  P  P262  1  0.69691077  0.74952225  0.73574476  1
  P  P263  1  0.69651771  0.75068954  0.98428376  1
  P  P264  1  0.30223104  0.24998617  0.01537941  1
  P  P265  1  0.30204986  0.24903764  0.26548548  1
  P  P266  1  0.30415673  0.25079700  0.51357451  1
  P  P267  1  0.30154640  0.25032520  0.76520562  1
  P  P268  1  0.30559820  0.58247204  0.01438077  1
  P  P269  1  0.30480747  0.58410585  0.26461654  1
  P  P270  1  0.30394593  0.58313649  0.51367489  1
  P  P271  1  0.30360122  0.58386402  0.76570767  1
  P  P272  1  0.30369494  0.91712132  0.01381246  1
  P  P273  1  0.30278438  0.91707447  0.26533783  1
  P  P274  1  0.30357441  0.91590929  0.51435251  1
  P  P275  1  0.30602015  0.91601514  0.76427418  1
  P  P276  1  0.80338360  0.24916084  0.01394499  1
  P  P277  1  0.80257266  0.24942186  0.26516025  1
  P  P278  1  0.80579723  0.25040525  0.51347354  1
  P  P279  1  0.80464908  0.25043240  0.76590347  1
  P  P280  1  0.80416148  0.58451937  0.01348424  1
  P  P281  1  0.80396915  0.58337796  0.26566467  1
  P  P282  1  0.80665550  0.58272630  0.51437337  1
  P  P283  1  0.80637470  0.58373909  0.76414087  1
  P  P284  1  0.80206949  0.91657862  0.01504130  1
  P  P285  1  0.80258046  0.91731551  0.26571604  1
  P  P286  1  0.80367460  0.91663334  0.51370355  1
  P  P287  1  0.80339149  0.91600227  0.76494492  1
  O  O288  1  0.05992194  0.24928069  0.18729549  1
  O  O289  1  0.05582564  0.24961666  0.43633691  1
  O  O290  1  0.05859301  0.24993679  0.68830990  1
  O  O291  1  0.05941496  0.24988125  0.93773830  1
  O  O292  1  0.05690278  0.58343795  0.18625418  1
  O  O293  1  0.05552769  0.58400038  0.43680089  1
  O  O294  1  0.05563293  0.58345958  0.68722018  1
  O  O295  1  0.05634037  0.58381308  0.93698101  1
  O  O296  1  0.06052312  0.91693842  0.18720987  1
  O  O297  1  0.05910934  0.91622326  0.43704583  1
  O  O298  1  0.05759643  0.91617132  0.68646864  1
  O  O299  1  0.05924189  0.91699262  0.93846655  1
  O  O300  1  0.55925824  0.24984360  0.18754758  1
  O  O301  1  0.55624945  0.25041777  0.43594153  1
  O  O302  1  0.55688560  0.24999268  0.68664101  1
  O  O303  1  0.55866757  0.25004267  0.93824611  1
  O  O304  1  0.55532163  0.58351763  0.18671697  1
  O  O305  1  0.55590805  0.58324786  0.43714414  1
  O  O306  1  0.55709686  0.58352567  0.68652679  1
  O  O307  1  0.55519633  0.58358885  0.93641080  1
  O  O308  1  0.55897642  0.91672555  0.18776847  1
  O  O309  1  0.55788574  0.91643007  0.43717970  1
  O  O310  1  0.55568424  0.91641564  0.68589880  1
  O  O311  1  0.55852590  0.91622631  0.93819843  1
  O  O312  1  0.44034731  0.08338328  0.06290844  1
  O  O313  1  0.44018062  0.08325846  0.31121768  1
  O  O314  1  0.44426214  0.08333941  0.56322515  1
  O  O315  1  0.44329263  0.08374301  0.81449675  1
  O  O316  1  0.44075165  0.41567579  0.06228067  1
  O  O317  1  0.44275574  0.41598202  0.31374843  1
  O  O318  1  0.44039278  0.41642449  0.56242656  1
  O  O319  1  0.44334976  0.41591342  0.81374196  1
  O  O320  1  0.44291818  0.75096891  0.06401177  1
  O  O321  1  0.43987805  0.75092658  0.31260089  1
  O  O322  1  0.43987977  0.75033499  0.56233050  1
  O  O323  1  0.44211141  0.75019883  0.81189341  1
  O  O324  1  0.94103107  0.08309946  0.06215896  1
  O  O325  1  0.94486168  0.08287218  0.31238520  1
  O  O326  1  0.94448500  0.08263069  0.56354004  1
  O  O327  1  0.94305432  0.08285628  0.81454253  1
  O  O328  1  0.94398255  0.41586962  0.06294625  1
  O  O329  1  0.94468807  0.41585840  0.31306320  1
  O  O330  1  0.94229275  0.41640098  0.56289721  1
  O  O331  1  0.94183158  0.41608396  0.81226733  1
  O  O332  1  0.94077915  0.75127379  0.06198721  1
  O  O333  1  0.94501292  0.75122881  0.31249054  1
  O  O334  1  0.94420121  0.75100391  0.56392000  1
  O  O335  1  0.94157535  0.75095907  0.81328737  1
  O  O336  1  0.19295439  0.08311813  0.06301839  1
  O  O337  1  0.19106481  0.08328515  0.31274906  1
  O  O338  1  0.19302354  0.08306747  0.56102755  1
  O  O339  1  0.19422571  0.08322858  0.81192032  1
  O  O340  1  0.19247375  0.41718938  0.06295090  1
  O  O341  1  0.18973232  0.41686398  0.31285674  1
  O  O342  1  0.19028195  0.41774482  0.56196098  1
  O  O343  1  0.19285067  0.41735569  0.81108076  1
  O  O344  1  0.19384116  0.74975670  0.06087995  1
  O  O345  1  0.19180418  0.74975814  0.31305462  1
  O  O346  1  0.19114400  0.74941876  0.56253314  1
  O  O347  1  0.19100333  0.74918703  0.81233228  1
  O  O348  1  0.69151162  0.08308242  0.06311837  1
  O  O349  1  0.69302181  0.08353315  0.31169618  1
  O  O350  1  0.69097935  0.08296806  0.56265179  1
  O  O351  1  0.69296307  0.08323874  0.81087020  1
  O  O352  1  0.69241998  0.41751485  0.06088108  1
  O  O353  1  0.69404731  0.41699471  0.31181866  1
  O  O354  1  0.69527086  0.41691851  0.56153607  1
  O  O355  1  0.69163480  0.41736022  0.81249556  1
  O  O356  1  0.69276956  0.74951344  0.06098852  1
  O  O357  1  0.69288169  0.74959334  0.31222928  1
  O  O358  1  0.69348439  0.74990487  0.56178559  1
  O  O359  1  0.69113671  0.74943637  0.81236722  1
  O  O360  1  0.30595666  0.24985552  0.18883188  1
  O  O361  1  0.30821537  0.25013887  0.43686947  1
  O  O362  1  0.30545444  0.25012490  0.68849498  1
  O  O363  1  0.30571704  0.25027870  0.93867363  1
  O  O364  1  0.30840843  0.58341790  0.18780131  1
  O  O365  1  0.30759549  0.58283534  0.43687933  1
  O  O366  1  0.30612482  0.58338530  0.68887321  1
  O  O367  1  0.30969044  0.58318465  0.93760009  1
  O  O368  1  0.30612592  0.91691536  0.18860942  1
  O  O369  1  0.30797547  0.91687893  0.43765875  1
  O  O370  1  0.30951330  0.91699632  0.68749530  1
  O  O371  1  0.30860350  0.91630462  0.93714892  1
  O  O372  1  0.80651488  0.24950888  0.18843581  1
  O  O373  1  0.81032959  0.24958339  0.43673666  1
  O  O374  1  0.80758557  0.24994528  0.68903797  1
  O  O375  1  0.80852258  0.24977076  0.93735933  1
  O  O376  1  0.80687477  0.58340645  0.18882323  1
  O  O377  1  0.81099349  0.58370772  0.43756205  1
  O  O378  1  0.81020678  0.58389396  0.68730701  1
  O  O379  1  0.80849559  0.58363733  0.93673046  1
  O  O380  1  0.80685200  0.91715348  0.18903737  1
  O  O381  1  0.80946023  0.91679163  0.43710127  1
  O  O382  1  0.80668833  0.91618603  0.68819262  1
  O  O383  1  0.80579423  0.91683158  0.93836742  1
  O  O384  1  0.23231825  0.24972068  0.04031080  1
  O  O385  1  0.23182306  0.24929352  0.28971306  1
  O  O386  1  0.23405354  0.25019899  0.53752675  1
  O  O387  1  0.23158851  0.25045761  0.78991846  1
  O  O388  1  0.23557706  0.58378672  0.03866497  1
  O  O389  1  0.23481899  0.58322047  0.28912200  1
  O  O390  1  0.23408214  0.58392274  0.53840498  1
  O  O391  1  0.23401720  0.58303443  0.79114212  1
  O  O392  1  0.23344545  0.91668234  0.03768571  1
  O  O393  1  0.23265972  0.91688664  0.28990003  1
  O  O394  1  0.23326260  0.91629196  0.53818079  1
  O  O395  1  0.23598645  0.91682978  0.78857517  1
  O  O396  1  0.73288918  0.24974709  0.03720554  1
  O  O397  1  0.73246247  0.24953379  0.28960531  1
  O  O398  1  0.73576810  0.25038313  0.53763219  1
  O  O399  1  0.73488746  0.24955434  0.79079739  1
  O  O400  1  0.73413004  0.58405704  0.03771028  1
  O  O401  1  0.73434330  0.58326740  0.29096814  1
  O  O402  1  0.73663351  0.58351164  0.53863363  1
  O  O403  1  0.73633275  0.58368081  0.78845723  1
  O  O404  1  0.73201230  0.91644016  0.03958332  1
  O  O405  1  0.73222745  0.91740433  0.28946087  1
  O  O406  1  0.73325537  0.91626410  0.53701319  1
  O  O407  1  0.73363177  0.91670881  0.78989892  1
  O  O408  1  0.26603165  0.08302301  0.21225338  1
  O  O409  1  0.26559385  0.08280822  0.45946143  1
  O  O410  1  0.26675144  0.08352380  0.70947064  1
  O  O411  1  0.26710423  0.08367369  0.96183904  1
  O  O412  1  0.26432707  0.41640038  0.21242063  1
  O  O413  1  0.26560800  0.41665532  0.46174328  1
  O  O414  1  0.26516164  0.41691943  0.70888654  1
  O  O415  1  0.26714079  0.41596011  0.96214004  1
  O  O416  1  0.26709179  0.75107834  0.21257653  1
  O  O417  1  0.26598729  0.74999288  0.46224155  1
  O  O418  1  0.26667298  0.75000228  0.71245603  1
  O  O419  1  0.26610004  0.75045740  0.95902329  1
  O  O420  1  0.76520299  0.08324670  0.20930658  1
  O  O421  1  0.76506526  0.08303996  0.46161904  1
  O  O422  1  0.76588545  0.08323104  0.70906577  1
  O  O423  1  0.76638086  0.08289431  0.96238963  1
  O  O424  1  0.76636881  0.41624600  0.20914019  1
  O  O425  1  0.76931401  0.41660753  0.46051573  1
  O  O426  1  0.76812312  0.41708073  0.71308727  1
  O  O427  1  0.76536312  0.41658944  0.95942868  1
  O  O428  1  0.76603150  0.75068886  0.21037631  1
  O  O429  1  0.76641217  0.75064743  0.46003952  1
  O  O430  1  0.76741567  0.74968233  0.71267085  1
  O  O431  1  0.76666134  0.75069598  0.95989052  1
  O  O432  1  0.01784383  0.08359580  0.16115733  1
  O  O433  1  0.01848424  0.08321415  0.41388892  1
  O  O434  1  0.01710372  0.08256504  0.66579277  1
  O  O435  1  0.01574298  0.08350149  0.91617283  1
  O  O436  1  0.01870455  0.41600471  0.16354062  1
  O  O437  1  0.01770999  0.41660488  0.41493249  1
  O  O438  1  0.01631331  0.41699859  0.66398044  1
  O  O439  1  0.01529726  0.41678656  0.91363206  1
  O  O440  1  0.01583718  0.75022390  0.16224094  1
  O  O441  1  0.01852755  0.75040048  0.41408632  1
  O  O442  1  0.01775185  0.74959958  0.66527226  1
  O  O443  1  0.01620280  0.75015995  0.91389012  1
  O  O444  1  0.51590422  0.08319972  0.16277035  1
  O  O445  1  0.51429221  0.08341545  0.41215883  1
  O  O446  1  0.51791438  0.08239269  0.66508475  1
  O  O447  1  0.51559002  0.08304360  0.91643062  1
  O  O448  1  0.51460290  0.41686503  0.16339989  1
  O  O449  1  0.51499532  0.41654372  0.41617549  1
  O  O450  1  0.51566443  0.41637872  0.66272264  1
  O  O451  1  0.51697884  0.41734244  0.91517268  1
  O  O452  1  0.51496572  0.75004288  0.16631746  1
  O  O453  1  0.51335040  0.75006397  0.41396162  1
  O  O454  1  0.51404969  0.75060909  0.66326034  1
  O  O455  1  0.51674848  0.74955454  0.91299837  1
  O  O456  1  0.48522076  0.24990776  0.08681198  1
  O  O457  1  0.48184984  0.25015795  0.33499998  1
  O  O458  1  0.48381938  0.24930654  0.58486715  1
  O  O459  1  0.48449492  0.25016582  0.83709388  1
  O  O460  1  0.48130586  0.58360177  0.08571423  1
  O  O461  1  0.48066176  0.58294746  0.33705414  1
  O  O462  1  0.48334506  0.58387720  0.58558211  1
  O  O463  1  0.48209229  0.58305950  0.83457277  1
  O  O464  1  0.48504328  0.91632456  0.08692287  1
  O  O465  1  0.48241972  0.91672721  0.33724544  1
  O  O466  1  0.48229861  0.91689826  0.58432754  1
  O  O467  1  0.48312677  0.91646432  0.83800632  1
  O  O468  1  0.98614481  0.24995667  0.08624676  1
  O  O469  1  0.98292398  0.24970398  0.33427170  1
  O  O470  1  0.98517874  0.25044437  0.58686987  1
  O  O471  1  0.98367044  0.24987104  0.83790568  1
  O  O472  1  0.98417432  0.58311284  0.08434201  1
  O  O473  1  0.98246739  0.58329803  0.33490942  1
  O  O474  1  0.98242395  0.58401136  0.58555801  1
  O  O475  1  0.98194702  0.58364596  0.83616778  1
  O  O476  1  0.98616655  0.91695508  0.08658770  1
  O  O477  1  0.98448277  0.91681839  0.33602136  1
  O  O478  1  0.98521699  0.91605825  0.58426603  1
  O  O479  1  0.98492447  0.91606311  0.83767363  1
  O  O480  1  0.08996389  0.31491892  0.07769955  1
  O  O481  1  0.08704245  0.31489657  0.32745232  1
  O  O482  1  0.08834777  0.31624780  0.57892945  1
  O  O483  1  0.08742364  0.31488414  0.82756285  1
  O  O484  1  0.08812281  0.64756513  0.07699974  1
  O  O485  1  0.08625063  0.64873733  0.32731166  1
  O  O486  1  0.08649366  0.64853184  0.57800714  1
  O  O487  1  0.08535087  0.64962020  0.82753261  1
  O  O488  1  0.08967850  0.98284567  0.07749225  1
  O  O489  1  0.08846953  0.98149653  0.32730727  1
  O  O490  1  0.08975062  0.97962348  0.57684278  1
  O  O491  1  0.08842989  0.98086411  0.82828967  1
  O  O492  1  0.58952366  0.31372074  0.07750340  1
  O  O493  1  0.58581706  0.31563892  0.32659769  1
  O  O494  1  0.58784145  0.31379079  0.57697895  1
  O  O495  1  0.58760113  0.31646962  0.82871508  1
  O  O496  1  0.58498953  0.64872046  0.07714204  1
  O  O497  1  0.58425679  0.64806473  0.32719301  1
  O  O498  1  0.58700991  0.64883824  0.57719896  1
  O  O499  1  0.58599883  0.64824762  0.82699260  1
  O  O500  1  0.58822999  0.98267968  0.07805124  1
  O  O501  1  0.58643714  0.98127390  0.32703290  1
  O  O502  1  0.58629564  0.98237992  0.57676628  1
  O  O503  1  0.58687983  0.98070217  0.82811801  1
  O  O504  1  0.41206562  0.01822698  0.17295180  1
  O  O505  1  0.41087437  0.01833239  0.42123250  1
  O  O506  1  0.41401278  0.01732097  0.67199709  1
  O  O507  1  0.41171060  0.01755353  0.92328217  1
  O  O508  1  0.41112631  0.35201773  0.17250989  1
  O  O509  1  0.41124109  0.35076309  0.42261579  1
  O  O510  1  0.41221446  0.35127310  0.67253541  1
  O  O511  1  0.41307319  0.35230131  0.92390498  1
  O  O512  1  0.41100654  0.68450383  0.17241205  1
  O  O513  1  0.40932689  0.68548318  0.42209437  1
  O  O514  1  0.40975482  0.68687542  0.67265950  1
  O  O515  1  0.41289115  0.68481482  0.92129963  1
  O  O516  1  0.91450693  0.01836091  0.17268372  1
  O  O517  1  0.91476044  0.01786933  0.42195300  1
  O  O518  1  0.91341247  0.01751669  0.67258770  1
  O  O519  1  0.91146905  0.01917126  0.92420772  1
  O  O520  1  0.91497819  0.35113574  0.17272675  1
  O  O521  1  0.91407106  0.35084091  0.42246756  1
  O  O522  1  0.91223467  0.35276940  0.67321842  1
  O  O523  1  0.91207284  0.35119388  0.92223488  1
  O  O524  1  0.91211174  0.68553818  0.17153995  1
  O  O525  1  0.91444769  0.68584415  0.42155104  1
  O  O526  1  0.91337989  0.68495574  0.67279092  1
  O  O527  1  0.91241515  0.68451241  0.92259684  1
  O  O528  1  0.16237598  0.01798205  0.20278362  1
  O  O529  1  0.16201567  0.01690129  0.45213730  1
  O  O530  1  0.16296365  0.01899466  0.70275833  1
  O  O531  1  0.16375757  0.01823180  0.95292453  1
  O  O532  1  0.16103319  0.35051607  0.20341846  1
  O  O533  1  0.16150813  0.35235697  0.45212890  1
  O  O534  1  0.16144817  0.35100146  0.70244225  1
  O  O535  1  0.16324777  0.35102474  0.95363150  1
  O  O536  1  0.16386865  0.68567879  0.20256259  1
  O  O537  1  0.16200041  0.68586120  0.45185206  1
  O  O538  1  0.16317927  0.68452628  0.70190830  1
  O  O539  1  0.16192527  0.68597635  0.95130876  1
  O  O540  1  0.66097897  0.01843159  0.20285272  1
  O  O541  1  0.66154443  0.01728545  0.45309624  1
  O  O542  1  0.66173662  0.01841799  0.70163234  1
  O  O543  1  0.66279560  0.01782118  0.95323166  1
  O  O544  1  0.66255972  0.35092549  0.20335206  1
  O  O545  1  0.66507078  0.35213371  0.45206189  1
  O  O546  1  0.66474562  0.35180059  0.70235271  1
  O  O547  1  0.66146850  0.35124113  0.95209881  1
  O  O548  1  0.66254714  0.68540058  0.20255184  1
  O  O549  1  0.66279179  0.68547213  0.45228372  1
  O  O550  1  0.66390433  0.68456375  0.70208279  1
  O  O551  1  0.66269067  0.68584808  0.95078703  1
  O  O552  1  0.33599535  0.31501286  0.04818963  1
  O  O553  1  0.33583447  0.31394407  0.29868072  1
  O  O554  1  0.33720620  0.31605568  0.54656535  1
  O  O555  1  0.33538667  0.31536575  0.79794789  1
  O  O556  1  0.33986834  0.64726386  0.04741359  1
  O  O557  1  0.33805315  0.64941362  0.29724592  1
  O  O558  1  0.33791807  0.64821003  0.54624617  1
  O  O559  1  0.33768653  0.64911497  0.79777637  1
  O  O560  1  0.33677670  0.98223554  0.04710070  1
  O  O561  1  0.33652467  0.98220753  0.29796459  1
  O  O562  1  0.33731012  0.98071711  0.54795147  1
  O  O563  1  0.34024297  0.98052958  0.79768180  1
  O  O564  1  0.83658610  0.31416568  0.04767959  1
  O  O565  1  0.83685222  0.31428991  0.29778072  1
  O  O566  1  0.83936697  0.31561953  0.54621666  1
  O  O567  1  0.83843176  0.31569788  0.79820813  1
  O  O568  1  0.83750000  0.64990211  0.04598899  1
  O  O569  1  0.83839374  0.64831126  0.29810052  1
  O  O570  1  0.84073962  0.64755291  0.54762969  1
  O  O571  1  0.84002945  0.64883485  0.79711540  1
  O  O572  1  0.83584544  0.98156898  0.04807309  1
  O  O573  1  0.83633537  0.98234596  0.29857844  1
  O  O574  1  0.83668055  0.98167251  0.54733407  1
  O  O575  1  0.83771054  0.98088887  0.79752527  1
  O  O576  1  0.41196069  0.14809320  0.17304926  1
  O  O577  1  0.41095991  0.14869026  0.42096048  1
  O  O578  1  0.41425011  0.14743961  0.67308380  1
  O  O579  1  0.41142805  0.14768395  0.92392012  1
  O  O580  1  0.41093570  0.48209487  0.17143322  1
  O  O581  1  0.41055928  0.48090073  0.42279437  1
  O  O582  1  0.41210670  0.48140824  0.67229262  1
  O  O583  1  0.41272293  0.48234171  0.92236985  1
  O  O584  1  0.41088030  0.81452927  0.17352452  1
  O  O585  1  0.40987451  0.81569809  0.42235712  1
  O  O586  1  0.41089914  0.81691591  0.67162525  1
  O  O587  1  0.41337006  0.81493953  0.92224625  1
  O  O588  1  0.91423363  0.14840063  0.17233858  1
  O  O589  1  0.91451376  0.14810271  0.42160058  1
  O  O590  1  0.91345596  0.14767563  0.67261102  1
  O  O591  1  0.91200694  0.14928316  0.92340819  1
  O  O592  1  0.91497315  0.48117119  0.17239239  1
  O  O593  1  0.91345299  0.48106809  0.42219083  1
  O  O594  1  0.91274857  0.48278441  0.67213816  1
  O  O595  1  0.91153296  0.48158091  0.92153434  1
  O  O596  1  0.91269617  0.81571158  0.17236628  1
  O  O597  1  0.91500003  0.81602792  0.42217830  1
  O  O598  1  0.91394147  0.81487879  0.67386357  1
  O  O599  1  0.91219677  0.81452845  0.92378271  1
  O  O600  1  0.08988751  0.18477641  0.07729192  1
  O  O601  1  0.08711502  0.18485001  0.32693086  1
  O  O602  1  0.08889219  0.18606165  0.57822442  1
  O  O603  1  0.08745287  0.18491891  0.82763705  1
  O  O604  1  0.08770653  0.51732837  0.07728388  1
  O  O605  1  0.08649846  0.51856558  0.32800236  1
  O  O606  1  0.08587159  0.51840725  0.57770323  1
  O  O607  1  0.08592980  0.51951618  0.82733869  1
  O  O608  1  0.09029364  0.85281276  0.07717879  1
  O  O609  1  0.08826726  0.85140185  0.32706014  1
  O  O610  1  0.08858324  0.84962526  0.57775581  1
  O  O611  1  0.08849390  0.85071728  0.82907070  1
  O  O612  1  0.58846004  0.18361640  0.07793065  1
  O  O613  1  0.58611962  0.18570195  0.32637096  1
  O  O614  1  0.58722741  0.18350689  0.57777458  1
  O  O615  1  0.58845694  0.18610298  0.82848563  1
  O  O616  1  0.58520994  0.51872681  0.07708508  1
  O  O617  1  0.58448355  0.51796142  0.32746662  1
  O  O618  1  0.58709705  0.51858437  0.57705807  1
  O  O619  1  0.58608904  0.51803975  0.82739545  1
  O  O620  1  0.58925535  0.85258837  0.07773116  1
  O  O621  1  0.58616884  0.85139319  0.32716814  1
  O  O622  1  0.58643590  0.85237406  0.57621085  1
  O  O623  1  0.58629764  0.85051223  0.82793472  1
  O  O624  1  0.33621171  0.18490010  0.04790697  1
  O  O625  1  0.33590973  0.18399007  0.29790667  1
  O  O626  1  0.33766861  0.18573386  0.54690759  1
  O  O627  1  0.33551919  0.18538914  0.79796608  1
  O  O628  1  0.33849941  0.51703726  0.04728462  1
  O  O629  1  0.33889217  0.51926145  0.29770058  1
  O  O630  1  0.33717379  0.51785127  0.54663782  1
  O  O631  1  0.33843993  0.51914158  0.79802079  1
  O  O632  1  0.33707465  0.85214030  0.04732081  1
  O  O633  1  0.33679606  0.85228130  0.29827530  1
  O  O634  1  0.33681120  0.85073076  0.54728048  1
  O  O635  1  0.33914303  0.85049969  0.79704439  1
  O  O636  1  0.83629624  0.18401950  0.04744961  1
  O  O637  1  0.83647072  0.18441966  0.29800519  1
  O  O638  1  0.83921388  0.18538758  0.54689673  1
  O  O639  1  0.83924389  0.18563648  0.79838056  1
  O  O640  1  0.83781549  0.51951383  0.04682300  1
  O  O641  1  0.83859201  0.51838296  0.29768942  1
  O  O642  1  0.84001730  0.51734669  0.54691395  1
  O  O643  1  0.84010355  0.51868194  0.79707979  1
  O  O644  1  0.83582579  0.85137816  0.04755087  1
  O  O645  1  0.83640109  0.85245249  0.29885140  1
  O  O646  1  0.83703136  0.85163103  0.54716639  1
  O  O647  1  0.83713318  0.85080096  0.79753239  1
  O  O648  1  0.16227434  0.14809396  0.20267231  1
  O  O649  1  0.16128275  0.14691067  0.45141019  1
  O  O650  1  0.16316191  0.14926272  0.70323521  1
  O  O651  1  0.16321133  0.14836921  0.95354756  1
  O  O652  1  0.16058768  0.48074121  0.20235571  1
  O  O653  1  0.16216044  0.48223614  0.45163777  1
  O  O654  1  0.16087739  0.48108475  0.70162951  1
  O  O655  1  0.16376706  0.48109518  0.95245018  1
  O  O656  1  0.16331907  0.81579961  0.20350321  1
  O  O657  1  0.16258152  0.81577347  0.45275812  1
  O  O658  1  0.16277807  0.81447580  0.70233451  1
  O  O659  1  0.16225876  0.81597147  0.95208661  1
  O  O660  1  0.66128572  0.14855982  0.20267651  1
  O  O661  1  0.66127738  0.14745216  0.45272462  1
  O  O662  1  0.66203766  0.14837859  0.70165989  1
  O  O663  1  0.66281992  0.14799671  0.95305746  1
  O  O664  1  0.66252069  0.48123046  0.20258203  1
  O  O665  1  0.66558402  0.48209206  0.45204399  1
  O  O666  1  0.66457401  0.48195959  0.70203400  1
  O  O667  1  0.66140795  0.48140197  0.95107339  1
  O  O668  1  0.66222502  0.81576377  0.20359754  1
  O  O669  1  0.66224836  0.81562591  0.45297028  1
  O  O670  1  0.66361942  0.81462217  0.70240252  1
  O  O671  1  0.66254536  0.81588838  0.95204730  1
