# generated using pymatgen
data_Na2MnFe(PO4)2
_symmetry_space_group_name_H-M   'P 1'
_cell_length_a   21.07930390
_cell_length_b   18.93115268
_cell_length_c   20.03907034
_cell_angle_alpha   89.99978149
_cell_angle_beta   89.99497744
_cell_angle_gamma   89.99772185
_symmetry_Int_Tables_number   1
_chemical_formula_structural   Na2MnFe(PO4)2
_chemical_formula_sum   'Na96 Mn48 Fe48 P96 O384'
_cell_volume   7996.70160896
_cell_formula_units_Z   48
loop_
 _symmetry_equiv_pos_site_id
 _symmetry_equiv_pos_as_xyz
  1  'x, y, z'
loop_
 _atom_site_type_symbol
 _atom_site_label
 _atom_site_symmetry_multiplicity
 _atom_site_fract_x
 _atom_site_fract_y
 _atom_site_fract_z
 _atom_site_occupancy
  Na  Na0  1  -0.00128388  -0.00018343  0.00026583  1
  Na  Na1  1  -0.00083151  0.00068427  0.25054112  1
  Na  Na2  1  -0.00078057  0.00026457  0.49937302  1
  Na  Na3  1  0.00106710  0.00092138  0.74991254  1
  Na  Na4  1  0.00112802  0.33331263  0.00002915  1
  Na  Na5  1  -0.00043375  0.33363004  0.24985833  1
  Na  Na6  1  -0.00331433  0.33236146  0.50023001  1
  Na  Na7  1  -0.00193693  0.33245547  0.75004068  1
  Na  Na8  1  0.00188805  0.66677872  -0.00031745  1
  Na  Na9  1  0.00153575  0.66702362  0.24906816  1
  Na  Na10  1  0.00226103  0.66675869  0.50061921  1
  Na  Na11  1  0.00421258  0.66808138  0.75049194  1
  Na  Na12  1  0.50029551  -0.00010173  0.00076972  1
  Na  Na13  1  0.50073853  0.00032036  0.24893995  1
  Na  Na14  1  0.50169321  0.00076313  0.49970763  1
  Na  Na15  1  0.50071832  0.00015869  0.75028869  1
  Na  Na16  1  0.50171472  0.33356558  0.00035864  1
  Na  Na17  1  0.50055461  0.33301060  0.24991760  1
  Na  Na18  1  0.50047506  0.33313891  0.49940026  1
  Na  Na19  1  0.50224043  0.33384367  0.75037484  1
  Na  Na20  1  0.49683987  0.66534659  -0.00019256  1
  Na  Na21  1  0.49922373  0.66670522  0.25031401  1
  Na  Na22  1  0.50001488  0.66709415  0.49974135  1
  Na  Na23  1  0.49910278  0.66672048  0.75014302  1
  Na  Na24  1  0.24766533  -0.00012651  0.12449442  1
  Na  Na25  1  0.24982043  0.00065095  0.37563552  1
  Na  Na26  1  0.24654327  -0.00077340  0.62511341  1
  Na  Na27  1  0.24678258  -0.00004717  0.87552125  1
  Na  Na28  1  0.24917727  0.33239518  0.12502219  1
  Na  Na29  1  0.25230743  0.33340827  0.37448944  1
  Na  Na30  1  0.25044456  0.33301635  0.62396071  1
  Na  Na31  1  0.24833281  0.33238059  0.87599030  1
  Na  Na32  1  0.24869908  0.66634041  0.12479454  1
  Na  Na33  1  0.24853663  0.66619230  0.37441166  1
  Na  Na34  1  0.24830538  0.66674145  0.62542264  1
  Na  Na35  1  0.24738133  0.66617725  0.87590658  1
  Na  Na36  1  0.75291659  0.00112920  0.12449136  1
  Na  Na37  1  0.75101529  0.00045271  0.37506366  1
  Na  Na38  1  0.75117666  0.00042953  0.62620638  1
  Na  Na39  1  0.75156605  -0.00024322  0.87438662  1
  Na  Na40  1  0.74784014  0.33272164  0.12408863  1
  Na  Na41  1  0.75033992  0.33363152  0.37548713  1
  Na  Na42  1  0.75162098  0.33385512  0.62512344  1
  Na  Na43  1  0.74942763  0.33320835  0.87522894  1
  Na  Na44  1  0.75249907  0.66740235  0.12536428  1
  Na  Na45  1  0.74996416  0.66596107  0.37347252  1
  Na  Na46  1  0.74985638  0.66621348  0.62496593  1
  Na  Na47  1  0.75179918  0.66695407  0.87524611  1
  Na  Na48  1  0.00218649  0.16624546  0.00115683  1
  Na  Na49  1  -0.00049919  0.16689393  0.24902879  1
  Na  Na50  1  -0.00203411  0.16752565  0.49938419  1
  Na  Na51  1  0.00082874  0.16673847  0.74939853  1
  Na  Na52  1  0.00036919  0.49906732  -0.00103603  1
  Na  Na53  1  -0.00140223  0.49971176  0.25061653  1
  Na  Na54  1  -0.00206944  0.49983829  0.50050212  1
  Na  Na55  1  -0.00066977  0.50001931  0.75003728  1
  Na  Na56  1  0.00102624  0.83329831  0.00033081  1
  Na  Na57  1  0.00145804  0.83308525  0.24964834  1
  Na  Na58  1  0.00245003  0.83307183  0.50055756  1
  Na  Na59  1  0.00073504  0.83464413  0.75051081  1
  Na  Na60  1  0.50000757  0.16717621  0.00060948  1
  Na  Na61  1  0.50094455  0.16671616  0.24949893  1
  Na  Na62  1  0.50128444  0.16628032  0.49982673  1
  Na  Na63  1  0.50233900  0.16576448  0.75119046  1
  Na  Na64  1  0.50004209  0.49922140  -0.00004072  1
  Na  Na65  1  0.49885556  0.49958865  0.25017483  1
  Na  Na66  1  0.50055525  0.49861608  0.49913314  1
  Na  Na67  1  0.50001020  0.49961962  0.74945650  1
  Na  Na68  1  0.49924642  0.83372252  0.00076155  1
  Na  Na69  1  0.50029611  0.83401390  0.24923256  1
  Na  Na70  1  0.49969749  0.83455641  0.49991841  1
  Na  Na71  1  0.49923269  0.83395325  0.75017734  1
  Na  Na72  1  0.24799616  0.16748530  0.12498931  1
  Na  Na73  1  0.24974710  0.16718533  0.37515951  1
  Na  Na74  1  0.24841483  0.16698550  0.62447353  1
  Na  Na75  1  0.24680390  0.16703089  0.87552779  1
  Na  Na76  1  0.24992895  0.49974531  0.12441545  1
  Na  Na77  1  0.25187660  0.49883735  0.37378573  1
  Na  Na78  1  0.24945026  0.50002524  0.62509193  1
  Na  Na79  1  0.24882945  0.49998026  0.87596549  1
  Na  Na80  1  0.24756894  0.83419755  0.12486926  1
  Na  Na81  1  0.24951679  0.83348526  0.37555392  1
  Na  Na82  1  0.24752112  0.83412321  0.62513591  1
  Na  Na83  1  0.24763764  0.83385828  0.87597359  1
  Na  Na84  1  0.74960069  0.16716098  0.12503426  1
  Na  Na85  1  0.75123034  0.16604264  0.37562289  1
  Na  Na86  1  0.75057316  0.16646982  0.62527878  1
  Na  Na87  1  0.75034875  0.16663800  0.87370343  1
  Na  Na88  1  0.75055405  0.49912795  0.12543414  1
  Na  Na89  1  0.75054240  0.49893358  0.37420829  1
  Na  Na90  1  0.75046313  0.49874507  0.62540101  1
  Na  Na91  1  0.74959114  0.49928940  0.87629216  1
  Na  Na92  1  0.75118528  0.83428118  0.12388692  1
  Na  Na93  1  0.74978370  0.83452334  0.37408701  1
  Na  Na94  1  0.75228371  0.83338376  0.62574637  1
  Na  Na95  1  0.75341499  0.83313226  0.87475953  1
  Mn  Mn96  1  0.89222712  0.58335665  0.37746437  1
  Mn  Mn97  1  0.39150459  0.91689899  0.12724631  1
  Mn  Mn98  1  0.14182676  0.91776806  0.24786828  1
  Mn  Mn99  1  0.35674647  0.08325729  0.75228261  1
  Mn  Mn100  1  0.64370995  0.91677141  0.99724120  1
  Mn  Mn101  1  0.35631375  0.75037428  0.75252311  1
  Mn  Mn102  1  0.89217254  0.91640760  0.37754257  1
  Mn  Mn103  1  0.10753722  0.41610096  0.87191248  1
  Mn  Mn104  1  0.60832631  0.75032896  0.62249773  1
  Mn  Mn105  1  0.10710903  0.41618524  0.62242420  1
  Mn  Mn106  1  0.35654767  0.08347445  0.00163843  1
  Mn  Mn107  1  0.64317313  0.24977162  0.49784646  1
  Mn  Mn108  1  0.64171841  0.58362485  0.74825634  1
  Mn  Mn109  1  0.60778830  0.75005801  0.87333675  1
  Mn  Mn110  1  0.14185959  0.25059634  0.49712618  1
  Mn  Mn111  1  0.14205332  0.58190983  0.24713655  1
  Mn  Mn112  1  0.35811103  0.08329226  0.50228244  1
  Mn  Mn113  1  0.39272509  0.24933196  0.62763744  1
  Mn  Mn114  1  0.35705020  0.74990527  0.50218915  1
  Mn  Mn115  1  0.35706944  0.75019988  0.25199023  1
  Mn  Mn116  1  0.60800844  0.74902067  0.12215278  1
  Mn  Mn117  1  0.64212308  0.58391234  0.99802856  1
  Mn  Mn118  1  0.85902094  0.75002418  0.50259893  1
  Mn  Mn119  1  0.39146763  0.91728776  0.62744925  1
  Mn  Mn120  1  0.85951708  0.74889398  0.75244426  1
  Mn  Mn121  1  0.64299789  0.91630271  0.49815603  1
  Mn  Mn122  1  0.35744950  0.41600995  0.00219758  1
  Mn  Mn123  1  0.35761916  0.41621389  0.75227975  1
  Mn  Mn124  1  0.64243488  0.58360869  0.49772902  1
  Mn  Mn125  1  0.39232143  0.58353916  0.37752055  1
  Mn  Mn126  1  0.39216610  0.24950115  0.87694341  1
  Mn  Mn127  1  0.85871987  0.75013530  0.25246679  1
  Mn  Mn128  1  0.35617554  0.75041669  0.00199858  1
  Mn  Mn129  1  0.10748942  0.41646067  0.37283901  1
  Mn  Mn130  1  0.64291711  0.24994402  0.74804177  1
  Mn  Mn131  1  0.64236297  0.58335544  0.24677349  1
  Mn  Mn132  1  0.60877520  0.08376612  0.12220709  1
  Mn  Mn133  1  0.85727213  0.41644593  0.00260013  1
  Mn  Mn134  1  0.89248697  0.58393705  0.62796215  1
  Mn  Mn135  1  0.39206596  0.58330364  0.62739766  1
  Mn  Mn136  1  0.64286196  0.91602956  0.74853033  1
  Mn  Mn137  1  0.89304579  0.58354023  0.87762672  1
  Mn  Mn138  1  0.60807643  0.75054527  0.37238593  1
  Mn  Mn139  1  0.89223104  0.25042841  0.12733623  1
  Mn  Mn140  1  0.35751059  0.08367325  0.25212798  1
  Mn  Mn141  1  0.10677927  0.08399882  0.37269530  1
  Mn  Mn142  1  0.14214743  0.58249640  0.49739414  1
  Mn  Mn143  1  0.85875287  0.08388195  0.75252649  1
  Fe  Fe144  1  0.10765527  0.75058697  0.62307300  1
  Fe  Fe145  1  0.14152137  0.25027239  0.74770308  1
  Fe  Fe146  1  0.64315575  0.91722288  0.24807826  1
  Fe  Fe147  1  0.14092249  0.91728850  0.99801733  1
  Fe  Fe148  1  0.85728576  0.08350384  0.50230778  1
  Fe  Fe149  1  0.35834969  0.41648604  0.50155907  1
  Fe  Fe150  1  0.60808355  0.08328101  0.62335881  1
  Fe  Fe151  1  0.39146817  0.91678716  0.87662795  1
  Fe  Fe152  1  0.10696737  0.74976476  0.12308801  1
  Fe  Fe153  1  0.85926456  0.75000877  0.00192308  1
  Fe  Fe154  1  0.14217787  0.91705505  0.49775129  1
  Fe  Fe155  1  0.10644660  0.08354097  0.12334099  1
  Fe  Fe156  1  0.14211794  0.25020698  0.99840170  1
  Fe  Fe157  1  0.64276634  0.24957446  0.24872367  1
  Fe  Fe158  1  0.85688749  0.41692452  0.75189637  1
  Fe  Fe159  1  0.39170979  0.58257936  0.12640121  1
  Fe  Fe160  1  0.89274698  0.24953321  0.62700835  1
  Fe  Fe161  1  0.85674990  0.41646075  0.50192587  1
  Fe  Fe162  1  0.14162076  0.91709411  0.74799755  1
  Fe  Fe163  1  0.89321616  0.24930727  0.87721782  1
  Fe  Fe164  1  0.60735630  0.41600035  0.37265607  1
  Fe  Fe165  1  0.60701431  0.41704960  0.87333523  1
  Fe  Fe166  1  0.85713942  0.41580103  0.25115246  1
  Fe  Fe167  1  0.89356321  0.58324675  0.12582527  1
  Fe  Fe168  1  0.89422953  0.91680825  0.62636065  1
  Fe  Fe169  1  0.10648783  0.08363007  0.62283638  1
  Fe  Fe170  1  0.60676992  0.41708521  0.12399745  1
  Fe  Fe171  1  0.14244647  0.25048956  0.24859439  1
  Fe  Fe172  1  0.10707596  0.75058345  0.87332629  1
  Fe  Fe173  1  0.89368156  0.91629183  0.12663977  1
  Fe  Fe174  1  0.39312555  0.91759792  0.37643779  1
  Fe  Fe175  1  0.39347814  0.24900552  0.37592763  1
  Fe  Fe176  1  0.39144973  0.58363554  0.87649453  1
  Fe  Fe177  1  0.10746390  0.41676292  0.12393919  1
  Fe  Fe178  1  0.60826522  0.08332689  0.37312447  1
  Fe  Fe179  1  0.64259220  0.24917313  0.99799056  1
  Fe  Fe180  1  0.10647395  0.08346693  0.87317373  1
  Fe  Fe181  1  0.10772736  0.74986899  0.37306373  1
  Fe  Fe182  1  0.39269636  0.25022493  0.12689306  1
  Fe  Fe183  1  0.89412186  0.91738374  0.87678028  1
  Fe  Fe184  1  0.60774204  0.08277237  0.87401915  1
  Fe  Fe185  1  0.89170146  0.25032731  0.37597149  1
  Fe  Fe186  1  0.14209356  0.58276062  0.99842461  1
  Fe  Fe187  1  0.85806158  0.08365047  0.00126356  1
  Fe  Fe188  1  0.60783597  0.41637309  0.62288652  1
  Fe  Fe189  1  0.85720336  0.08432811  0.25146726  1
  Fe  Fe190  1  0.14263158  0.58257271  0.74819500  1
  Fe  Fe191  1  0.35760221  0.41592629  0.25095134  1
  P  P192  1  0.05502331  0.25061331  0.11122568  1
  P  P193  1  0.05187416  0.25028775  0.35913356  1
  P  P194  1  0.05287056  0.24951883  0.61058016  1
  P  P195  1  0.05366438  0.24916480  0.86056632  1
  P  P196  1  0.05298094  0.58228232  0.10955554  1
  P  P197  1  0.05337514  0.58332507  0.35982407  1
  P  P198  1  0.05468901  0.58338696  0.61125375  1
  P  P199  1  0.05536309  0.58365372  0.86061307  1
  P  P200  1  0.05290018  0.91732706  0.10999426  1
  P  P201  1  0.05414971  0.91650355  0.36100426  1
  P  P202  1  0.05451346  0.91749819  0.61065681  1
  P  P203  1  0.05397612  0.91735288  0.86105099  1
  P  P204  1  0.55452345  0.25091009  0.11088203  1
  P  P205  1  0.55374359  0.24956044  0.35963198  1
  P  P206  1  0.55433339  0.24971334  0.61012964  1
  P  P207  1  0.55508464  0.24964068  0.86168561  1
  P  P208  1  0.55155967  0.58233537  0.11003101  1
  P  P209  1  0.55367037  0.58238806  0.35970726  1
  P  P210  1  0.55333590  0.58257215  0.60965371  1
  P  P211  1  0.55157763  0.58289080  0.86037009  1
  P  P212  1  0.55498114  0.91675879  0.11057902  1
  P  P213  1  0.55356032  0.91793773  0.35916857  1
  P  P214  1  0.55355067  0.91767411  0.61018556  1
  P  P215  1  0.55213950  0.91718594  0.86058631  1
  P  P216  1  0.44647060  0.08446093  0.13957098  1
  P  P217  1  0.44813922  0.08334308  0.38931844  1
  P  P218  1  0.44812384  0.08353907  0.64060512  1
  P  P219  1  0.44750228  0.08251632  0.89019906  1
  P  P220  1  0.44663459  0.41594365  0.14009235  1
  P  P221  1  0.44613312  0.41505627  0.38866520  1
  P  P222  1  0.44716171  0.41606267  0.63906110  1
  P  P223  1  0.44728477  0.41679302  0.88986652  1
  P  P224  1  0.44594179  0.74924754  0.13980820  1
  P  P225  1  0.44649084  0.75172148  0.38980390  1
  P  P226  1  0.44634634  0.75040949  0.64037016  1
  P  P227  1  0.44563622  0.75053483  0.89004021  1
  P  P228  1  0.94577481  0.08301040  0.13909944  1
  P  P229  1  0.94392027  0.08472320  0.38910831  1
  P  P230  1  0.94652893  0.08328291  0.63860734  1
  P  P231  1  0.94757697  0.08410831  0.89046974  1
  P  P232  1  0.94725102  0.41717928  0.14009752  1
  P  P233  1  0.94444795  0.41542240  0.38945682  1
  P  P234  1  0.94441953  0.41579012  0.63971146  1
  P  P235  1  0.94525755  0.41544485  0.88885941  1
  P  P236  1  0.94710410  0.74985013  0.13845149  1
  P  P237  1  0.94872297  0.74989133  0.39030971  1
  P  P238  1  0.94901869  0.75098669  0.64021004  1
  P  P239  1  0.94822193  0.75079153  0.89048244  1
  P  P240  1  0.19544642  0.08472690  0.23448087  1
  P  P241  1  0.19493588  0.08322850  0.48592539  1
  P  P242  1  0.19361440  0.08366447  0.73553284  1
  P  P243  1  0.19335757  0.08375806  0.98587278  1
  P  P244  1  0.19736120  0.41538916  0.23436875  1
  P  P245  1  0.19834779  0.41633989  0.48426462  1
  P  P246  1  0.19637371  0.41611784  0.73474011  1
  P  P247  1  0.19473776  0.41635577  0.98651495  1
  P  P248  1  0.19435520  0.75003066  0.23505598  1
  P  P249  1  0.19429668  0.75067092  0.48542206  1
  P  P250  1  0.19379458  0.75033755  0.73618609  1
  P  P251  1  0.19317037  0.74995834  0.98607304  1
  P  P252  1  0.69685614  0.08364676  0.23617903  1
  P  P253  1  0.69677422  0.08315790  0.48569220  1
  P  P254  1  0.69553835  0.08304755  0.73576714  1
  P  P255  1  0.69817649  0.08375384  0.98408828  1
  P  P256  1  0.69580649  0.41528272  0.23552795  1
  P  P257  1  0.69610736  0.41643927  0.48534490  1
  P  P258  1  0.69590212  0.41663102  0.73580137  1
  P  P259  1  0.69414530  0.41595286  0.98606176  1
  P  P260  1  0.69726465  0.75116328  0.23426729  1
  P  P261  1  0.69812909  0.75023759  0.48425884  1
  P  P262  1  0.69771854  0.75000108  0.73511503  1
  P  P263  1  0.69931756  0.75014735  0.98484446  1
  P  P264  1  0.30242825  0.24959917  0.01557262  1
  P  P265  1  0.30396473  0.25051244  0.26417730  1
  P  P266  1  0.30512761  0.25030879  0.51366643  1
  P  P267  1  0.30107699  0.24951818  0.76516478  1
  P  P268  1  0.30324094  0.58327682  0.01433325  1
  P  P269  1  0.30449877  0.58224982  0.26347807  1
  P  P270  1  0.30334008  0.58257533  0.51501998  1
  P  P271  1  0.30190255  0.58326968  0.76584193  1
  P  P272  1  0.30174764  0.91710536  0.01382537  1
  P  P273  1  0.30328343  0.91712216  0.26595014  1
  P  P274  1  0.30270201  0.91700285  0.51418547  1
  P  P275  1  0.30104389  0.91713893  0.76584676  1
  P  P276  1  0.80337349  0.24894472  0.01369037  1
  P  P277  1  0.80260092  0.25039416  0.26508586  1
  P  P278  1  0.80544922  0.24987201  0.51443244  1
  P  P279  1  0.80577764  0.25080762  0.76465374  1
  P  P280  1  0.80435177  0.58380100  0.01594892  1
  P  P281  1  0.80518804  0.58206468  0.26324715  1
  P  P282  1  0.80361552  0.58238826  0.51513509  1
  P  P283  1  0.80337767  0.58216967  0.76572028  1
  P  P284  1  0.80699855  0.91714146  0.01389061  1
  P  P285  1  0.80420081  0.91771049  0.26340558  1
  P  P286  1  0.80466398  0.91760853  0.51606850  1
  P  P287  1  0.80667879  0.91673497  0.76465175  1
  O  O288  1  0.05862159  0.25077225  0.18796982  1
  O  O289  1  0.05567026  0.25039185  0.43590172  1
  O  O290  1  0.05752445  0.25048348  0.68727527  1
  O  O291  1  0.05816313  0.25023892  0.93727674  1
  O  O292  1  0.05604648  0.58206842  0.18632109  1
  O  O293  1  0.05624386  0.58207386  0.43663678  1
  O  O294  1  0.05875467  0.58227487  0.68803727  1
  O  O295  1  0.05883412  0.58231712  0.93741763  1
  O  O296  1  0.05598538  0.91769044  0.18673453  1
  O  O297  1  0.05789465  0.91737961  0.43778694  1
  O  O298  1  0.05816368  0.91764264  0.68748458  1
  O  O299  1  0.05767417  0.91726636  0.93780555  1
  O  O300  1  0.55924278  0.24960757  0.18756981  1
  O  O301  1  0.55744345  0.24965111  0.43631448  1
  O  O302  1  0.55715414  0.24998259  0.68692456  1
  O  O303  1  0.55854388  0.24930376  0.93851265  1
  O  O304  1  0.55563918  0.58327726  0.18671303  1
  O  O305  1  0.55674126  0.58281289  0.43648412  1
  O  O306  1  0.55603769  0.58308446  0.68649446  1
  O  O307  1  0.55558924  0.58351387  0.93706012  1
  O  O308  1  0.55987225  0.91709042  0.18730760  1
  O  O309  1  0.55740084  0.91735912  0.43590349  1
  O  O310  1  0.55688160  0.91674438  0.68692940  1
  O  O311  1  0.55636840  0.91648695  0.93729615  1
  O  O312  1  0.44268016  0.08385501  0.06285380  1
  O  O313  1  0.44422096  0.08344999  0.31266654  1
  O  O314  1  0.44397937  0.08360650  0.56388682  1
  O  O315  1  0.44352952  0.08316660  0.81350403  1
  O  O316  1  0.44332332  0.41573155  0.06333260  1
  O  O317  1  0.44132681  0.41573616  0.31198940  1
  O  O318  1  0.44224778  0.41601013  0.56235857  1
  O  O319  1  0.44374067  0.41601818  0.81310914  1
  O  O320  1  0.44227301  0.74995988  0.06303101  1
  O  O321  1  0.44322504  0.75094447  0.31303775  1
  O  O322  1  0.44298077  0.75052409  0.56357266  1
  O  O323  1  0.44269083  0.75066395  0.81325705  1
  O  O324  1  0.94155031  0.08422788  0.06241695  1
  O  O325  1  0.94008543  0.08412854  0.31223202  1
  O  O326  1  0.94217086  0.08342482  0.56194191  1
  O  O327  1  0.94456103  0.08433760  0.81368929  1
  O  O328  1  0.94356196  0.41604829  0.06336923  1
  O  O329  1  0.94057335  0.41591695  0.31266333  1
  O  O330  1  0.94049678  0.41657683  0.56289036  1
  O  O331  1  0.94119198  0.41637272  0.81215952  1
  O  O332  1  0.94296025  0.74981144  0.06175030  1
  O  O333  1  0.94477835  0.75011754  0.31352616  1
  O  O334  1  0.94539458  0.74999289  0.56350929  1
  O  O335  1  0.94513184  0.74993695  0.81373558  1
  O  O336  1  0.18969095  0.08329569  0.06266266  1
  O  O337  1  0.19258563  0.08401465  0.31129103  1
  O  O338  1  0.19046695  0.08385191  0.56268471  1
  O  O339  1  0.18984239  0.08370953  0.81238609  1
  O  O340  1  0.19114673  0.41663536  0.06321389  1
  O  O341  1  0.19365101  0.41614562  0.31104712  1
  O  O342  1  0.19356063  0.41610756  0.56090330  1
  O  O343  1  0.19353757  0.41584048  0.81159459  1
  O  O344  1  0.18957682  0.75012024  0.06299085  1
  O  O345  1  0.19071574  0.74991913  0.31189734  1
  O  O346  1  0.19045250  0.75026767  0.56232564  1
  O  O347  1  0.19031929  0.75072295  0.81307209  1
  O  O348  1  0.69462001  0.08329028  0.06088972  1
  O  O349  1  0.69246528  0.08337895  0.31289338  1
  O  O350  1  0.69202502  0.08332461  0.56240183  1
  O  O351  1  0.69102203  0.08275130  0.81250044  1
  O  O352  1  0.69005151  0.41701574  0.06284656  1
  O  O353  1  0.69124272  0.41611826  0.31227670  1
  O  O354  1  0.69140279  0.41622555  0.56210728  1
  O  O355  1  0.69084271  0.41681179  0.81254789  1
  O  O356  1  0.69473734  0.75002103  0.06150592  1
  O  O357  1  0.69381845  0.75045017  0.31106670  1
  O  O358  1  0.69487176  0.75036456  0.56106956  1
  O  O359  1  0.69402295  0.75032432  0.81190348  1
  O  O360  1  0.30851341  0.24969029  0.18748133  1
  O  O361  1  0.30982896  0.24926440  0.43691557  1
  O  O362  1  0.30565107  0.24936229  0.68847655  1
  O  O363  1  0.30654305  0.24952286  0.93884647  1
  O  O364  1  0.30833277  0.58300434  0.18664944  1
  O  O365  1  0.30649341  0.58329011  0.43815769  1
  O  O366  1  0.30600007  0.58343247  0.68912158  1
  O  O367  1  0.30820792  0.58313909  0.93761639  1
  O  O368  1  0.30609091  0.91718819  0.18905714  1
  O  O369  1  0.30841099  0.91754394  0.43758691  1
  O  O370  1  0.30519294  0.91721237  0.68910288  1
  O  O371  1  0.30719140  0.91726202  0.93720045  1
  O  O372  1  0.80592919  0.25053169  0.18826616  1
  O  O373  1  0.80837703  0.24988828  0.43762891  1
  O  O374  1  0.80957575  0.24953930  0.68782704  1
  O  O375  1  0.80832161  0.24944217  0.93707758  1
  O  O376  1  0.80996033  0.58290832  0.18654695  1
  O  O377  1  0.80628711  0.58313766  0.43828897  1
  O  O378  1  0.80651453  0.58302433  0.68892857  1
  O  O379  1  0.80742413  0.58302596  0.93914355  1
  O  O380  1  0.80936069  0.91682507  0.18673509  1
  O  O381  1  0.80700657  0.91677920  0.43917908  1
  O  O382  1  0.81114920  0.91691052  0.68790929  1
  O  O383  1  0.81111333  0.91698259  0.93703613  1
  O  O384  1  0.23211338  0.24990881  0.03926178  1
  O  O385  1  0.23359119  0.25031448  0.28809784  1
  O  O386  1  0.23493392  0.25002265  0.53744486  1
  O  O387  1  0.23087221  0.24964182  0.78916214  1
  O  O388  1  0.23272345  0.58325568  0.03761132  1
  O  O389  1  0.23452881  0.58221637  0.28792516  1
  O  O390  1  0.23366719  0.58297533  0.54014161  1
  O  O391  1  0.23166497  0.58311404  0.78985786  1
  O  O392  1  0.23117703  0.91707835  0.03692189  1
  O  O393  1  0.23350648  0.91743318  0.29078965  1
  O  O394  1  0.23222322  0.91676621  0.53745366  1
  O  O395  1  0.23067531  0.91698139  0.78956362  1
  O  O396  1  0.73302722  0.24950745  0.03748662  1
  O  O397  1  0.73267752  0.24999538  0.29012646  1
  O  O398  1  0.73561023  0.24988443  0.53946942  1
  O  O399  1  0.73568280  0.25007499  0.78862192  1
  O  O400  1  0.73457531  0.58333047  0.04099709  1
  O  O401  1  0.73505513  0.58224753  0.28712378  1
  O  O402  1  0.73415410  0.58241264  0.54083342  1
  O  O403  1  0.73383840  0.58280717  0.79123923  1
  O  O404  1  0.73686184  0.91765001  0.03794202  1
  O  O405  1  0.73389530  0.91764772  0.28726901  1
  O  O406  1  0.73514984  0.91715540  0.54167226  1
  O  O407  1  0.73653480  0.91656657  0.78854230  1
  O  O408  1  0.26509928  0.08372973  0.20922589  1
  O  O409  1  0.26496052  0.08384180  0.46175656  1
  O  O410  1  0.26357532  0.08339867  0.71085435  1
  O  O411  1  0.26332405  0.08375728  0.96124721  1
  O  O412  1  0.26742861  0.41573758  0.20977824  1
  O  O413  1  0.26848009  0.41618563  0.46019225  1
  O  O414  1  0.26595252  0.41616874  0.70924737  1
  O  O415  1  0.26462165  0.41598523  0.96164922  1
  O  O416  1  0.26426696  0.75025295  0.21055279  1
  O  O417  1  0.26427399  0.74978810  0.46106742  1
  O  O418  1  0.26370408  0.75033296  0.71136073  1
  O  O419  1  0.26315051  0.75003256  0.96163744  1
  O  O420  1  0.76713873  0.08430868  0.21190163  1
  O  O421  1  0.76720665  0.08340704  0.46231415  1
  O  O422  1  0.76585063  0.08370114  0.71233396  1
  O  O423  1  0.76826433  0.08326132  0.95955981  1
  O  O424  1  0.76619136  0.41563884  0.21168345  1
  O  O425  1  0.76656703  0.41614682  0.46201182  1
  O  O426  1  0.76634804  0.41615587  0.71246579  1
  O  O427  1  0.76435820  0.41628873  0.96225498  1
  O  O428  1  0.76715607  0.75085797  0.20962697  1
  O  O429  1  0.76772986  0.75031222  0.45881515  1
  O  O430  1  0.76757351  0.74964640  0.71045078  1
  O  O431  1  0.76959476  0.75009810  0.96095593  1
  O  O432  1  0.01618860  0.08378711  0.16288737  1
  O  O433  1  0.01396554  0.08411306  0.41325786  1
  O  O434  1  0.01669610  0.08352391  0.66287364  1
  O  O435  1  0.01756940  0.08343454  0.91526887  1
  O  O436  1  0.01735238  0.41659891  0.16459601  1
  O  O437  1  0.01442998  0.41595494  0.41403156  1
  O  O438  1  0.01447901  0.41627478  0.66390470  1
  O  O439  1  0.01532774  0.41573101  0.91298710  1
  O  O440  1  0.01747565  0.75009233  0.16245633  1
  O  O441  1  0.01866627  0.74976936  0.41485268  1
  O  O442  1  0.01900629  0.75141757  0.66494462  1
  O  O443  1  0.01834323  0.75028104  0.91498605  1
  O  O444  1  0.51642429  0.08401893  0.16392724  1
  O  O445  1  0.51828230  0.08354057  0.41381740  1
  O  O446  1  0.51822101  0.08334828  0.66484161  1
  O  O447  1  0.51756039  0.08314684  0.91493762  1
  O  O448  1  0.51668342  0.41620631  0.16485901  1
  O  O449  1  0.51670213  0.41549251  0.41204234  1
  O  O450  1  0.51751920  0.41624493  0.66270868  1
  O  O451  1  0.51730392  0.41640890  0.91457141  1
  O  O452  1  0.51573319  0.74989967  0.16467247  1
  O  O453  1  0.51623525  0.75114392  0.41488255  1
  O  O454  1  0.51605095  0.75041307  0.66542665  1
  O  O455  1  0.51522340  0.75007236  0.91577147  1
  O  O456  1  0.48408483  0.25047474  0.08724421  1
  O  O457  1  0.48358454  0.24956230  0.33514188  1
  O  O458  1  0.48484485  0.24961210  0.58445409  1
  O  O459  1  0.48528139  0.24981034  0.83658440  1
  O  O460  1  0.48143277  0.58197519  0.08562394  1
  O  O461  1  0.48385707  0.58279156  0.33485170  1
  O  O462  1  0.48382633  0.58280031  0.58394785  1
  O  O463  1  0.48149697  0.58326902  0.83571902  1
  O  O464  1  0.48468823  0.91691795  0.08719053  1
  O  O465  1  0.48342258  0.91752034  0.33473468  1
  O  O466  1  0.48385136  0.91780787  0.58501018  1
  O  O467  1  0.48205053  0.91703687  0.83601308  1
  O  O468  1  0.98493002  0.25014611  0.08676428  1
  O  O469  1  0.98176856  0.25008300  0.33478700  1
  O  O470  1  0.98253140  0.24962026  0.58692551  1
  O  O471  1  0.98337741  0.24948188  0.83671020  1
  O  O472  1  0.98303172  0.58262200  0.08442794  1
  O  O473  1  0.98380639  0.58354273  0.33443011  1
  O  O474  1  0.98474922  0.58311517  0.58682431  1
  O  O475  1  0.98541187  0.58372386  0.83609785  1
  O  O476  1  0.98285419  0.91680360  0.08523291  1
  O  O477  1  0.98430419  0.91700766  0.33623808  1
  O  O478  1  0.98430170  0.91711708  0.58623060  1
  O  O479  1  0.98368314  0.91783911  0.83680124  1
  O  O480  1  0.08840620  0.31571793  0.07795308  1
  O  O481  1  0.08598389  0.31522341  0.32641886  1
  O  O482  1  0.08603319  0.31447647  0.57675650  1
  O  O483  1  0.08728911  0.31386645  0.82659101  1
  O  O484  1  0.08728798  0.64731406  0.07724239  1
  O  O485  1  0.08784813  0.64837631  0.32803679  1
  O  O486  1  0.08813711  0.64892938  0.57910284  1
  O  O487  1  0.08921663  0.64895299  0.82857013  1
  O  O488  1  0.08645632  0.98250171  0.07710829  1
  O  O489  1  0.08782060  0.98151959  0.32785337  1
  O  O490  1  0.08776829  0.98263912  0.57736352  1
  O  O491  1  0.08755285  0.98232302  0.82789418  1
  O  O492  1  0.58773556  0.31627708  0.07823403  1
  O  O493  1  0.58765144  0.31455307  0.32673228  1
  O  O494  1  0.58855224  0.31477050  0.57765635  1
  O  O495  1  0.58894745  0.31488602  0.82914854  1
  O  O496  1  0.58512242  0.64735031  0.07665510  1
  O  O497  1  0.58783429  0.64742621  0.32718303  1
  O  O498  1  0.58767588  0.64772583  0.57745508  1
  O  O499  1  0.58564666  0.64786455  0.82757310  1
  O  O500  1  0.58841897  0.98185196  0.07733192  1
  O  O501  1  0.58739726  0.98321389  0.32657589  1
  O  O502  1  0.58780031  0.98289650  0.57809907  1
  O  O503  1  0.58614757  0.98236728  0.82824786  1
  O  O504  1  0.41234382  0.01959397  0.17239707  1
  O  O505  1  0.41437974  0.01821082  0.42225882  1
  O  O506  1  0.41393589  0.01863625  0.67329795  1
  O  O507  1  0.41365370  0.01731642  0.92272639  1
  O  O508  1  0.41286620  0.35074558  0.17286073  1
  O  O509  1  0.41319312  0.34973148  0.42184981  1
  O  O510  1  0.41406461  0.35099375  0.67269764  1
  O  O511  1  0.41339431  0.35177589  0.92280769  1
  O  O512  1  0.41231334  0.68378608  0.17196976  1
  O  O513  1  0.41219158  0.68668545  0.42232372  1
  O  O514  1  0.41219473  0.68526431  0.67270939  1
  O  O515  1  0.41105483  0.68537838  0.92192248  1
  O  O516  1  0.91277077  0.01764634  0.17199853  1
  O  O517  1  0.91003231  0.01992982  0.42243846  1
  O  O518  1  0.91349889  0.01812065  0.67199750  1
  O  O519  1  0.91322120  0.01923154  0.92280495  1
  O  O520  1  0.91289026  0.35236731  0.17317000  1
  O  O521  1  0.91086352  0.35009802  0.42205496  1
  O  O522  1  0.91097984  0.35042773  0.67231461  1
  O  O523  1  0.91197019  0.35017881  0.92189081  1
  O  O524  1  0.91411901  0.68460233  0.17160880  1
  O  O525  1  0.91488439  0.68485329  0.42298291  1
  O  O526  1  0.91557919  0.68578084  0.67335834  1
  O  O527  1  0.91405011  0.68601089  0.92349417  1
  O  O528  1  0.16054412  0.02009936  0.20180891  1
  O  O529  1  0.16157907  0.01793181  0.45310061  1
  O  O530  1  0.15967884  0.01848387  0.70286780  1
  O  O531  1  0.15950253  0.01889941  0.95261081  1
  O  O532  1  0.16324942  0.35034972  0.20197784  1
  O  O533  1  0.16451296  0.35142631  0.45113373  1
  O  O534  1  0.16210264  0.35107672  0.70229070  1
  O  O535  1  0.16087455  0.35118424  0.95374896  1
  O  O536  1  0.16053090  0.68500534  0.20205962  1
  O  O537  1  0.16019160  0.68583478  0.45233588  1
  O  O538  1  0.16004813  0.68512186  0.70359379  1
  O  O539  1  0.15961696  0.68471106  0.95341818  1
  O  O540  1  0.66390553  0.01863408  0.20245702  1
  O  O541  1  0.66355457  0.01816826  0.45214497  1
  O  O542  1  0.66247104  0.01797116  0.70231731  1
  O  O543  1  0.66404333  0.01884874  0.95119546  1
  O  O544  1  0.66251266  0.34997962  0.20275270  1
  O  O545  1  0.66275222  0.35139073  0.45193623  1
  O  O546  1  0.66261225  0.35157979  0.70231295  1
  O  O547  1  0.66090068  0.35062216  0.95325881  1
  O  O548  1  0.66338764  0.68588768  0.20161178  1
  O  O549  1  0.66390630  0.68516373  0.45196752  1
  O  O550  1  0.66354089  0.68495887  0.70278937  1
  O  O551  1  0.66540852  0.68508841  0.95214382  1
  O  O552  1  0.33639968  0.31453490  0.04848666  1
  O  O553  1  0.33762255  0.31562833  0.29698722  1
  O  O554  1  0.33840170  0.31569846  0.54644903  1
  O  O555  1  0.33488057  0.31456472  0.79802515  1
  O  O556  1  0.33647759  0.64822971  0.04783781  1
  O  O557  1  0.33785326  0.64730514  0.29683471  1
  O  O558  1  0.33729740  0.64763064  0.54769228  1
  O  O559  1  0.33544323  0.64833203  0.79894039  1
  O  O560  1  0.33487657  0.98206640  0.04747339  1
  O  O561  1  0.33770859  0.98206788  0.29840402  1
  O  O562  1  0.33554705  0.98210405  0.54812650  1
  O  O563  1  0.33462190  0.98220078  0.79891266  1
  O  O564  1  0.83679966  0.31382042  0.04746869  1
  O  O565  1  0.83657860  0.31547419  0.29769511  1
  O  O566  1  0.83933360  0.31495475  0.54716132  1
  O  O567  1  0.83894192  0.31604743  0.79750631  1
  O  O568  1  0.83869452  0.64898202  0.04790168  1
  O  O569  1  0.83858758  0.64710856  0.29678740  1
  O  O570  1  0.83797944  0.64742210  0.54763096  1
  O  O571  1  0.83813624  0.64704283  0.79801777  1
  O  O572  1  0.84073793  0.98222737  0.04681930  1
  O  O573  1  0.83744809  0.98290142  0.29638470  1
  O  O574  1  0.83888780  0.98293061  0.54792945  1
  O  O575  1  0.84010493  0.98192135  0.79789821  1
  O  O576  1  0.41296703  0.14984581  0.17211975  1
  O  O577  1  0.41434825  0.14845535  0.42211781  1
  O  O578  1  0.41454104  0.14860628  0.67369136  1
  O  O579  1  0.41340670  0.14755503  0.92291838  1
  O  O580  1  0.41225388  0.48080266  0.17257411  1
  O  O581  1  0.41262043  0.47989075  0.42248277  1
  O  O582  1  0.41357371  0.48104695  0.67228484  1
  O  O583  1  0.41334093  0.48197853  0.92212637  1
  O  O584  1  0.41161392  0.81422563  0.17235722  1
  O  O585  1  0.41272761  0.81716890  0.42195665  1
  O  O586  1  0.41206313  0.81543142  0.67281389  1
  O  O587  1  0.41157567  0.81585048  0.92237610  1
  O  O588  1  0.91186300  0.14774101  0.17273994  1
  O  O589  1  0.91055642  0.15001203  0.42182034  1
  O  O590  1  0.91291381  0.14821920  0.67199870  1
  O  O591  1  0.91384883  0.14917344  0.92348774  1
  O  O592  1  0.91347433  0.48231627  0.17246324  1
  O  O593  1  0.91036266  0.48018105  0.42273891  1
  O  O594  1  0.91044925  0.48053929  0.67315392  1
  O  O595  1  0.91175717  0.48039173  0.92226621  1
  O  O596  1  0.91386568  0.81502602  0.17172561  1
  O  O597  1  0.91502535  0.81499072  0.42305487  1
  O  O598  1  0.91497845  0.81602997  0.67239696  1
  O  O599  1  0.91464696  0.81605557  0.92285536  1
  O  O600  1  0.08886107  0.18555921  0.07834293  1
  O  O601  1  0.08603533  0.18542266  0.32640454  1
  O  O602  1  0.08612959  0.18436213  0.57753928  1
  O  O603  1  0.08688741  0.18385794  0.82770683  1
  O  O604  1  0.08694978  0.51714737  0.07699659  1
  O  O605  1  0.08724656  0.51814092  0.32707328  1
  O  O606  1  0.08822275  0.51853056  0.57758905  1
  O  O607  1  0.08903822  0.51876528  0.82705007  1
  O  O608  1  0.08717092  0.85242095  0.07746124  1
  O  O609  1  0.08772163  0.85126201  0.32850036  1
  O  O610  1  0.08846564  0.85251652  0.57789947  1
  O  O611  1  0.08717363  0.85216401  0.82789249  1
  O  O612  1  0.58837368  0.18627345  0.07690982  1
  O  O613  1  0.58775658  0.18454757  0.32684551  1
  O  O614  1  0.58868045  0.18446775  0.57809758  1
  O  O615  1  0.58896274  0.18453574  0.82900979  1
  O  O616  1  0.58560112  0.51720083  0.07788542  1
  O  O617  1  0.58739007  0.51706346  0.32737139  1
  O  O618  1  0.58755763  0.51731610  0.57770408  1
  O  O619  1  0.58531414  0.51759850  0.82790137  1
  O  O620  1  0.58826552  0.85168026  0.07726735  1
  O  O621  1  0.58785768  0.85316150  0.32615022  1
  O  O622  1  0.58750819  0.85264271  0.57726059  1
  O  O623  1  0.58607546  0.85217367  0.82763077  1
  O  O624  1  0.33603152  0.18462647  0.04862230  1
  O  O625  1  0.33748804  0.18564547  0.29798159  1
  O  O626  1  0.33845040  0.18536940  0.54742711  1
  O  O627  1  0.33458400  0.18444721  0.79830630  1
  O  O628  1  0.33664655  0.51823955  0.04770503  1
  O  O629  1  0.33821312  0.51692113  0.29580047  1
  O  O630  1  0.33729163  0.51717564  0.54696789  1
  O  O631  1  0.33579620  0.51821607  0.79864479  1
  O  O632  1  0.33475881  0.85204561  0.04744292  1
  O  O633  1  0.33731960  0.85206624  0.29836143  1
  O  O634  1  0.33566111  0.85184615  0.54769812  1
  O  O635  1  0.33483123  0.85220213  0.79885365  1
  O  O636  1  0.83650572  0.18379614  0.04702636  1
  O  O637  1  0.83704521  0.18555371  0.29755196  1
  O  O638  1  0.83934207  0.18475340  0.54735428  1
  O  O639  1  0.83981117  0.18601376  0.79806366  1
  O  O640  1  0.83873524  0.51886463  0.04858767  1
  O  O641  1  0.83831986  0.51664951  0.29603746  1
  O  O642  1  0.83784969  0.51717151  0.54700311  1
  O  O643  1  0.83724565  0.51686453  0.79787235  1
  O  O644  1  0.84034386  0.85192182  0.04711330  1
  O  O645  1  0.83753609  0.85275632  0.29718022  1
  O  O646  1  0.83961152  0.85285781  0.54840025  1
  O  O647  1  0.84062516  0.85194632  0.79778281  1
  O  O648  1  0.16153420  0.15010330  0.20252553  1
  O  O649  1  0.16111639  0.14807451  0.45257348  1
  O  O650  1  0.15982472  0.14874018  0.70249330  1
  O  O651  1  0.15972283  0.14910503  0.95323442  1
  O  O652  1  0.16315001  0.48015030  0.20115945  1
  O  O653  1  0.16477073  0.48144281  0.45131117  1
  O  O654  1  0.16227090  0.48143276  0.70277016  1
  O  O655  1  0.16120923  0.48144672  0.95345886  1
  O  O656  1  0.16029038  0.81499714  0.20228883  1
  O  O657  1  0.16089934  0.81599143  0.45265954  1
  O  O658  1  0.16007250  0.81552560  0.70326299  1
  O  O659  1  0.15937297  0.81501753  0.95311758  1
  O  O660  1  0.66327672  0.14885916  0.20327199  1
  O  O661  1  0.66332150  0.14807008  0.45209886  1
  O  O662  1  0.66193276  0.14800423  0.70248008  1
  O  O663  1  0.66407070  0.14878698  0.95170608  1
  O  O664  1  0.66208410  0.48000194  0.20172044  1
  O  O665  1  0.66284282  0.48133227  0.45177913  1
  O  O666  1  0.66274230  0.48163188  0.70226465  1
  O  O667  1  0.66048218  0.48083556  0.95247341  1
  O  O668  1  0.66350591  0.81636933  0.20201762  1
  O  O669  1  0.66394055  0.81540673  0.45202032  1
  O  O670  1  0.66407963  0.81517328  0.70234949  1
  O  O671  1  0.66586395  0.81527559  0.95182445  1
