# generated using pymatgen
data_Na2MnFe(PO4)2
_symmetry_space_group_name_H-M   'P 1'
_cell_length_a   21.07455846
_cell_length_b   18.92538677
_cell_length_c   20.03434255
_cell_angle_alpha   90.00024461
_cell_angle_beta   90.00132824
_cell_angle_gamma   90.00049670
_symmetry_Int_Tables_number   1
_chemical_formula_structural   Na2MnFe(PO4)2
_chemical_formula_sum   'Na96 Mn48 Fe48 P96 O384'
_cell_volume   7990.58071986
_cell_formula_units_Z   48
loop_
 _symmetry_equiv_pos_site_id
 _symmetry_equiv_pos_as_xyz
  1  'x, y, z'
loop_
 _atom_site_type_symbol
 _atom_site_label
 _atom_site_symmetry_multiplicity
 _atom_site_fract_x
 _atom_site_fract_y
 _atom_site_fract_z
 _atom_site_occupancy
  Na  Na0  1  0.00054548  0.00015691  -0.00045689  1
  Na  Na1  1  0.00238781  0.00005133  0.24907884  1
  Na  Na2  1  0.00165759  -0.00053577  0.50082608  1
  Na  Na3  1  -0.00081405  -0.00045042  0.75095392  1
  Na  Na4  1  -0.00232319  0.33241835  0.00013393  1
  Na  Na5  1  -0.00191827  0.33278065  0.24999686  1
  Na  Na6  1  0.00197443  0.33460718  0.49980175  1
  Na  Na7  1  0.00016437  0.33348902  0.74979160  1
  Na  Na8  1  -0.00271981  0.66639008  -0.00041798  1
  Na  Na9  1  -0.00089362  0.66694149  0.24866384  1
  Na  Na10  1  -0.00135989  0.66642954  0.49930087  1
  Na  Na11  1  -0.00227077  0.66635533  0.75118274  1
  Na  Na12  1  0.49936220  -0.00002719  -0.00115787  1
  Na  Na13  1  0.49882264  0.00013508  0.24998457  1
  Na  Na14  1  0.50000124  0.00077046  0.50007063  1
  Na  Na15  1  0.49871452  -0.00074760  0.75001027  1
  Na  Na16  1  0.50235055  0.33356455  -0.00039256  1
  Na  Na17  1  0.50034550  0.33295715  0.25100621  1
  Na  Na18  1  0.50271136  0.33393132  0.50025234  1
  Na  Na19  1  0.50337708  0.33335630  0.74961268  1
  Na  Na20  1  0.49974897  0.66641024  0.00148040  1
  Na  Na21  1  0.49870531  0.66658894  0.25053827  1
  Na  Na22  1  0.50122129  0.66741289  0.49986319  1
  Na  Na23  1  0.50186943  0.66696231  0.74963408  1
  Na  Na24  1  0.24891796  -0.00007976  0.12518046  1
  Na  Na25  1  0.24838905  -0.00041616  0.37362288  1
  Na  Na26  1  0.24893477  0.00007598  0.62510352  1
  Na  Na27  1  0.24910238  -0.00006584  0.87624883  1
  Na  Na28  1  0.25233920  0.33412323  0.12502136  1
  Na  Na29  1  0.24921712  0.33344155  0.37442167  1
  Na  Na30  1  0.24743972  0.33261903  0.62431712  1
  Na  Na31  1  0.25097007  0.33355436  0.87535769  1
  Na  Na32  1  0.25379949  0.66783238  0.12602288  1
  Na  Na33  1  0.25137797  0.66706334  0.37396627  1
  Na  Na34  1  0.25076397  0.66725350  0.62527393  1
  Na  Na35  1  0.25160911  0.66668881  0.87519481  1
  Na  Na36  1  0.74989212  -0.00051342  0.12552887  1
  Na  Na37  1  0.75017003  -0.00029252  0.37484061  1
  Na  Na38  1  0.75164731  0.00042420  0.62385588  1
  Na  Na39  1  0.75229206  0.00096373  0.87496572  1
  Na  Na40  1  0.74999939  0.33366198  0.12518245  1
  Na  Na41  1  0.74887414  0.33327892  0.37463564  1
  Na  Na42  1  0.74662919  0.33206485  0.62563366  1
  Na  Na43  1  0.74830874  0.33284776  0.87630568  1
  Na  Na44  1  0.74950346  0.66694752  0.12501366  1
  Na  Na45  1  0.75018971  0.66627122  0.37616358  1
  Na  Na46  1  0.74948964  0.66647329  0.62455397  1
  Na  Na47  1  0.74812055  0.66694115  0.87377315  1
  Na  Na48  1  -0.00224524  0.16698436  -0.00096209  1
  Na  Na49  1  0.00132017  0.16587573  0.24929065  1
  Na  Na50  1  0.00154884  0.16636727  0.50092589  1
  Na  Na51  1  -0.00160371  0.16724458  0.75021176  1
  Na  Na52  1  -0.00028447  0.49920794  -0.00012199  1
  Na  Na53  1  -0.00160769  0.50012630  0.24958197  1
  Na  Na54  1  -0.00018831  0.49973242  0.49898035  1
  Na  Na55  1  -0.00051747  0.49993198  0.75072142  1
  Na  Na56  1  -0.00099112  0.83338501  0.00048532  1
  Na  Na57  1  0.00032759  0.83328116  0.24906777  1
  Na  Na58  1  0.00170995  0.83278356  0.50001663  1
  Na  Na59  1  -0.00155863  0.83405225  0.75091699  1
  Na  Na60  1  0.49849128  0.16705765  -0.00083195  1
  Na  Na61  1  0.49809280  0.16695247  0.25090909  1
  Na  Na62  1  0.49987179  0.16614894  0.50072979  1
  Na  Na63  1  0.49901350  0.16690207  0.74949314  1
  Na  Na64  1  0.50270506  0.49983983  0.00040531  1
  Na  Na65  1  0.50166486  0.50010403  0.25079830  1
  Na  Na66  1  0.50389908  0.49950524  0.49981840  1
  Na  Na67  1  0.50449241  0.49929958  0.75036824  1
  Na  Na68  1  0.50055909  0.83322517  0.00008201  1
  Na  Na69  1  0.49749502  0.83417289  0.24969201  1
  Na  Na70  1  0.49954121  0.83304989  0.49940872  1
  Na  Na71  1  0.50229104  0.83200500  0.74991992  1
  Na  Na72  1  0.25174502  0.16658645  0.12499179  1
  Na  Na73  1  0.25095837  0.16637233  0.37357832  1
  Na  Na74  1  0.25133965  0.16628627  0.62525768  1
  Na  Na75  1  0.25157171  0.16660682  0.87677862  1
  Na  Na76  1  0.25228191  0.49939337  0.12538139  1
  Na  Na77  1  0.24928138  0.50032229  0.37466313  1
  Na  Na78  1  0.24874246  0.50005169  0.62449684  1
  Na  Na79  1  0.25040805  0.50017301  0.87497760  1
  Na  Na80  1  0.25094974  0.83286797  0.12597861  1
  Na  Na81  1  0.24811957  0.83385561  0.37370695  1
  Na  Na82  1  0.24707808  0.83389838  0.62478804  1
  Na  Na83  1  0.24969133  0.83343474  0.87494353  1
  Na  Na84  1  0.75051774  0.16618439  0.12567440  1
  Na  Na85  1  0.74799218  0.16761605  0.37351243  1
  Na  Na86  1  0.74965599  0.16666575  0.62448365  1
  Na  Na87  1  0.75081925  0.16655211  0.87576161  1
  Na  Na88  1  0.74713342  0.50066736  0.12518443  1
  Na  Na89  1  0.74919917  0.50010547  0.37594905  1
  Na  Na90  1  0.74783851  0.50027783  0.62487714  1
  Na  Na91  1  0.74546376  0.50108955  0.87498936  1
  Na  Na92  1  0.75159646  0.83298398  0.12485530  1
  Na  Na93  1  0.75273040  0.83230348  0.37600776  1
  Na  Na94  1  0.75058121  0.83370455  0.62446476  1
  Na  Na95  1  0.75027378  0.83341201  0.87464075  1
  Mn  Mn96  1  0.39352608  0.58295138  0.62672907  1
  Mn  Mn97  1  0.35778139  0.08250455  0.00264032  1
  Mn  Mn98  1  0.60796531  0.08265296  0.62276445  1
  Mn  Mn99  1  0.85848174  0.74965284  0.50227679  1
  Mn  Mn100  1  0.89175375  0.25084266  0.62726602  1
  Mn  Mn101  1  0.64214747  0.25010934  0.24701947  1
  Mn  Mn102  1  0.14313078  0.58394774  0.99848605  1
  Mn  Mn103  1  0.14161268  0.58301589  0.74762657  1
  Mn  Mn104  1  0.39127376  0.91599330  0.62702124  1
  Mn  Mn105  1  0.14232490  0.25031818  0.99786371  1
  Mn  Mn106  1  0.14132451  0.58420663  0.49741096  1
  Mn  Mn107  1  0.89033084  0.58292113  0.87762458  1
  Mn  Mn108  1  0.35987942  0.41754751  0.00238218  1
  Mn  Mn109  1  0.85648055  0.41634318  0.75216498  1
  Mn  Mn110  1  0.10731116  0.74860417  0.62338505  1
  Mn  Mn111  1  0.85732924  0.41604403  0.50206168  1
  Mn  Mn112  1  0.10754052  0.41615007  0.12287695  1
  Mn  Mn113  1  0.39278929  0.25038465  0.37774194  1
  Mn  Mn114  1  0.14241736  0.58331831  0.24723599  1
  Mn  Mn115  1  0.89044808  0.58239307  0.12719116  1
  Mn  Mn116  1  0.14222095  0.24928945  0.49740075  1
  Mn  Mn117  1  0.85577703  0.41694614  0.00231212  1
  Mn  Mn118  1  0.60815531  0.08304402  0.87242416  1
  Mn  Mn119  1  0.60700844  0.08340248  0.12271328  1
  Mn  Mn120  1  0.39255435  0.25087656  0.62741205  1
  Mn  Mn121  1  0.10680167  0.08389005  0.87285123  1
  Mn  Mn122  1  0.39102402  0.91696660  0.37768458  1
  Mn  Mn123  1  0.10832984  0.08405575  0.62349820  1
  Mn  Mn124  1  0.10720738  0.74952668  0.87361376  1
  Mn  Mn125  1  0.35833389  0.75050652  0.75220479  1
  Mn  Mn126  1  0.64236065  0.91714804  0.49708860  1
  Mn  Mn127  1  0.14270642  0.25022936  0.24703611  1
  Mn  Mn128  1  0.60742948  0.75061935  0.12331734  1
  Mn  Mn129  1  0.39193663  0.91608975  0.87712213  1
  Mn  Mn130  1  0.10775845  0.41633453  0.87322436  1
  Mn  Mn131  1  0.10782665  0.74956875  0.12196779  1
  Mn  Mn132  1  0.85837280  0.08399822  0.50109470  1
  Mn  Mn133  1  0.60779474  0.75094841  0.37219256  1
  Mn  Mn134  1  0.64300165  0.91737348  0.74738672  1
  Mn  Mn135  1  0.35794723  0.41709727  0.50261510  1
  Mn  Mn136  1  0.35852519  0.41607409  0.75166106  1
  Mn  Mn137  1  0.89275945  0.24927340  0.37762225  1
  Mn  Mn138  1  0.89286173  0.91624230  0.62726390  1
  Mn  Mn139  1  0.39304249  0.58293892  0.37780988  1
  Mn  Mn140  1  0.39377028  0.58279069  0.87672476  1
  Mn  Mn141  1  0.89237831  0.91720340  0.12703296  1
  Mn  Mn142  1  0.85864628  0.08294301  0.25302648  1
  Mn  Mn143  1  0.64256913  0.91571333  0.24793664  1
  Fe  Fe144  1  0.60719368  0.41616359  0.12428719  1
  Fe  Fe145  1  0.89141986  0.25000931  0.87671832  1
  Fe  Fe146  1  0.39327044  0.25031243  0.12638647  1
  Fe  Fe147  1  0.10724866  0.74934017  0.37288613  1
  Fe  Fe148  1  0.60787492  0.41635566  0.87302890  1
  Fe  Fe149  1  0.85682095  0.08300384  0.00206566  1
  Fe  Fe150  1  0.10731935  0.08408510  0.12281282  1
  Fe  Fe151  1  0.14193895  0.91707476  0.74937655  1
  Fe  Fe152  1  0.39388452  0.58273681  0.12725397  1
  Fe  Fe153  1  0.60676897  0.08306581  0.37327916  1
  Fe  Fe154  1  0.35861646  0.41681989  0.25237844  1
  Fe  Fe155  1  0.64136875  0.58455040  0.99852240  1
  Fe  Fe156  1  0.35656432  0.75048794  0.50163197  1
  Fe  Fe157  1  0.35695043  0.08258826  0.50131271  1
  Fe  Fe158  1  0.60807482  0.75034932  0.62279685  1
  Fe  Fe159  1  0.85578642  0.75028799  0.00100993  1
  Fe  Fe160  1  0.64245753  0.91690941  0.99843108  1
  Fe  Fe161  1  0.64277833  0.24900211  0.74875780  1
  Fe  Fe162  1  0.89185171  0.24981351  0.12630221  1
  Fe  Fe163  1  0.64346008  0.58336739  0.49784459  1
  Fe  Fe164  1  0.64214592  0.24947267  0.49802564  1
  Fe  Fe165  1  0.89463965  0.91673921  0.37598917  1
  Fe  Fe166  1  0.14290380  0.91653270  0.24781745  1
  Fe  Fe167  1  0.89177774  0.58280043  0.62675217  1
  Fe  Fe168  1  0.14250832  0.24978476  0.74931002  1
  Fe  Fe169  1  0.10701810  0.41746549  0.62370296  1
  Fe  Fe170  1  0.35669290  0.08320622  0.25165676  1
  Fe  Fe171  1  0.85646599  0.41754932  0.25184731  1
  Fe  Fe172  1  0.85638620  0.75023392  0.75182373  1
  Fe  Fe173  1  0.64277652  0.58387948  0.74731165  1
  Fe  Fe174  1  0.60798459  0.75032703  0.87336045  1
  Fe  Fe175  1  0.64319376  0.58412148  0.24907061  1
  Fe  Fe176  1  0.89251622  0.58354039  0.37609968  1
  Fe  Fe177  1  0.89215251  0.91703437  0.87733035  1
  Fe  Fe178  1  0.35867884  0.75030043  0.00152783  1
  Fe  Fe179  1  0.64242232  0.24889463  0.99833445  1
  Fe  Fe180  1  0.14310919  0.91581042  0.99857323  1
  Fe  Fe181  1  0.10701842  0.41706306  0.37249162  1
  Fe  Fe182  1  0.10855966  0.08337167  0.37308435  1
  Fe  Fe183  1  0.85789157  0.74934131  0.25190688  1
  Fe  Fe184  1  0.35687971  0.08348060  0.75139992  1
  Fe  Fe185  1  0.60796988  0.41625862  0.37259799  1
  Fe  Fe186  1  0.39338639  0.25066086  0.87598645  1
  Fe  Fe187  1  0.39207805  0.91696872  0.12640920  1
  Fe  Fe188  1  0.35703246  0.75026394  0.25212238  1
  Fe  Fe189  1  0.14244857  0.91652947  0.49784264  1
  Fe  Fe190  1  0.60832813  0.41676019  0.62253932  1
  Fe  Fe191  1  0.85774566  0.08331492  0.75145957  1
  P  P192  1  0.05183441  0.24941705  0.10968362  1
  P  P193  1  0.05388455  0.24997447  0.35963555  1
  P  P194  1  0.05447200  0.25106832  0.61144856  1
  P  P195  1  0.05188290  0.24988431  0.85961563  1
  P  P196  1  0.05227336  0.58305086  0.10945226  1
  P  P197  1  0.05201695  0.58363536  0.35928822  1
  P  P198  1  0.05119563  0.58269853  0.60988141  1
  P  P199  1  0.05253153  0.58338240  0.86042032  1
  P  P200  1  0.05552002  0.91727943  0.11019574  1
  P  P201  1  0.05517836  0.91622671  0.36022212  1
  P  P202  1  0.05566587  0.91648394  0.61088082  1
  P  P203  1  0.05339334  0.91641372  0.86127812  1
  P  P204  1  0.55265724  0.25013846  0.10968519  1
  P  P205  1  0.55502297  0.24942677  0.36127912  1
  P  P206  1  0.55553514  0.24982198  0.61057795  1
  P  P207  1  0.55439769  0.24974782  0.86041362  1
  P  P208  1  0.55440217  0.58310747  0.11183797  1
  P  P209  1  0.55589067  0.58321341  0.36054843  1
  P  P210  1  0.55637242  0.58392555  0.61024265  1
  P  P211  1  0.55627658  0.58425473  0.86080725  1
  P  P212  1  0.55218463  0.91686923  0.10950885  1
  P  P213  1  0.55264448  0.91762373  0.35954282  1
  P  P214  1  0.55326597  0.91597405  0.60959362  1
  P  P215  1  0.55468881  0.91597436  0.86085511  1
  P  P216  1  0.44566215  0.08317797  0.14047275  1
  P  P217  1  0.44566537  0.08336430  0.38978795  1
  P  P218  1  0.44455725  0.08296697  0.63962352  1
  P  P219  1  0.44512353  0.08397182  0.88834012  1
  P  P220  1  0.44819347  0.41654011  0.14081348  1
  P  P221  1  0.44781055  0.41674185  0.38966026  1
  P  P222  1  0.44941177  0.41708677  0.64001093  1
  P  P223  1  0.44915125  0.41603953  0.88943173  1
  P  P224  1  0.44475383  0.75042767  0.13963109  1
  P  P225  1  0.44462451  0.75021646  0.38980706  1
  P  P226  1  0.44720572  0.74985041  0.63881645  1
  P  P227  1  0.44815101  0.74963407  0.89064751  1
  P  P228  1  0.94640487  0.08376919  0.13862743  1
  P  P229  1  0.94945561  0.08214889  0.38995486  1
  P  P230  1  0.94639685  0.08349551  0.64075028  1
  P  P231  1  0.94376303  0.08337309  0.88941221  1
  P  P232  1  0.94492623  0.41562515  0.14050745  1
  P  P233  1  0.94623739  0.41731917  0.38857349  1
  P  P234  1  0.94715115  0.41754610  0.63998679  1
  P  P235  1  0.94547644  0.41562625  0.89018607  1
  P  P236  1  0.94414079  0.74995344  0.13901044  1
  P  P237  1  0.94678298  0.75028571  0.38825302  1
  P  P238  1  0.94573124  0.74888700  0.64100425  1
  P  P239  1  0.94371297  0.75092943  0.88980630  1
  P  P240  1  0.19569278  0.08304848  0.23504560  1
  P  P241  1  0.19738281  0.08270915  0.48422872  1
  P  P242  1  0.19733715  0.08400274  0.73613029  1
  P  P243  1  0.19505833  0.08278786  0.98656647  1
  P  P244  1  0.19732082  0.41684359  0.23563967  1
  P  P245  1  0.19469592  0.41709441  0.48486958  1
  P  P246  1  0.19623511  0.41547739  0.73453145  1
  P  P247  1  0.19781341  0.41696387  0.98512543  1
  P  P248  1  0.19624661  0.75016845  0.23597717  1
  P  P249  1  0.19663860  0.75035589  0.48403894  1
  P  P250  1  0.19647359  0.75054655  0.73544228  1
  P  P251  1  0.19864715  0.75056461  0.98536074  1
  P  P252  1  0.69581238  0.08273426  0.23578247  1
  P  P253  1  0.69622743  0.08407370  0.48370435  1
  P  P254  1  0.69849749  0.08380753  0.73495453  1
  P  P255  1  0.69740216  0.08309907  0.98549203  1
  P  P256  1  0.69582428  0.41775708  0.23576768  1
  P  P257  1  0.69464888  0.41640812  0.48548508  1
  P  P258  1  0.69414922  0.41607908  0.73592679  1
  P  P259  1  0.69321332  0.41632402  0.98649486  1
  P  P260  1  0.69837187  0.74939713  0.23534187  1
  P  P261  1  0.69587748  0.74960524  0.48594464  1
  P  P262  1  0.69612843  0.75012292  0.73511319  1
  P  P263  1  0.69639377  0.75073308  0.98476104  1
  P  P264  1  0.30580812  0.25047545  0.01465824  1
  P  P265  1  0.30566260  0.25032495  0.26345965  1
  P  P266  1  0.30353028  0.24945531  0.51476169  1
  P  P267  1  0.30291870  0.24961396  0.76561466  1
  P  P268  1  0.30539944  0.58429265  0.01582393  1
  P  P269  1  0.30567902  0.58282114  0.26394305  1
  P  P270  1  0.30315933  0.58435749  0.51495649  1
  P  P271  1  0.30372108  0.58291138  0.76482241  1
  P  P272  1  0.30296658  0.91581322  0.01581072  1
  P  P273  1  0.30349055  0.91711393  0.26343871  1
  P  P274  1  0.30142620  0.91635855  0.51452836  1
  P  P275  1  0.30175120  0.91752293  0.76505331  1
  P  P276  1  0.80318323  0.24918771  0.01472145  1
  P  P277  1  0.80467306  0.25102702  0.26388694  1
  P  P278  1  0.80173320  0.25011669  0.51474858  1
  P  P279  1  0.80223234  0.24964088  0.76564584  1
  P  P280  1  0.80036061  0.58408025  0.01461105  1
  P  P281  1  0.80257578  0.58319834  0.26576905  1
  P  P282  1  0.80423399  0.58281991  0.51449585  1
  P  P283  1  0.80242218  0.58356672  0.76351596  1
  P  P284  1  0.80307345  0.91683856  0.01379186  1
  P  P285  1  0.80466408  0.91566627  0.26595433  1
  P  P286  1  0.80538693  0.91698935  0.51343703  1
  P  P287  1  0.80434051  0.91667516  0.76522966  1
  O  O288  1  0.05618871  0.24997720  0.18636864  1
  O  O289  1  0.05660852  0.24997510  0.43648300  1
  O  O290  1  0.05840275  0.24981090  0.68818281  1
  O  O291  1  0.05612113  0.24964839  0.93632741  1
  O  O292  1  0.05604879  0.58344667  0.18623308  1
  O  O293  1  0.05544245  0.58381892  0.43603181  1
  O  O294  1  0.05492465  0.58353252  0.68659868  1
  O  O295  1  0.05652551  0.58372054  0.93715378  1
  O  O296  1  0.05970764  0.91618841  0.18703668  1
  O  O297  1  0.05908348  0.91625319  0.43708597  1
  O  O298  1  0.05946677  0.91687056  0.68774837  1
  O  O299  1  0.05862144  0.91602947  0.93795118  1
  O  O300  1  0.55617847  0.24922281  0.18646854  1
  O  O301  1  0.55835247  0.24939023  0.43808659  1
  O  O302  1  0.55952126  0.24856666  0.68739514  1
  O  O303  1  0.55877727  0.24845616  0.93715929  1
  O  O304  1  0.55903425  0.58439244  0.18852139  1
  O  O305  1  0.55985669  0.58405723  0.43734732  1
  O  O306  1  0.55981498  0.58415824  0.68720056  1
  O  O307  1  0.55903726  0.58469940  0.93780101  1
  O  O308  1  0.55631779  0.91664064  0.18620771  1
  O  O309  1  0.55617801  0.91680255  0.43630032  1
  O  O310  1  0.55672633  0.91661617  0.68642290  1
  O  O311  1  0.55897810  0.91707270  0.93763054  1
  O  O312  1  0.44343224  0.08278661  0.06358031  1
  O  O313  1  0.44051257  0.08296749  0.31310618  1
  O  O314  1  0.44006804  0.08272350  0.56280429  1
  O  O315  1  0.44080480  0.08313803  0.81156481  1
  O  O316  1  0.44544942  0.41693728  0.06401084  1
  O  O317  1  0.44261718  0.41680743  0.31298482  1
  O  O318  1  0.44497016  0.41708489  0.56331333  1
  O  O319  1  0.44546654  0.41646976  0.81276294  1
  O  O320  1  0.44171436  0.75063618  0.06279214  1
  O  O321  1  0.43994857  0.75053220  0.31297310  1
  O  O322  1  0.44148405  0.75034136  0.56218965  1
  O  O323  1  0.44436598  0.74997961  0.81384879  1
  O  O324  1  0.94120894  0.08290488  0.06193319  1
  O  O325  1  0.94556253  0.08271604  0.31321055  1
  O  O326  1  0.94368735  0.08349634  0.56391400  1
  O  O327  1  0.94011441  0.08337662  0.81256751  1
  O  O328  1  0.94149217  0.41667038  0.06370509  1
  O  O329  1  0.94101239  0.41692488  0.31195580  1
  O  O330  1  0.94357609  0.41671308  0.56322806  1
  O  O331  1  0.94229717  0.41639522  0.81341348  1
  O  O332  1  0.93904703  0.74988476  0.06226559  1
  O  O333  1  0.94238445  0.74997052  0.31152732  1
  O  O334  1  0.94352452  0.74987515  0.56405580  1
  O  O335  1  0.93967696  0.75013269  0.81301609  1
  O  O336  1  0.19126630  0.08426658  0.06336552  1
  O  O337  1  0.19131012  0.08385609  0.31183782  1
  O  O338  1  0.19376458  0.08380979  0.56096041  1
  O  O339  1  0.19389481  0.08412980  0.81287520  1
  O  O340  1  0.19419934  0.41651967  0.06191776  1
  O  O341  1  0.19131927  0.41696895  0.31230288  1
  O  O342  1  0.19011866  0.41738285  0.56164886  1
  O  O343  1  0.19354576  0.41659025  0.81137352  1
  O  O344  1  0.19489746  0.74975831  0.06209346  1
  O  O345  1  0.19108292  0.74921012  0.31261785  1
  O  O346  1  0.19294280  0.74898963  0.56077166  1
  O  O347  1  0.19331027  0.74952963  0.81221359  1
  O  O348  1  0.69370721  0.08304507  0.06220058  1
  O  O349  1  0.69089809  0.08284070  0.31244956  1
  O  O350  1  0.69351570  0.08293289  0.56055318  1
  O  O351  1  0.69464724  0.08320025  0.81163787  1
  O  O352  1  0.68999629  0.41610247  0.06340329  1
  O  O353  1  0.69172084  0.41650804  0.31253848  1
  O  O354  1  0.69129174  0.41639868  0.56241949  1
  O  O355  1  0.69093471  0.41612213  0.81287006  1
  O  O356  1  0.69318327  0.75075584  0.06158590  1
  O  O357  1  0.69453426  0.75029276  0.31199291  1
  O  O358  1  0.69200291  0.75070038  0.56271444  1
  O  O359  1  0.69185526  0.75076526  0.81182760  1
  O  O360  1  0.30974706  0.25079214  0.18666992  1
  O  O361  1  0.30661378  0.25048993  0.43793194  1
  O  O362  1  0.30648069  0.25073857  0.68882988  1
  O  O363  1  0.31021927  0.25086318  0.93788933  1
  O  O364  1  0.31016589  0.58229528  0.18719077  1
  O  O365  1  0.30657511  0.58313366  0.43816335  1
  O  O366  1  0.30721449  0.58280476  0.68803719  1
  O  O367  1  0.30825803  0.58311203  0.93897968  1
  O  O368  1  0.30799196  0.91715869  0.18680228  1
  O  O369  1  0.30464764  0.91643062  0.43777274  1
  O  O370  1  0.30516205  0.91660070  0.68832442  1
  O  O371  1  0.30642394  0.91658865  0.93904186  1
  O  O372  1  0.80857881  0.24987489  0.18708254  1
  O  O373  1  0.80619050  0.25031549  0.43802191  1
  O  O374  1  0.80571390  0.25046225  0.68886259  1
  O  O375  1  0.80758578  0.25001310  0.93800506  1
  O  O376  1  0.80521808  0.58303570  0.18890627  1
  O  O377  1  0.80947774  0.58302058  0.43780785  1
  O  O378  1  0.80714716  0.58268378  0.68682482  1
  O  O379  1  0.80384882  0.58322902  0.93791068  1
  O  O380  1  0.80720496  0.91701242  0.18906577  1
  O  O381  1  0.81044590  0.91687545  0.43675734  1
  O  O382  1  0.80696787  0.91672476  0.68836514  1
  O  O383  1  0.80738926  0.91706245  0.93713381  1
  O  O384  1  0.23566424  0.25026808  0.03863082  1
  O  O385  1  0.23563273  0.25009728  0.28776377  1
  O  O386  1  0.23381917  0.24938318  0.53978544  1
  O  O387  1  0.23294733  0.25000416  0.79058626  1
  O  O388  1  0.23576133  0.58375595  0.04136350  1
  O  O389  1  0.23555749  0.58332087  0.28799490  1
  O  O390  1  0.23338413  0.58405229  0.53983653  1
  O  O391  1  0.23398007  0.58313658  0.78984725  1
  O  O392  1  0.23297719  0.91635348  0.04054616  1
  O  O393  1  0.23311128  0.91691289  0.28727826  1
  O  O394  1  0.23147824  0.91660241  0.53952422  1
  O  O395  1  0.23180685  0.91712094  0.79015070  1
  O  O396  1  0.73277050  0.24964928  0.03859821  1
  O  O397  1  0.73457175  0.25068847  0.28787730  1
  O  O398  1  0.73164412  0.24978605  0.53888420  1
  O  O399  1  0.73214779  0.24989191  0.79032994  1
  O  O400  1  0.73029898  0.58396961  0.03936459  1
  O  O401  1  0.73269889  0.58336568  0.29098207  1
  O  O402  1  0.73367713  0.58307222  0.53744959  1
  O  O403  1  0.73200245  0.58352981  0.78719055  1
  O  O404  1  0.73287637  0.91656235  0.03830062  1
  O  O405  1  0.73496191  0.91597331  0.29117446  1
  O  O406  1  0.73524540  0.91714858  0.53721583  1
  O  O407  1  0.73461143  0.91705037  0.79047613  1
  O  O408  1  0.26614639  0.08340720  0.21152181  1
  O  O409  1  0.26745501  0.08285586  0.45950949  1
  O  O410  1  0.26717720  0.08360953  0.71079508  1
  O  O411  1  0.26509159  0.08276005  0.96235726  1
  O  O412  1  0.26791562  0.41666714  0.21282749  1
  O  O413  1  0.26496000  0.41707296  0.46119713  1
  O  O414  1  0.26589817  0.41610330  0.70896948  1
  O  O415  1  0.26766847  0.41708539  0.96041899  1
  O  O416  1  0.26683972  0.75018050  0.21295222  1
  O  O417  1  0.26667801  0.75039901  0.45934267  1
  O  O418  1  0.26615543  0.75071414  0.71010435  1
  O  O419  1  0.26864317  0.75045658  0.96056393  1
  O  O420  1  0.76604928  0.08264516  0.21226890  1
  O  O421  1  0.76593015  0.08380590  0.45833988  1
  O  O422  1  0.76851953  0.08347655  0.71023756  1
  O  O423  1  0.76744174  0.08340871  0.96083880  1
  O  O424  1  0.76600957  0.41744510  0.21157080  1
  O  O425  1  0.76460628  0.41655853  0.46089559  1
  O  O426  1  0.76399427  0.41613568  0.71090303  1
  O  O427  1  0.76311110  0.41678181  0.96157083  1
  O  O428  1  0.76836139  0.74952556  0.21066592  1
  O  O429  1  0.76597031  0.74934746  0.46182977  1
  O  O430  1  0.76647881  0.75045550  0.71114072  1
  O  O431  1  0.76639603  0.75047563  0.95983740  1
  O  O432  1  0.01682250  0.08333418  0.16216200  1
  O  O433  1  0.01947875  0.08272194  0.41466186  1
  O  O434  1  0.01606593  0.08350010  0.66603855  1
  O  O435  1  0.01386432  0.08336083  0.91361440  1
  O  O436  1  0.01476795  0.41636514  0.16532785  1
  O  O437  1  0.01670592  0.41705679  0.41204252  1
  O  O438  1  0.01703137  0.41721257  0.66499572  1
  O  O439  1  0.01514336  0.41567580  0.91547002  1
  O  O440  1  0.01448422  0.75019951  0.16219008  1
  O  O441  1  0.01701267  0.74997920  0.41259633  1
  O  O442  1  0.01525163  0.74977636  0.66667420  1
  O  O443  1  0.01377410  0.75004500  0.91413016  1
  O  O444  1  0.51526721  0.08351614  0.16609638  1
  O  O445  1  0.51607085  0.08350300  0.41322023  1
  O  O446  1  0.51477318  0.08297112  0.66339155  1
  O  O447  1  0.51515480  0.08362377  0.91260572  1
  O  O448  1  0.51828516  0.41643707  0.16583186  1
  O  O449  1  0.51828782  0.41664526  0.41276496  1
  O  O450  1  0.51966418  0.41671887  0.66386962  1
  O  O451  1  0.51922421  0.41661124  0.91410036  1
  O  O452  1  0.51474301  0.75033287  0.16458839  1
  O  O453  1  0.51492013  0.75017169  0.41300051  1
  O  O454  1  0.51766792  0.74955795  0.66210610  1
  O  O455  1  0.51819503  0.74971719  0.91516400  1
  O  O456  1  0.48256613  0.25011145  0.08515445  1
  O  O457  1  0.48515828  0.24984195  0.33655370  1
  O  O458  1  0.48546582  0.24990584  0.58634515  1
  O  O459  1  0.48412853  0.24980927  0.83626643  1
  O  O460  1  0.48396672  0.58330605  0.08812641  1
  O  O461  1  0.48578294  0.58358887  0.33662485  1
  O  O462  1  0.48648320  0.58355617  0.58543603  1
  O  O463  1  0.48653396  0.58344439  0.83553073  1
  O  O464  1  0.48197582  0.91674328  0.08536872  1
  O  O465  1  0.48281108  0.91715644  0.33490929  1
  O  O466  1  0.48354785  0.91661876  0.58454164  1
  O  O467  1  0.48470384  0.91589446  0.83646926  1
  O  O468  1  0.98167399  0.24973410  0.08545501  1
  O  O469  1  0.98422416  0.24960648  0.33427847  1
  O  O470  1  0.98457626  0.25057620  0.58655544  1
  O  O471  1  0.98160652  0.24996366  0.83568856  1
  O  O472  1  0.98232702  0.58273058  0.08492347  1
  O  O473  1  0.98193248  0.58365808  0.33452362  1
  O  O474  1  0.98131278  0.58292019  0.58477386  1
  O  O475  1  0.98253861  0.58320291  0.83613590  1
  O  O476  1  0.98529599  0.91683827  0.08641765  1
  O  O477  1  0.98498093  0.91634810  0.33567594  1
  O  O478  1  0.98561383  0.91613361  0.58671047  1
  O  O479  1  0.98285817  0.91705858  0.83813716  1
  O  O480  1  0.08561175  0.31451068  0.07675343  1
  O  O481  1  0.08776948  0.31527106  0.32717453  1
  O  O482  1  0.08792975  0.31647819  0.57896285  1
  O  O483  1  0.08604441  0.31473298  0.82686615  1
  O  O484  1  0.08593685  0.64829988  0.07674563  1
  O  O485  1  0.08591655  0.64872781  0.32658026  1
  O  O486  1  0.08504758  0.64783687  0.57691449  1
  O  O487  1  0.08617170  0.64847114  0.82741382  1
  O  O488  1  0.08886886  0.98256736  0.07754413  1
  O  O489  1  0.08896896  0.98127730  0.32722554  1
  O  O490  1  0.08926419  0.98156216  0.57770739  1
  O  O491  1  0.08693338  0.98139856  0.82778433  1
  O  O492  1  0.58679271  0.31525333  0.07764206  1
  O  O493  1  0.58891981  0.31455751  0.32844394  1
  O  O494  1  0.58937268  0.31499250  0.57801237  1
  O  O495  1  0.58811943  0.31493755  0.82789205  1
  O  O496  1  0.58772522  0.64803599  0.07783522  1
  O  O497  1  0.58960447  0.64806231  0.32692007  1
  O  O498  1  0.59012659  0.64898399  0.57731556  1
  O  O499  1  0.58979057  0.64957082  0.82795272  1
  O  O500  1  0.58597596  0.98185860  0.07645572  1
  O  O501  1  0.58644395  0.98286953  0.32727069  1
  O  O502  1  0.58760378  0.98101155  0.57715900  1
  O  O503  1  0.58814537  0.98096778  0.82729351  1
  O  O504  1  0.41138731  0.01800847  0.17278515  1
  O  O505  1  0.41223590  0.01840074  0.42344915  1
  O  O506  1  0.41083171  0.01804597  0.67291753  1
  O  O507  1  0.41146817  0.01899546  0.92176432  1
  O  O508  1  0.41417253  0.35138855  0.17317005  1
  O  O509  1  0.41458243  0.35177469  0.42319446  1
  O  O510  1  0.41568743  0.35203113  0.67294878  1
  O  O511  1  0.41556169  0.35092025  0.92215307  1
  O  O512  1  0.41094903  0.68527466  0.17235869  1
  O  O513  1  0.41127323  0.68522313  0.42315350  1
  O  O514  1  0.41410304  0.68478245  0.67234108  1
  O  O515  1  0.41418563  0.68459717  0.92323645  1
  O  O516  1  0.91326787  0.01874859  0.17241169  1
  O  O517  1  0.91586345  0.01691728  0.42241820  1
  O  O518  1  0.91214570  0.01847503  0.67317242  1
  O  O519  1  0.91019222  0.01828223  0.92269833  1
  O  O520  1  0.91114095  0.35029421  0.17265449  1
  O  O521  1  0.91317157  0.35221124  0.42243027  1
  O  O522  1  0.91298649  0.35258186  0.67276694  1
  O  O523  1  0.91121562  0.35039130  0.92216761  1
  O  O524  1  0.91074181  0.68487957  0.17249752  1
  O  O525  1  0.91294143  0.68530840  0.42136867  1
  O  O526  1  0.91148967  0.68347275  0.67262303  1
  O  O527  1  0.90922911  0.68628492  0.92299925  1
  O  O528  1  0.16219386  0.01785965  0.20232915  1
  O  O529  1  0.16337977  0.01751864  0.45190222  1
  O  O530  1  0.16307299  0.01900284  0.70371135  1
  O  O531  1  0.16148219  0.01731622  0.95435138  1
  O  O532  1  0.16426736  0.35176145  0.20193162  1
  O  O533  1  0.16119391  0.35194049  0.45172446  1
  O  O534  1  0.16219690  0.34992942  0.70292517  1
  O  O535  1  0.16382753  0.35186415  0.95246449  1
  O  O536  1  0.16337155  0.68525356  0.20187616  1
  O  O537  1  0.16260231  0.68553423  0.45059813  1
  O  O538  1  0.16256268  0.68543674  0.70242245  1
  O  O539  1  0.16464354  0.68562604  0.95243900  1
  O  O540  1  0.66240602  0.01769761  0.20247595  1
  O  O541  1  0.66159669  0.01931973  0.45094151  1
  O  O542  1  0.66463702  0.01887073  0.70183305  1
  O  O543  1  0.66375981  0.01801975  0.95251292  1
  O  O544  1  0.66193740  0.35305550  0.20201256  1
  O  O545  1  0.66089798  0.35131028  0.45262546  1
  O  O546  1  0.66032899  0.35082646  0.70350421  1
  O  O547  1  0.65979872  0.35094038  0.95365699  1
  O  O548  1  0.66439839  0.68424231  0.20293982  1
  O  O549  1  0.66229821  0.68436152  0.45337459  1
  O  O550  1  0.66270672  0.68496768  0.70206356  1
  O  O551  1  0.66227185  0.68571831  0.95221310  1
  O  O552  1  0.33963800  0.31535531  0.04795882  1
  O  O553  1  0.33924644  0.31533353  0.29686862  1
  O  O554  1  0.33749349  0.31451723  0.54769133  1
  O  O555  1  0.33748692  0.31444794  0.79849719  1
  O  O556  1  0.33947141  0.64971144  0.04756196  1
  O  O557  1  0.33926939  0.64813092  0.29656263  1
  O  O558  1  0.33702661  0.64989080  0.54681408  1
  O  O559  1  0.33803426  0.64797936  0.79715492  1
  O  O560  1  0.33718824  0.98070698  0.04878506  1
  O  O561  1  0.33643764  0.98241739  0.29687386  1
  O  O562  1  0.33553042  0.98136076  0.54700755  1
  O  O563  1  0.33555263  0.98269754  0.79746950  1
  O  O564  1  0.83681531  0.31409222  0.04817753  1
  O  O565  1  0.83776183  0.31651687  0.29654620  1
  O  O566  1  0.83506291  0.31522855  0.54804966  1
  O  O567  1  0.83608745  0.31460581  0.79880204  1
  O  O568  1  0.83433941  0.64910601  0.04696765  1
  O  O569  1  0.83701698  0.64819210  0.29813760  1
  O  O570  1  0.83769590  0.64768694  0.54809325  1
  O  O571  1  0.83559408  0.64882819  0.79650895  1
  O  O572  1  0.83651666  0.98192797  0.04723373  1
  O  O573  1  0.83946325  0.98034425  0.29871399  1
  O  O574  1  0.83887586  0.98200104  0.54663817  1
  O  O575  1  0.83881427  0.98158690  0.79762971  1
  O  O576  1  0.41120182  0.14827970  0.17248024  1
  O  O577  1  0.41228721  0.14832347  0.42324125  1
  O  O578  1  0.41099933  0.14810282  0.67270158  1
  O  O579  1  0.41168758  0.14922076  0.92104086  1
  O  O580  1  0.41423020  0.48151207  0.17368029  1
  O  O581  1  0.41481866  0.48179265  0.42330519  1
  O  O582  1  0.41617607  0.48216981  0.67315412  1
  O  O583  1  0.41547944  0.48109092  0.92249962  1
  O  O584  1  0.41088556  0.81560286  0.17240439  1
  O  O585  1  0.41103253  0.81516039  0.42322307  1
  O  O586  1  0.41426243  0.81497177  0.67271806  1
  O  O587  1  0.41388000  0.81453669  0.92347447  1
  O  O588  1  0.91325496  0.14891491  0.17185413  1
  O  O589  1  0.91529173  0.14716943  0.42276886  1
  O  O590  1  0.91183819  0.14847782  0.67300897  1
  O  O591  1  0.91002770  0.14854173  0.92225108  1
  O  O592  1  0.91025658  0.48043502  0.17332420  1
  O  O593  1  0.91306260  0.48251443  0.42179244  1
  O  O594  1  0.91311200  0.48267993  0.67241163  1
  O  O595  1  0.91123726  0.48063479  0.92289792  1
  O  O596  1  0.91082714  0.81492634  0.17252972  1
  O  O597  1  0.91378394  0.81559599  0.42155483  1
  O  O598  1  0.91083191  0.81360632  0.67338764  1
  O  O599  1  0.91058714  0.81641121  0.92270836  1
  O  O600  1  0.08543749  0.18428731  0.07687617  1
  O  O601  1  0.08822729  0.18483832  0.32753141  1
  O  O602  1  0.08843564  0.18614721  0.57814738  1
  O  O603  1  0.08562644  0.18485891  0.82647272  1
  O  O604  1  0.08645600  0.51796852  0.07731183  1
  O  O605  1  0.08598108  0.51851016  0.32669426  1
  O  O606  1  0.08530459  0.51766825  0.57748527  1
  O  O607  1  0.08641884  0.51824734  0.82782401  1
  O  O608  1  0.08920008  0.85237997  0.07663821  1
  O  O609  1  0.08862516  0.85103289  0.32706611  1
  O  O610  1  0.08940759  0.85149304  0.57781361  1
  O  O611  1  0.08639982  0.85139120  0.82754762  1
  O  O612  1  0.58649755  0.18522344  0.07636923  1
  O  O613  1  0.58839667  0.18423111  0.32821936  1
  O  O614  1  0.58910926  0.18488982  0.57705747  1
  O  O615  1  0.58794513  0.18496510  0.82647364  1
  O  O616  1  0.58763979  0.51788464  0.07897110  1
  O  O617  1  0.58941874  0.51795811  0.32781229  1
  O  O618  1  0.59046448  0.51877833  0.57779203  1
  O  O619  1  0.59084141  0.51928346  0.82864201  1
  O  O620  1  0.58632214  0.85186159  0.07679565  1
  O  O621  1  0.58662773  0.85255351  0.32660647  1
  O  O622  1  0.58719664  0.85078905  0.57721769  1
  O  O623  1  0.58836954  0.85063610  0.82845164  1
  O  O624  1  0.33944786  0.18534531  0.04764104  1
  O  O625  1  0.33907111  0.18482413  0.29602175  1
  O  O626  1  0.33760041  0.18415965  0.54656641  1
  O  O627  1  0.33691371  0.18435994  0.79781736  1
  O  O628  1  0.34024281  0.51955696  0.04856851  1
  O  O629  1  0.33895662  0.51768364  0.29747845  1
  O  O630  1  0.33745406  0.51947993  0.54784067  1
  O  O631  1  0.33773950  0.51772500  0.79735987  1
  O  O632  1  0.33705794  0.85073692  0.04811689  1
  O  O633  1  0.33680873  0.85212911  0.29689599  1
  O  O634  1  0.33515895  0.85106328  0.54720921  1
  O  O635  1  0.33606244  0.85258302  0.79782962  1
  O  O636  1  0.83666506  0.18400132  0.04776550  1
  O  O637  1  0.83834169  0.18609289  0.29735481  1
  O  O638  1  0.83583852  0.18515903  0.54730276  1
  O  O639  1  0.83629018  0.18455494  0.79798941  1
  O  O640  1  0.83398014  0.51899972  0.04769287  1
  O  O641  1  0.83658549  0.51805566  0.29832399  1
  O  O642  1  0.83706898  0.51767283  0.54818603  1
  O  O643  1  0.83531990  0.51856799  0.79747880  1
  O  O644  1  0.83673241  0.85173269  0.04667005  1
  O  O645  1  0.83884653  0.85025274  0.29759710  1
  O  O646  1  0.83856594  0.85179191  0.54683675  1
  O  O647  1  0.83823277  0.85139560  0.79762455  1
  O  O648  1  0.16219620  0.14792837  0.20131353  1
  O  O649  1  0.16341054  0.14752736  0.45089373  1
  O  O650  1  0.16373454  0.14930582  0.70337349  1
  O  O651  1  0.16156263  0.14763740  0.95294012  1
  O  O652  1  0.16429324  0.48185457  0.20196568  1
  O  O653  1  0.16099444  0.48204228  0.45145042  1
  O  O654  1  0.16134357  0.48015857  0.70170982  1
  O  O655  1  0.16374824  0.48207377  0.95277915  1
  O  O656  1  0.16317870  0.81539891  0.20285848  1
  O  O657  1  0.16253082  0.81560029  0.45192198  1
  O  O658  1  0.16217168  0.81576354  0.70368396  1
  O  O659  1  0.16453217  0.81576651  0.95309279  1
  O  O660  1  0.66259673  0.14790990  0.20234072  1
  O  O661  1  0.66202780  0.14936595  0.45182261  1
  O  O662  1  0.66458931  0.14893876  0.70258032  1
  O  O663  1  0.66350886  0.14822459  0.95277573  1
  O  O664  1  0.66226657  0.48311991  0.20340366  1
  O  O665  1  0.66089100  0.48162184  0.45280594  1
  O  O666  1  0.66027383  0.48117884  0.70313896  1
  O  O667  1  0.65910396  0.48134847  0.95394475  1
  O  O668  1  0.66443839  0.81428281  0.20209400  1
  O  O669  1  0.66250668  0.81450667  0.45226838  1
  O  O670  1  0.66247627  0.81499717  0.70156968  1
  O  O671  1  0.66259288  0.81583411  0.95201191  1
