# generated using pymatgen
data_Na2MnFe(PO4)2
_symmetry_space_group_name_H-M   'P 1'
_cell_length_a   21.08697497
_cell_length_b   18.93988194
_cell_length_c   20.04542554
_cell_angle_alpha   90.00014375
_cell_angle_beta   90.00133508
_cell_angle_gamma   90.00026427
_symmetry_Int_Tables_number   1
_chemical_formula_structural   Na2MnFe(PO4)2
_chemical_formula_sum   'Na96 Mn48 Fe48 P96 O384'
_cell_volume   8005.83859843
_cell_formula_units_Z   48
loop_
 _symmetry_equiv_pos_site_id
 _symmetry_equiv_pos_as_xyz
  1  'x, y, z'
loop_
 _atom_site_type_symbol
 _atom_site_label
 _atom_site_symmetry_multiplicity
 _atom_site_fract_x
 _atom_site_fract_y
 _atom_site_fract_z
 _atom_site_occupancy
  Na  Na0  1  0.00061955  0.00145376  0.00007357  1
  Na  Na1  1  0.00043587  0.00005695  0.25090441  1
  Na  Na2  1  -0.00012720  0.00008052  0.50019694  1
  Na  Na3  1  -0.00230431  -0.00015043  0.74850741  1
  Na  Na4  1  0.00064855  0.33375598  -0.00110190  1
  Na  Na5  1  0.00168626  0.33365214  0.24988158  1
  Na  Na6  1  0.00184373  0.33385621  0.50089762  1
  Na  Na7  1  -0.00068413  0.33282051  0.74983338  1
  Na  Na8  1  0.00031546  0.66658654  -0.00057413  1
  Na  Na9  1  -0.00196734  0.66498158  0.25052151  1
  Na  Na10  1  0.00011625  0.66579644  0.50044670  1
  Na  Na11  1  0.00159586  0.66661257  0.75071526  1
  Na  Na12  1  0.50213448  0.00127485  -0.00106771  1
  Na  Na13  1  0.50127741  0.00079857  0.24970936  1
  Na  Na14  1  0.50057060  0.00118729  0.49981166  1
  Na  Na15  1  0.49896619  -0.00015629  0.75084588  1
  Na  Na16  1  0.50042169  0.33317060  0.00051025  1
  Na  Na17  1  0.50044474  0.33298873  0.24903497  1
  Na  Na18  1  0.50132272  0.33257665  0.50045913  1
  Na  Na19  1  0.50203001  0.33309357  0.75089167  1
  Na  Na20  1  0.50178271  0.66749855  -0.00108238  1
  Na  Na21  1  0.49889748  0.66637459  0.25097346  1
  Na  Na22  1  0.50102182  0.66696971  0.50032164  1
  Na  Na23  1  0.50143580  0.66667397  0.74889297  1
  Na  Na24  1  0.24893191  0.00052482  0.12375242  1
  Na  Na25  1  0.24842993  -0.00020871  0.37495802  1
  Na  Na26  1  0.25010139  0.00091039  0.62569567  1
  Na  Na27  1  0.24882925  0.00065147  0.87554036  1
  Na  Na28  1  0.24852981  0.33319450  0.12565991  1
  Na  Na29  1  0.24935992  0.33262191  0.37489895  1
  Na  Na30  1  0.24965395  0.33324531  0.62506460  1
  Na  Na31  1  0.24825042  0.33275925  0.87468683  1
  Na  Na32  1  0.25004354  0.66654267  0.12467622  1
  Na  Na33  1  0.25160383  0.66750194  0.37576490  1
  Na  Na34  1  0.25021468  0.66697515  0.62483444  1
  Na  Na35  1  0.24750239  0.66525556  0.87484625  1
  Na  Na36  1  0.74890414  -0.00042450  0.12509776  1
  Na  Na37  1  0.74955704  0.00035809  0.37376405  1
  Na  Na38  1  0.75214861  0.00181747  0.62573982  1
  Na  Na39  1  0.75005831  0.00015548  0.87610730  1
  Na  Na40  1  0.75065523  0.33289921  0.12545053  1
  Na  Na41  1  0.74678076  0.33225691  0.37461282  1
  Na  Na42  1  0.74850709  0.33267080  0.62466649  1
  Na  Na43  1  0.75218550  0.33376429  0.87525373  1
  Na  Na44  1  0.75176845  0.66701129  0.12601108  1
  Na  Na45  1  0.74953636  0.66620610  0.37492059  1
  Na  Na46  1  0.74765886  0.66586486  0.62422389  1
  Na  Na47  1  0.74817583  0.66544450  0.87407940  1
  Na  Na48  1  0.00035792  0.16705291  -0.00123598  1
  Na  Na49  1  0.00034183  0.16702993  0.25123120  1
  Na  Na50  1  -0.00019622  0.16703563  0.50083758  1
  Na  Na51  1  0.00017580  0.16640160  0.74928532  1
  Na  Na52  1  0.00040723  0.49924480  -0.00146588  1
  Na  Na53  1  0.00066306  0.49920227  0.24971834  1
  Na  Na54  1  0.00009678  0.50054570  0.50107379  1
  Na  Na55  1  0.00003998  0.50023986  0.75043278  1
  Na  Na56  1  -0.00180421  0.83508183  0.00066934  1
  Na  Na57  1  0.00057444  0.83378636  0.25066207  1
  Na  Na58  1  0.00219135  0.83250924  0.49953598  1
  Na  Na59  1  -0.00030883  0.83354725  0.74961180  1
  Na  Na60  1  0.50361180  0.16582437  -0.00060068  1
  Na  Na61  1  0.50103235  0.16677737  0.24994476  1
  Na  Na62  1  0.50052070  0.16716387  0.50016225  1
  Na  Na63  1  0.50068883  0.16746339  0.75081678  1
  Na  Na64  1  0.49843093  0.50054454  0.00002130  1
  Na  Na65  1  0.50069588  0.49933786  0.24969084  1
  Na  Na66  1  0.50356976  0.49842133  0.50052757  1
  Na  Na67  1  0.50216519  0.49886176  0.74997165  1
  Na  Na68  1  0.50152515  0.83262785  -0.00124678  1
  Na  Na69  1  0.49913068  0.83330613  0.25001662  1
  Na  Na70  1  0.49955820  0.83232835  0.49994362  1
  Na  Na71  1  0.50123559  0.83194934  0.75017532  1
  Na  Na72  1  0.24873154  0.16701456  0.12433791  1
  Na  Na73  1  0.25208863  0.16643597  0.37537584  1
  Na  Na74  1  0.25062325  0.16762259  0.62537890  1
  Na  Na75  1  0.24756528  0.16753433  0.87474120  1
  Na  Na76  1  0.24814423  0.49911039  0.12528883  1
  Na  Na77  1  0.24755779  0.50028119  0.37459009  1
  Na  Na78  1  0.24761016  0.50071169  0.62584492  1
  Na  Na79  1  0.24752637  0.49977833  0.87498072  1
  Na  Na80  1  0.25057915  0.83376290  0.12449948  1
  Na  Na81  1  0.25001770  0.83325175  0.37551046  1
  Na  Na82  1  0.24894013  0.83353825  0.62497110  1
  Na  Na83  1  0.25160660  0.83214410  0.87481051  1
  Na  Na84  1  0.74885650  0.16733808  0.12463462  1
  Na  Na85  1  0.74805627  0.16713406  0.37356495  1
  Na  Na86  1  0.74941211  0.16673252  0.62548773  1
  Na  Na87  1  0.74933749  0.16747133  0.87641642  1
  Na  Na88  1  0.75227636  0.49940570  0.12646189  1
  Na  Na89  1  0.74928645  0.50045433  0.37524364  1
  Na  Na90  1  0.74936198  0.50039536  0.62409461  1
  Na  Na91  1  0.75133983  0.49973074  0.87447238  1
  Na  Na92  1  0.74996359  0.83359075  0.12521166  1
  Na  Na93  1  0.74826534  0.83354343  0.37457788  1
  Na  Na94  1  0.74814824  0.83359352  0.62503047  1
  Na  Na95  1  0.74991541  0.83345975  0.87466182  1
  Mn  Mn96  1  0.85716986  0.75049466  0.50252719  1
  Mn  Mn97  1  0.14118952  0.91660947  0.99728605  1
  Mn  Mn98  1  0.60780942  0.75025929  0.12265617  1
  Mn  Mn99  1  0.60808814  0.41682787  0.12179794  1
  Mn  Mn100  1  0.10823744  0.08404284  0.37307353  1
  Mn  Mn101  1  0.60885339  0.41694797  0.87337351  1
  Mn  Mn102  1  0.35795123  0.74898778  0.00193942  1
  Mn  Mn103  1  0.35781055  0.41686567  0.75235197  1
  Mn  Mn104  1  0.10843522  0.74922899  0.37249529  1
  Mn  Mn105  1  0.39248441  0.91719551  0.12660883  1
  Mn  Mn106  1  0.14237828  0.24885843  0.24776761  1
  Mn  Mn107  1  0.39164356  0.91708864  0.62767697  1
  Mn  Mn108  1  0.89233683  0.58358405  0.87697990  1
  Mn  Mn109  1  0.39284182  0.58198359  0.62701962  1
  Mn  Mn110  1  0.39240152  0.58198565  0.37766306  1
  Mn  Mn111  1  0.64159260  0.91691034  0.24741033  1
  Mn  Mn112  1  0.85692388  0.41590479  0.50200385  1
  Mn  Mn113  1  0.39209264  0.58289333  0.87650934  1
  Mn  Mn114  1  0.85831239  0.75010781  0.25255607  1
  Mn  Mn115  1  0.14178681  0.58440653  0.24753238  1
  Mn  Mn116  1  0.89187016  0.25062662  0.37769719  1
  Mn  Mn117  1  0.39252367  0.25031526  0.87739682  1
  Mn  Mn118  1  0.64158158  0.91702122  0.49742789  1
  Mn  Mn119  1  0.64269280  0.91690788  0.74725315  1
  Mn  Mn120  1  0.89155584  0.25074628  0.62705901  1
  Mn  Mn121  1  0.89210726  0.91544792  0.62655365  1
  Mn  Mn122  1  0.89253632  0.91629649  0.37791821  1
  Mn  Mn123  1  0.60799330  0.08305575  0.62325194  1
  Mn  Mn124  1  0.64293955  0.58302317  0.99794690  1
  Mn  Mn125  1  0.14202440  0.91664145  0.74801853  1
  Mn  Mn126  1  0.64257205  0.58304986  0.24766920  1
  Mn  Mn127  1  0.85770699  0.08363343  0.00274158  1
  Mn  Mn128  1  0.39120182  0.58341713  0.12676265  1
  Mn  Mn129  1  0.35724461  0.08430643  0.00184436  1
  Mn  Mn130  1  0.39238580  0.24946421  0.12619706  1
  Mn  Mn131  1  0.39292802  0.91677986  0.87710070  1
  Mn  Mn132  1  0.35824980  0.08313441  0.50241273  1
  Mn  Mn133  1  0.10760711  0.74996748  0.12285975  1
  Mn  Mn134  1  0.10751753  0.41705538  0.62295040  1
  Mn  Mn135  1  0.85735831  0.74999515  0.75178590  1
  Mn  Mn136  1  0.85851789  0.41609906  0.25265501  1
  Mn  Mn137  1  0.39181527  0.91730046  0.37713173  1
  Mn  Mn138  1  0.85761090  0.74952037  0.00222409  1
  Mn  Mn139  1  0.35728195  0.41640073  0.25254344  1
  Mn  Mn140  1  0.10765539  0.75113158  0.87261242  1
  Mn  Mn141  1  0.35797400  0.41721121  0.50203143  1
  Mn  Mn142  1  0.10754482  0.08268021  0.62269686  1
  Mn  Mn143  1  0.85759107  0.08365554  0.25174953  1
  Fe  Fe144  1  0.60627130  0.74997940  0.37312329  1
  Fe  Fe145  1  0.14234454  0.58330719  0.49835521  1
  Fe  Fe146  1  0.85855774  0.41660689  0.00184883  1
  Fe  Fe147  1  0.14169169  0.58275162  0.99859168  1
  Fe  Fe148  1  0.85644434  0.08365202  0.50066349  1
  Fe  Fe149  1  0.10802074  0.74970743  0.62354877  1
  Fe  Fe150  1  0.10735445  0.41664372  0.37412318  1
  Fe  Fe151  1  0.64186258  0.24970845  0.49796743  1
  Fe  Fe152  1  0.35695812  0.08355361  0.75216697  1
  Fe  Fe153  1  0.64228196  0.25012756  0.24742513  1
  Fe  Fe154  1  0.60795801  0.74996181  0.87250553  1
  Fe  Fe155  1  0.89344347  0.58311045  0.12630664  1
  Fe  Fe156  1  0.14305184  0.91697029  0.24822428  1
  Fe  Fe157  1  0.64409873  0.25048166  0.99813031  1
  Fe  Fe158  1  0.64288327  0.58308569  0.49765882  1
  Fe  Fe159  1  0.89339565  0.24986644  0.12651445  1
  Fe  Fe160  1  0.89258586  0.58368985  0.62661937  1
  Fe  Fe161  1  0.10624507  0.08373596  0.87257929  1
  Fe  Fe162  1  0.35775543  0.08295496  0.25100638  1
  Fe  Fe163  1  0.14289394  0.91686719  0.49850991  1
  Fe  Fe164  1  0.35739626  0.75068710  0.25148336  1
  Fe  Fe165  1  0.64283838  0.58227311  0.74771672  1
  Fe  Fe166  1  0.60738378  0.41651069  0.37294455  1
  Fe  Fe167  1  0.60683172  0.74976535  0.62262569  1
  Fe  Fe168  1  0.10688356  0.41603325  0.12271508  1
  Fe  Fe169  1  0.60748424  0.08304564  0.12286688  1
  Fe  Fe170  1  0.10662306  0.41584301  0.87284198  1
  Fe  Fe171  1  0.14126463  0.25036570  0.99794013  1
  Fe  Fe172  1  0.10730108  0.08382935  0.12373793  1
  Fe  Fe173  1  0.64314206  0.91667471  0.99792458  1
  Fe  Fe174  1  0.14346166  0.25016137  0.49830266  1
  Fe  Fe175  1  0.60744788  0.08343666  0.37289449  1
  Fe  Fe176  1  0.14247576  0.58340066  0.74792866  1
  Fe  Fe177  1  0.35696621  0.74965063  0.50202333  1
  Fe  Fe178  1  0.85688096  0.41640219  0.75101786  1
  Fe  Fe179  1  0.60839240  0.41638082  0.62345440  1
  Fe  Fe180  1  0.35727318  0.75002498  0.75112033  1
  Fe  Fe181  1  0.89299438  0.58296825  0.37734534  1
  Fe  Fe182  1  0.39386650  0.25023495  0.37642692  1
  Fe  Fe183  1  0.64365040  0.25046852  0.74892369  1
  Fe  Fe184  1  0.14251896  0.25005212  0.74794775  1
  Fe  Fe185  1  0.89303533  0.24962887  0.87646122  1
  Fe  Fe186  1  0.85733520  0.08424665  0.75220274  1
  Fe  Fe187  1  0.89262617  0.91718753  0.12689722  1
  Fe  Fe188  1  0.39334715  0.25029587  0.62697642  1
  Fe  Fe189  1  0.60803506  0.08315636  0.87273242  1
  Fe  Fe190  1  0.89214465  0.91722856  0.87677728  1
  Fe  Fe191  1  0.35566542  0.41629832  0.00121930  1
  P  P192  1  0.05279333  0.24971828  0.10948476  1
  P  P193  1  0.05457753  0.25091331  0.36158607  1
  P  P194  1  0.05489234  0.24994365  0.61058542  1
  P  P195  1  0.05376704  0.24999053  0.86017883  1
  P  P196  1  0.05259103  0.58244937  0.10940907  1
  P  P197  1  0.05359709  0.58221717  0.36129589  1
  P  P198  1  0.05420975  0.58411113  0.61089907  1
  P  P199  1  0.05534598  0.58238092  0.86053935  1
  P  P200  1  0.05329523  0.91772975  0.11151077  1
  P  P201  1  0.05578898  0.91681943  0.36056928  1
  P  P202  1  0.05409930  0.91568120  0.60938036  1
  P  P203  1  0.05134247  0.91818217  0.85966315  1
  P  P204  1  0.55556500  0.24921295  0.10999496  1
  P  P205  1  0.55469879  0.25006417  0.36039231  1
  P  P206  1  0.55484839  0.25036167  0.61117829  1
  P  P207  1  0.55622901  0.24976497  0.86090859  1
  P  P208  1  0.55290397  0.58349841  0.10960657  1
  P  P209  1  0.55468459  0.58318070  0.36134029  1
  P  P210  1  0.55580064  0.58280353  0.61061098  1
  P  P211  1  0.55452552  0.58357883  0.85905903  1
  P  P212  1  0.55394079  0.91735525  0.10872111  1
  P  P213  1  0.55307114  0.91646954  0.36007105  1
  P  P214  1  0.55279876  0.91619505  0.61006419  1
  P  P215  1  0.55542550  0.91676613  0.86082915  1
  P  P216  1  0.44765049  0.08366015  0.13997131  1
  P  P217  1  0.44700684  0.08443019  0.38849339  1
  P  P218  1  0.44609644  0.08471041  0.64106329  1
  P  P219  1  0.44697771  0.08392707  0.88894829  1
  P  P220  1  0.44513478  0.41632366  0.13870180  1
  P  P221  1  0.44829984  0.41546727  0.39002395  1
  P  P222  1  0.44858778  0.41556731  0.64006555  1
  P  P223  1  0.44637670  0.41648747  0.89096207  1
  P  P224  1  0.44606192  0.75008043  0.14049778  1
  P  P225  1  0.44523801  0.74985159  0.38970341  1
  P  P226  1  0.44577055  0.74934192  0.63927031  1
  P  P227  1  0.44685222  0.74944146  0.88818009  1
  P  P228  1  0.94789498  0.08414753  0.13992979  1
  P  P229  1  0.94608274  0.08369742  0.39099984  1
  P  P230  1  0.94413056  0.08366931  0.63907744  1
  P  P231  1  0.94581805  0.08384572  0.88851058  1
  P  P232  1  0.94678299  0.41606268  0.13839064  1
  P  P233  1  0.94792052  0.41713219  0.39065931  1
  P  P234  1  0.94552360  0.41767890  0.64053100  1
  P  P235  1  0.94550738  0.41571696  0.88847059  1
  P  P236  1  0.94670556  0.75011960  0.14001525  1
  P  P237  1  0.94700168  0.74906560  0.39056327  1
  P  P238  1  0.94806144  0.74882109  0.63986005  1
  P  P239  1  0.94644919  0.75089420  0.88984001  1
  P  P240  1  0.19746751  0.08276974  0.23442241  1
  P  P241  1  0.19694452  0.08392405  0.48552641  1
  P  P242  1  0.19606268  0.08425218  0.73626378  1
  P  P243  1  0.19367339  0.08466280  0.98520378  1
  P  P244  1  0.19421382  0.41634597  0.23556268  1
  P  P245  1  0.19597142  0.41666237  0.48483011  1
  P  P246  1  0.19497616  0.41620072  0.73638501  1
  P  P247  1  0.19438341  0.41605874  0.98556148  1
  P  P248  1  0.19805046  0.75110186  0.23496169  1
  P  P249  1  0.19631649  0.74973713  0.48651029  1
  P  P250  1  0.19704398  0.74950484  0.73459827  1
  P  P251  1  0.19635797  0.74926527  0.98494271  1
  P  P252  1  0.69448204  0.08416118  0.23496982  1
  P  P253  1  0.69662834  0.08412839  0.48429095  1
  P  P254  1  0.69712226  0.08442743  0.73675277  1
  P  P255  1  0.69496491  0.08335601  0.98605101  1
  P  P256  1  0.69554469  0.41599487  0.23599059  1
  P  P257  1  0.69445147  0.41648335  0.48551546  1
  P  P258  1  0.69743945  0.41627820  0.73476301  1
  P  P259  1  0.69919575  0.41612725  0.98530445  1
  P  P260  1  0.69561449  0.74992580  0.23597005  1
  P  P261  1  0.69436868  0.74925970  0.48520335  1
  P  P262  1  0.69470021  0.74903141  0.73502553  1
  P  P263  1  0.69629041  0.75059894  0.98430911  1
  P  P264  1  0.30122817  0.25103559  0.01449189  1
  P  P265  1  0.30449167  0.24875508  0.26525940  1
  P  P266  1  0.30469068  0.25060320  0.51449718  1
  P  P267  1  0.30356695  0.24968103  0.76402282  1
  P  P268  1  0.30132850  0.58156352  0.01435985  1
  P  P269  1  0.30303639  0.58383216  0.26521870  1
  P  P270  1  0.30207377  0.58315597  0.51511851  1
  P  P271  1  0.30207797  0.58385625  0.76463443  1
  P  P272  1  0.30310041  0.91713541  0.01450168  1
  P  P273  1  0.30251546  0.91746715  0.26446669  1
  P  P274  1  0.30223489  0.91616297  0.51507518  1
  P  P275  1  0.30336119  0.91693989  0.76515905  1
  P  P276  1  0.80495097  0.25058492  0.01452291  1
  P  P277  1  0.80334291  0.24982721  0.26383797  1
  P  P278  1  0.80124920  0.24920278  0.51456223  1
  P  P279  1  0.80322026  0.25035435  0.76550245  1
  P  P280  1  0.80437098  0.58241760  0.01574981  1
  P  P281  1  0.80596843  0.58287687  0.26504425  1
  P  P282  1  0.80386567  0.58322190  0.51429680  1
  P  P283  1  0.80338811  0.58265670  0.76313710  1
  P  P284  1  0.80395654  0.91686840  0.01466235  1
  P  P285  1  0.80456162  0.91699452  0.26413626  1
  P  P286  1  0.80249488  0.91762812  0.51483775  1
  P  P287  1  0.80410990  0.91744493  0.76556266  1
  O  O288  1  0.05622244  0.24957776  0.18622607  1
  O  O289  1  0.05901802  0.24993120  0.43828812  1
  O  O290  1  0.05893687  0.24973680  0.68737885  1
  O  O291  1  0.05778355  0.25026985  0.93689177  1
  O  O292  1  0.05592681  0.58314307  0.18618385  1
  O  O293  1  0.05853262  0.58326622  0.43797614  1
  O  O294  1  0.05899021  0.58357654  0.68761997  1
  O  O295  1  0.05905287  0.58301802  0.93731816  1
  O  O296  1  0.05850463  0.91693455  0.18816049  1
  O  O297  1  0.06035644  0.91678066  0.43734029  1
  O  O298  1  0.05687093  0.91678751  0.68618556  1
  O  O299  1  0.05501957  0.91761577  0.93639368  1
  O  O300  1  0.55888138  0.25033360  0.18681594  1
  O  O301  1  0.55859851  0.24964625  0.43720530  1
  O  O302  1  0.55977885  0.24992929  0.68784811  1
  O  O303  1  0.56058357  0.25071677  0.93764034  1
  O  O304  1  0.55640993  0.58307727  0.18637216  1
  O  O305  1  0.55837106  0.58318906  0.43811539  1
  O  O306  1  0.55944260  0.58248220  0.68741189  1
  O  O307  1  0.55742941  0.58285527  0.93585079  1
  O  O308  1  0.55633605  0.91655621  0.18554553  1
  O  O309  1  0.55563289  0.91662978  0.43684627  1
  O  O310  1  0.55615242  0.91681783  0.68682998  1
  O  O311  1  0.55923572  0.91683877  0.93755293  1
  O  O312  1  0.44350390  0.08390627  0.06325397  1
  O  O313  1  0.44217849  0.08333830  0.31189612  1
  O  O314  1  0.44336279  0.08400931  0.56418140  1
  O  O315  1  0.44128267  0.08414691  0.81236140  1
  O  O316  1  0.43998428  0.41640578  0.06203237  1
  O  O317  1  0.44407379  0.41634045  0.31335919  1
  O  O318  1  0.44445347  0.41626367  0.56343121  1
  O  O319  1  0.44316561  0.41612390  0.81413454  1
  O  O320  1  0.44324139  0.74987987  0.06361327  1
  O  O321  1  0.44020901  0.75015938  0.31299358  1
  O  O322  1  0.44040526  0.74941838  0.56256297  1
  O  O323  1  0.44129232  0.74919830  0.81154000  1
  O  O324  1  0.94432960  0.08412609  0.06321262  1
  O  O325  1  0.94284882  0.08389163  0.31420440  1
  O  O326  1  0.93970313  0.08412784  0.56239297  1
  O  O327  1  0.94128011  0.08396620  0.81179977  1
  O  O328  1  0.94248732  0.41611885  0.06166646  1
  O  O329  1  0.94455372  0.41613535  0.31389613  1
  O  O330  1  0.94244936  0.41673359  0.56377751  1
  O  O331  1  0.94062198  0.41643895  0.81183845  1
  O  O332  1  0.94394438  0.75031806  0.06324062  1
  O  O333  1  0.94387663  0.74995610  0.31380820  1
  O  O334  1  0.94396094  0.74933697  0.56321237  1
  O  O335  1  0.94336636  0.74998070  0.81307909  1
  O  O336  1  0.18962048  0.08392702  0.06199673  1
  O  O337  1  0.19389813  0.08395742  0.31111696  1
  O  O338  1  0.19407408  0.08413351  0.56228391  1
  O  O339  1  0.19084295  0.08360839  0.81291216  1
  O  O340  1  0.19020420  0.41590623  0.06236376  1
  O  O341  1  0.19014322  0.41639796  0.31229561  1
  O  O342  1  0.19324479  0.41684027  0.56163299  1
  O  O343  1  0.19096069  0.41578952  0.81311714  1
  O  O344  1  0.19326953  0.75026874  0.06171713  1
  O  O345  1  0.19446285  0.75008074  0.31169228  1
  O  O346  1  0.19182822  0.74946787  0.56316909  1
  O  O347  1  0.19322747  0.75016189  0.81130492  1
  O  O348  1  0.69142060  0.08305008  0.06283672  1
  O  O349  1  0.69036711  0.08328827  0.31175567  1
  O  O350  1  0.69346788  0.08345097  0.56106851  1
  O  O351  1  0.69251380  0.08348720  0.81338758  1
  O  O352  1  0.69526466  0.41661912  0.06197305  1
  O  O353  1  0.69110467  0.41670867  0.31272791  1
  O  O354  1  0.69126712  0.41642209  0.56235053  1
  O  O355  1  0.69462385  0.41667790  0.81143881  1
  O  O356  1  0.69380772  0.75000557  0.06114044  1
  O  O357  1  0.69072689  0.74988385  0.31267182  1
  O  O358  1  0.69038979  0.75021684  0.56202034  1
  O  O359  1  0.69115626  0.74977102  0.81183734  1
  O  O360  1  0.30713358  0.24966887  0.18847326  1
  O  O361  1  0.30993369  0.25055876  0.43784953  1
  O  O362  1  0.30874001  0.25057850  0.68739042  1
  O  O363  1  0.30541017  0.25024621  0.93783106  1
  O  O364  1  0.30574808  0.58269049  0.18842971  1
  O  O365  1  0.30621117  0.58225967  0.43845628  1
  O  O366  1  0.30640522  0.58306785  0.68798626  1
  O  O367  1  0.30521144  0.58221783  0.93770042  1
  O  O368  1  0.30595920  0.91765839  0.18778863  1
  O  O369  1  0.30597918  0.91685138  0.43837103  1
  O  O370  1  0.30587592  0.91710142  0.68834627  1
  O  O371  1  0.30678627  0.91734492  0.93774622  1
  O  O372  1  0.80900303  0.24985768  0.18722683  1
  O  O373  1  0.80501476  0.25017116  0.43788587  1
  O  O374  1  0.80604404  0.25001696  0.68872749  1
  O  O375  1  0.80966962  0.24986862  0.93785221  1
  O  O376  1  0.81087643  0.58286073  0.18829329  1
  O  O377  1  0.80898576  0.58323667  0.43761779  1
  O  O378  1  0.80803623  0.58380232  0.68648269  1
  O  O379  1  0.80693290  0.58317494  0.93888269  1
  O  O380  1  0.80936647  0.91701618  0.18734255  1
  O  O381  1  0.80547463  0.91643501  0.43806641  1
  O  O382  1  0.80695248  0.91647742  0.68874725  1
  O  O383  1  0.80893193  0.91711796  0.93796694  1
  O  O384  1  0.23115021  0.25059701  0.03886955  1
  O  O385  1  0.23471082  0.24930595  0.29023193  1
  O  O386  1  0.23414011  0.25063744  0.53766677  1
  O  O387  1  0.23312190  0.25000624  0.78747952  1
  O  O388  1  0.23131700  0.58226453  0.03914643  1
  O  O389  1  0.23337599  0.58398886  0.29050702  1
  O  O390  1  0.23193021  0.58320555  0.53935725  1
  O  O391  1  0.23187500  0.58305056  0.78871387  1
  O  O392  1  0.23325873  0.91716441  0.03904238  1
  O  O393  1  0.23265304  0.91711593  0.28970108  1
  O  O394  1  0.23223701  0.91688730  0.53978626  1
  O  O395  1  0.23377313  0.91649843  0.79078866  1
  O  O396  1  0.73448081  0.24985857  0.03791429  1
  O  O397  1  0.73286888  0.24989388  0.28685908  1
  O  O398  1  0.73125632  0.24977999  0.53921557  1
  O  O399  1  0.73328696  0.25057913  0.79056059  1
  O  O400  1  0.73482497  0.58307292  0.04134789  1
  O  O401  1  0.73569108  0.58292605  0.28826426  1
  O  O402  1  0.73328683  0.58300476  0.53717564  1
  O  O403  1  0.73310122  0.58240715  0.78703775  1
  O  O404  1  0.73349297  0.91700928  0.03791282  1
  O  O405  1  0.73439122  0.91712235  0.28763623  1
  O  O406  1  0.73297940  0.91770120  0.54045005  1
  O  O407  1  0.73433651  0.91705638  0.79042903  1
  O  O408  1  0.26742119  0.08362728  0.20956864  1
  O  O409  1  0.26657630  0.08345504  0.46011742  1
  O  O410  1  0.26638770  0.08413154  0.71259058  1
  O  O411  1  0.26380930  0.08415370  0.96120806  1
  O  O412  1  0.26434801  0.41603060  0.21175838  1
  O  O413  1  0.26559548  0.41656290  0.45933600  1
  O  O414  1  0.26487464  0.41668462  0.71172149  1
  O  O415  1  0.26455930  0.41594947  0.96118870  1
  O  O416  1  0.26797215  0.75062818  0.21012465  1
  O  O417  1  0.26662414  0.74976831  0.46243610  1
  O  O418  1  0.26719021  0.75034762  0.71026796  1
  O  O419  1  0.26598837  0.74890908  0.95962923  1
  O  O420  1  0.76452663  0.08353138  0.21078940  1
  O  O421  1  0.76648772  0.08376281  0.45909902  1
  O  O422  1  0.76739113  0.08448680  0.71289920  1
  O  O423  1  0.76506116  0.08371627  0.96187499  1
  O  O424  1  0.76564765  0.41619510  0.21216924  1
  O  O425  1  0.76433576  0.41639830  0.46060589  1
  O  O426  1  0.76732376  0.41630167  0.70946007  1
  O  O427  1  0.76916603  0.41647224  0.96062101  1
  O  O428  1  0.76571089  0.75016089  0.21223276  1
  O  O429  1  0.76443073  0.74987657  0.46105169  1
  O  O430  1  0.76468473  0.74994981  0.71052344  1
  O  O431  1  0.76588911  0.74951968  0.95879125  1
  O  O432  1  0.01781667  0.08385101  0.16503675  1
  O  O433  1  0.01590454  0.08365286  0.41566473  1
  O  O434  1  0.01435837  0.08315673  0.66276081  1
  O  O435  1  0.01606639  0.08431870  0.91245553  1
  O  O436  1  0.01705673  0.41596026  0.16248525  1
  O  O437  1  0.01770900  0.41707944  0.41580536  1
  O  O438  1  0.01528457  0.41689680  0.66534186  1
  O  O439  1  0.01602687  0.41616340  0.91173134  1
  O  O440  1  0.01623328  0.74961076  0.16585428  1
  O  O441  1  0.01675118  0.74921089  0.41538475  1
  O  O442  1  0.01807541  0.74956779  0.66447383  1
  O  O443  1  0.01607241  0.75082323  0.91514991  1
  O  O444  1  0.51783192  0.08367948  0.16395698  1
  O  O445  1  0.51732455  0.08425090  0.41246177  1
  O  O446  1  0.51581394  0.08384765  0.66611021  1
  O  O447  1  0.51752425  0.08392978  0.91177339  1
  O  O448  1  0.51533332  0.41611904  0.16224503  1
  O  O449  1  0.51838234  0.41563257  0.41430125  1
  O  O450  1  0.51874273  0.41599360  0.66432974  1
  O  O451  1  0.51625316  0.41674908  0.91553541  1
  O  O452  1  0.51570509  0.74988410  0.16565951  1
  O  O453  1  0.51573623  0.74974010  0.41288144  1
  O  O454  1  0.51638138  0.74907563  0.66207843  1
  O  O455  1  0.51736413  0.74980089  0.91123413  1
  O  O456  1  0.48563691  0.24937037  0.08532763  1
  O  O457  1  0.48450688  0.25011112  0.33603597  1
  O  O458  1  0.48447241  0.24988988  0.58751584  1
  O  O459  1  0.48604872  0.25024622  0.83715025  1
  O  O460  1  0.48323403  0.58402680  0.08457399  1
  O  O461  1  0.48481502  0.58293961  0.33658284  1
  O  O462  1  0.48579231  0.58280781  0.58605341  1
  O  O463  1  0.48482414  0.58275617  0.83377989  1
  O  O464  1  0.48444356  0.91698978  0.08298804  1
  O  O465  1  0.48356690  0.91683737  0.33438193  1
  O  O466  1  0.48316869  0.91669479  0.58480999  1
  O  O467  1  0.48552306  0.91631483  0.83617043  1
  O  O468  1  0.98282328  0.25021358  0.08451281  1
  O  O469  1  0.98462270  0.25034869  0.33718945  1
  O  O470  1  0.98470256  0.25057680  0.58678906  1
  O  O471  1  0.98340914  0.24974867  0.83620894  1
  O  O472  1  0.98258800  0.58278991  0.08460932  1
  O  O473  1  0.98335323  0.58235205  0.33743217  1
  O  O474  1  0.98381169  0.58320207  0.58738415  1
  O  O475  1  0.98522509  0.58305318  0.83644150  1
  O  O476  1  0.98292340  0.91798701  0.08775104  1
  O  O477  1  0.98556128  0.91692653  0.33714157  1
  O  O478  1  0.98439699  0.91610647  0.58422920  1
  O  O479  1  0.98143805  0.91744190  0.83482610  1
  O  O480  1  0.08698209  0.31460871  0.07672120  1
  O  O481  1  0.08781162  0.31619420  0.32882992  1
  O  O482  1  0.08883562  0.31482713  0.57775090  1
  O  O483  1  0.08719429  0.31504026  0.82693469  1
  O  O484  1  0.08682040  0.64732920  0.07676493  1
  O  O485  1  0.08680352  0.64722058  0.32749520  1
  O  O486  1  0.08731444  0.64922702  0.57757679  1
  O  O487  1  0.08933493  0.64718200  0.82733795  1
  O  O488  1  0.08667761  0.98275355  0.07842555  1
  O  O489  1  0.08932571  0.98179633  0.32730610  1
  O  O490  1  0.08852439  0.98052483  0.57670238  1
  O  O491  1  0.08491913  0.98334146  0.82700046  1
  O  O492  1  0.58966383  0.31394265  0.07662734  1
  O  O493  1  0.58829355  0.31519941  0.32744923  1
  O  O494  1  0.58812922  0.31541383  0.57786752  1
  O  O495  1  0.58996880  0.31464792  0.82751334  1
  O  O496  1  0.58733574  0.64840435  0.07743186  1
  O  O497  1  0.58813258  0.64847974  0.32853225  1
  O  O498  1  0.58943869  0.64797190  0.57777073  1
  O  O499  1  0.58858292  0.64865301  0.82678050  1
  O  O500  1  0.58825029  0.98263100  0.07698993  1
  O  O501  1  0.58756011  0.98147426  0.32797320  1
  O  O502  1  0.58700167  0.98132749  0.57777883  1
  O  O503  1  0.58868614  0.98216509  0.82785461  1
  O  O504  1  0.41394448  0.01859313  0.17292654  1
  O  O505  1  0.41365384  0.01957277  0.42232522  1
  O  O506  1  0.41124367  0.02000113  0.67347719  1
  O  O507  1  0.41399770  0.01886131  0.92244724  1
  O  O508  1  0.41191810  0.35115427  0.17195353  1
  O  O509  1  0.41470581  0.35030859  0.42258351  1
  O  O510  1  0.41497977  0.35048737  0.67286286  1
  O  O511  1  0.41227321  0.35154783  0.92368229  1
  O  O512  1  0.41143539  0.68538932  0.17297285  1
  O  O513  1  0.41199741  0.68483344  0.42323543  1
  O  O514  1  0.41256487  0.68433745  0.67278846  1
  O  O515  1  0.41405843  0.68427263  0.92189791  1
  O  O516  1  0.91359898  0.01932073  0.17250966  1
  O  O517  1  0.91189311  0.01869573  0.42340921  1
  O  O518  1  0.91032731  0.01878135  0.67209178  1
  O  O519  1  0.91270818  0.01876346  0.92196643  1
  O  O520  1  0.91347459  0.35092651  0.17172539  1
  O  O521  1  0.91388258  0.35213207  0.42347125  1
  O  O522  1  0.91095228  0.35287667  0.67317997  1
  O  O523  1  0.91263758  0.35047674  0.92185057  1
  O  O524  1  0.91237184  0.68489378  0.17186009  1
  O  O525  1  0.91296859  0.68391912  0.42269658  1
  O  O526  1  0.91445986  0.68368172  0.67267774  1
  O  O527  1  0.91251062  0.68563283  0.92222844  1
  O  O528  1  0.16365219  0.01748942  0.20215254  1
  O  O529  1  0.16260510  0.01890988  0.45344029  1
  O  O530  1  0.16283705  0.01912878  0.70285471  1
  O  O531  1  0.15962656  0.01992013  0.95183994  1
  O  O532  1  0.16049834  0.35137848  0.20240455  1
  O  O533  1  0.16163683  0.35156496  0.45264843  1
  O  O534  1  0.16156124  0.35113187  0.70323686  1
  O  O535  1  0.16064227  0.35108552  0.95230941  1
  O  O536  1  0.16383838  0.68622020  0.20221250  1
  O  O537  1  0.16311544  0.68459463  0.45306719  1
  O  O538  1  0.16351082  0.68425265  0.70193346  1
  O  O539  1  0.16191491  0.68420433  0.95326029  1
  O  O540  1  0.66044213  0.01942042  0.20171677  1
  O  O541  1  0.66223261  0.01936908  0.45144914  1
  O  O542  1  0.66395457  0.01957290  0.70279918  1
  O  O543  1  0.66148729  0.01832378  0.95277220  1
  O  O544  1  0.66214262  0.35081599  0.20310107  1
  O  O545  1  0.66052155  0.35142003  0.45288970  1
  O  O546  1  0.66340398  0.35097701  0.70253904  1
  O  O547  1  0.66549249  0.35103939  0.95265562  1
  O  O548  1  0.66251884  0.68482532  0.20259582  1
  O  O549  1  0.66107995  0.68383650  0.45258443  1
  O  O550  1  0.66139991  0.68366882  0.70244639  1
  O  O551  1  0.66136527  0.68593206  0.95188645  1
  O  O552  1  0.33487080  0.31613404  0.04715334  1
  O  O553  1  0.33897489  0.31345169  0.29826620  1
  O  O554  1  0.33789379  0.31559091  0.54816771  1
  O  O555  1  0.33683485  0.31461492  0.79771101  1
  O  O556  1  0.33563802  0.64640011  0.04706482  1
  O  O557  1  0.33735240  0.64897246  0.29694158  1
  O  O558  1  0.33606630  0.64815009  0.54750625  1
  O  O559  1  0.33523470  0.64924172  0.79731652  1
  O  O560  1  0.33689784  0.98226583  0.04714645  1
  O  O561  1  0.33624679  0.98276219  0.29716256  1
  O  O562  1  0.33638713  0.98107260  0.54776290  1
  O  O563  1  0.33732465  0.98224181  0.79735689  1
  O  O564  1  0.83803450  0.31573047  0.04775723  1
  O  O565  1  0.83642407  0.31475403  0.29769652  1
  O  O566  1  0.83534297  0.31405069  0.54759271  1
  O  O567  1  0.83745486  0.31551141  0.79758154  1
  O  O568  1  0.83903843  0.64721506  0.04817981  1
  O  O569  1  0.83939801  0.64776806  0.29851095  1
  O  O570  1  0.83691866  0.64822005  0.54808207  1
  O  O571  1  0.83651604  0.64755709  0.79706176  1
  O  O572  1  0.83735328  0.98183518  0.04821071  1
  O  O573  1  0.83793771  0.98206114  0.29718160  1
  O  O574  1  0.83680907  0.98282225  0.54642258  1
  O  O575  1  0.83799643  0.98266194  0.79788718  1
  O  O576  1  0.41377697  0.14848660  0.17299883  1
  O  O577  1  0.41388893  0.14970458  0.42155733  1
  O  O578  1  0.41228298  0.15008269  0.67314503  1
  O  O579  1  0.41402528  0.14889368  0.92285007  1
  O  O580  1  0.41191932  0.48134527  0.17227198  1
  O  O581  1  0.41470050  0.48042635  0.42341493  1
  O  O582  1  0.41472026  0.48055298  0.67305967  1
  O  O583  1  0.41188608  0.48147389  0.92303371  1
  O  O584  1  0.41201306  0.81537051  0.17271613  1
  O  O585  1  0.41197130  0.81490752  0.42315727  1
  O  O586  1  0.41282658  0.81440707  0.67293449  1
  O  O587  1  0.41364719  0.81433100  0.92177983  1
  O  O588  1  0.91426545  0.14954130  0.17237869  1
  O  O589  1  0.91183631  0.14861225  0.42363191  1
  O  O590  1  0.91104906  0.14882871  0.67269344  1
  O  O591  1  0.91235100  0.14884737  0.92181301  1
  O  O592  1  0.91353202  0.48113947  0.17160915  1
  O  O593  1  0.91374710  0.48212798  0.42286234  1
  O  O594  1  0.91176614  0.48297353  0.67274507  1
  O  O595  1  0.91214113  0.48055843  0.92228685  1
  O  O596  1  0.91281460  0.81541151  0.17233506  1
  O  O597  1  0.91299750  0.81411516  0.42327984  1
  O  O598  1  0.91382816  0.81376324  0.67245226  1
  O  O599  1  0.91230499  0.81599004  0.92190393  1
  O  O600  1  0.08652591  0.18460299  0.07683251  1
  O  O601  1  0.08830661  0.18607447  0.32803855  1
  O  O602  1  0.08826838  0.18494233  0.57736236  1
  O  O603  1  0.08741164  0.18500604  0.82703399  1
  O  O604  1  0.08639613  0.51732273  0.07692856  1
  O  O605  1  0.08688263  0.51708902  0.32840916  1
  O  O606  1  0.08792682  0.51928656  0.57742534  1
  O  O607  1  0.08851254  0.51705474  0.82770298  1
  O  O608  1  0.08615062  0.85257383  0.07770610  1
  O  O609  1  0.08925899  0.85182533  0.32723379  1
  O  O610  1  0.08818605  0.85038620  0.57757773  1
  O  O611  1  0.08566444  0.85324206  0.82717428  1
  O  O612  1  0.58943735  0.18401126  0.07779269  1
  O  O613  1  0.58833125  0.18511179  0.32718981  1
  O  O614  1  0.58824389  0.18539920  0.57749640  1
  O  O615  1  0.58967639  0.18467242  0.82782593  1
  O  O616  1  0.58671115  0.51839598  0.07679209  1
  O  O617  1  0.58843597  0.51803840  0.32854573  1
  O  O618  1  0.58967976  0.51775381  0.57788222  1
  O  O619  1  0.58922672  0.51861615  0.82672636  1
  O  O620  1  0.58872442  0.85257779  0.07636467  1
  O  O621  1  0.58705034  0.85116659  0.32789839  1
  O  O622  1  0.58667685  0.85100358  0.57785619  1
  O  O623  1  0.58925711  0.85178322  0.82799768  1
  O  O624  1  0.33525091  0.18608723  0.04740482  1
  O  O625  1  0.33845281  0.18338323  0.29719927  1
  O  O626  1  0.33798107  0.18562480  0.54804418  1
  O  O627  1  0.33654391  0.18448198  0.79743083  1
  O  O628  1  0.33465194  0.51623157  0.04702088  1
  O  O629  1  0.33692832  0.51867170  0.29801675  1
  O  O630  1  0.33566349  0.51810233  0.54833972  1
  O  O631  1  0.33597469  0.51899461  0.79769492  1
  O  O632  1  0.33707519  0.85197960  0.04671586  1
  O  O633  1  0.33660150  0.85246146  0.29705845  1
  O  O634  1  0.33574460  0.85093293  0.54757297  1
  O  O635  1  0.33785704  0.85173003  0.79684915  1
  O  O636  1  0.83840371  0.18572632  0.04825418  1
  O  O637  1  0.83629593  0.18479322  0.29738378  1
  O  O638  1  0.83492958  0.18409092  0.54703251  1
  O  O639  1  0.83728230  0.18554860  0.79853186  1
  O  O640  1  0.83853281  0.51714748  0.04768898  1
  O  O641  1  0.83926265  0.51779054  0.29844752  1
  O  O642  1  0.83716369  0.51826812  0.54774423  1
  O  O643  1  0.83691207  0.51753665  0.79600707  1
  O  O644  1  0.83725162  0.85185361  0.04798177  1
  O  O645  1  0.83784664  0.85202608  0.29756862  1
  O  O646  1  0.83652324  0.85254025  0.54764971  1
  O  O647  1  0.83841376  0.85251194  0.79815734  1
  O  O648  1  0.16284126  0.14740385  0.20141953  1
  O  O649  1  0.16325210  0.14922784  0.45299080  1
  O  O650  1  0.16271096  0.14924301  0.70301555  1
  O  O651  1  0.16031821  0.14999148  0.95243804  1
  O  O652  1  0.16066042  0.48131874  0.20231828  1
  O  O653  1  0.16160363  0.48173965  0.45260450  1
  O  O654  1  0.16107299  0.48132997  0.70378203  1
  O  O655  1  0.16077176  0.48110941  0.95262115  1
  O  O656  1  0.16427324  0.81632007  0.20266827  1
  O  O657  1  0.16310885  0.81492580  0.45348000  1
  O  O658  1  0.16259536  0.81420601  0.70180289  1
  O  O659  1  0.16257691  0.81449045  0.95216617  1
  O  O660  1  0.66116691  0.14946353  0.20228572  1
  O  O661  1  0.66255178  0.14928825  0.45204840  1
  O  O662  1  0.66373576  0.14957999  0.70388555  1
  O  O663  1  0.66124607  0.14848113  0.95326828  1
  O  O664  1  0.66213562  0.48092095  0.20249653  1
  O  O665  1  0.66072663  0.48164398  0.45275838  1
  O  O666  1  0.66306363  0.48095394  0.70186237  1
  O  O667  1  0.66522342  0.48103824  0.95242987  1
  O  O668  1  0.66217953  0.81494518  0.20273949  1
  O  O669  1  0.66023526  0.81394248  0.45191885  1
  O  O670  1  0.66037006  0.81372369  0.70190544  1
  O  O671  1  0.66258705  0.81606802  0.95223133  1
