# generated using pymatgen
data_Na2MnFe(PO4)2
_symmetry_space_group_name_H-M   'P 1'
_cell_length_a   21.08416647
_cell_length_b   18.93704469
_cell_length_c   20.04294368
_cell_angle_alpha   90.00026863
_cell_angle_beta   90.00016248
_cell_angle_gamma   90.00122596
_symmetry_Int_Tables_number   1
_chemical_formula_structural   Na2MnFe(PO4)2
_chemical_formula_sum   'Na96 Mn48 Fe48 P96 O384'
_cell_volume   8002.58225175
_cell_formula_units_Z   48
loop_
 _symmetry_equiv_pos_site_id
 _symmetry_equiv_pos_as_xyz
  1  'x, y, z'
loop_
 _atom_site_type_symbol
 _atom_site_label
 _atom_site_symmetry_multiplicity
 _atom_site_fract_x
 _atom_site_fract_y
 _atom_site_fract_z
 _atom_site_occupancy
  Na  Na0  1  0.00004215  -0.00154898  0.00034504  1
  Na  Na1  1  -0.00052738  -0.00150827  0.25027424  1
  Na  Na2  1  -0.00017595  -0.00123404  0.50011813  1
  Na  Na3  1  0.00001431  -0.00120712  0.75008962  1
  Na  Na4  1  0.00121553  0.33341699  -0.00033055  1
  Na  Na5  1  0.00089164  0.33359377  0.25056306  1
  Na  Na6  1  0.00027264  0.33365265  0.49988538  1
  Na  Na7  1  0.00009488  0.33316608  0.75036748  1
  Na  Na8  1  0.00157395  0.66825923  -0.00087831  1
  Na  Na9  1  0.00045673  0.66721026  0.25015433  1
  Na  Na10  1  -0.00082152  0.66688462  0.49944656  1
  Na  Na11  1  -0.00087751  0.66703358  0.74991325  1
  Na  Na12  1  0.49824110  -0.00037926  -0.00088564  1
  Na  Na13  1  0.49775285  -0.00052584  0.25050032  1
  Na  Na14  1  0.49824307  -0.00079579  0.49998481  1
  Na  Na15  1  0.49918778  -0.00018150  0.75012332  1
  Na  Na16  1  0.49742602  0.33233368  0.00115945  1
  Na  Na17  1  0.49978554  0.33325874  0.25000805  1
  Na  Na18  1  0.50360523  0.33457570  0.49874925  1
  Na  Na19  1  0.50099070  0.33384728  0.74970491  1
  Na  Na20  1  0.49977288  0.66630477  0.00070100  1
  Na  Na21  1  0.50164198  0.66755181  0.24975399  1
  Na  Na22  1  0.50094629  0.66620465  0.50048235  1
  Na  Na23  1  0.50110065  0.66687045  0.74959698  1
  Na  Na24  1  0.25108124  -0.00104230  0.12489459  1
  Na  Na25  1  0.25115352  -0.00103709  0.37520422  1
  Na  Na26  1  0.25111832  -0.00086668  0.62476717  1
  Na  Na27  1  0.25198040  -0.00042508  0.87506757  1
  Na  Na28  1  0.25095589  0.33393821  0.12620302  1
  Na  Na29  1  0.24749852  0.33302453  0.37485469  1
  Na  Na30  1  0.24652010  0.33265398  0.62410319  1
  Na  Na31  1  0.24921912  0.33302895  0.87434244  1
  Na  Na32  1  0.25005579  0.66649406  0.12415989  1
  Na  Na33  1  0.25129434  0.66656016  0.37491664  1
  Na  Na34  1  0.25166587  0.66703155  0.62537137  1
  Na  Na35  1  0.24950203  0.66613748  0.87489441  1
  Na  Na36  1  0.75060398  -0.00018716  0.12461147  1
  Na  Na37  1  0.75195405  0.00054235  0.37515661  1
  Na  Na38  1  0.75020109  -0.00056788  0.62465343  1
  Na  Na39  1  0.75034730  -0.00064517  0.87568582  1
  Na  Na40  1  0.75038277  0.33389841  0.12561113  1
  Na  Na41  1  0.74855670  0.33292908  0.37546636  1
  Na  Na42  1  0.75074156  0.33416651  0.62528165  1
  Na  Na43  1  0.75037585  0.33335820  0.87435197  1
  Na  Na44  1  0.74809793  0.66733582  0.12503602  1
  Na  Na45  1  0.74802264  0.66694344  0.37538871  1
  Na  Na46  1  0.74817588  0.66732101  0.62499202  1
  Na  Na47  1  0.74787860  0.66719709  0.87552806  1
  Na  Na48  1  0.00240108  0.16660369  -0.00002875  1
  Na  Na49  1  0.00206015  0.16681863  0.24989561  1
  Na  Na50  1  0.00044989  0.16722369  0.49997263  1
  Na  Na51  1  0.00027752  0.16722883  0.75061146  1
  Na  Na52  1  -0.00069247  0.50016915  -0.00033900  1
  Na  Na53  1  -0.00121998  0.49981853  0.25036419  1
  Na  Na54  1  -0.00026053  0.49875686  0.49976866  1
  Na  Na55  1  0.00019420  0.49920943  0.74958263  1
  Na  Na56  1  0.00110615  0.83321288  -0.00036697  1
  Na  Na57  1  -0.00021331  0.83390271  0.25052128  1
  Na  Na58  1  -0.00077334  0.83380934  0.49980249  1
  Na  Na59  1  -0.00020821  0.83375600  0.75015798  1
  Na  Na60  1  0.49900665  0.16618240  -0.00032485  1
  Na  Na61  1  0.50031980  0.16669795  0.25116042  1
  Na  Na62  1  0.50258738  0.16555545  0.49868077  1
  Na  Na63  1  0.49996066  0.16650661  0.74973327  1
  Na  Na64  1  0.49690473  0.50095634  0.00139242  1
  Na  Na65  1  0.49796046  0.50043885  0.24915313  1
  Na  Na66  1  0.49989269  0.50026904  0.50018551  1
  Na  Na67  1  0.49979118  0.50002941  0.75010858  1
  Na  Na68  1  0.50089534  0.83325545  0.00000299  1
  Na  Na69  1  0.49958255  0.83388253  0.24968623  1
  Na  Na70  1  0.50131993  0.83313820  0.50062236  1
  Na  Na71  1  0.50128711  0.83341061  0.74944166  1
  Na  Na72  1  0.24998558  0.16688949  0.12535235  1
  Na  Na73  1  0.24926366  0.16709985  0.37487256  1
  Na  Na74  1  0.24870096  0.16692578  0.62477049  1
  Na  Na75  1  0.24880709  0.16723357  0.87512966  1
  Na  Na76  1  0.25397856  0.49920740  0.12566086  1
  Na  Na77  1  0.25085210  0.50017247  0.37573055  1
  Na  Na78  1  0.25016260  0.50031301  0.62387495  1
  Na  Na79  1  0.25319696  0.49957899  0.87430666  1
  Na  Na80  1  0.24846310  0.83404921  0.12418306  1
  Na  Na81  1  0.24945204  0.83414390  0.37441643  1
  Na  Na82  1  0.24975644  0.83402347  0.62545890  1
  Na  Na83  1  0.24876649  0.83399133  0.87484110  1
  Na  Na84  1  0.74795701  0.16710499  0.12459993  1
  Na  Na85  1  0.74782327  0.16742131  0.37543741  1
  Na  Na86  1  0.74859011  0.16734405  0.62530636  1
  Na  Na87  1  0.74954668  0.16653082  0.87466387  1
  Na  Na88  1  0.74966077  0.49967900  0.12544546  1
  Na  Na89  1  0.74989716  0.49900359  0.37535762  1
  Na  Na90  1  0.74912786  0.49986116  0.62476891  1
  Na  Na91  1  0.74938839  0.50014022  0.87508084  1
  Na  Na92  1  0.75088831  0.83311473  0.12523487  1
  Na  Na93  1  0.75117703  0.83313822  0.37507482  1
  Na  Na94  1  0.74998145  0.83366747  0.62501149  1
  Na  Na95  1  0.74971634  0.83356070  0.87554870  1
  Mn  Mn96  1  0.85773930  0.74971855  0.00238093  1
  Mn  Mn97  1  0.85769944  0.08391519  0.25196500  1
  Mn  Mn98  1  0.64185638  0.91714557  0.99832064  1
  Mn  Mn99  1  0.35859135  0.75065471  0.75261563  1
  Mn  Mn100  1  0.35797907  0.41567387  0.75105239  1
  Mn  Mn101  1  0.64093059  0.58291188  0.99800191  1
  Mn  Mn102  1  0.60723715  0.08283368  0.87243681  1
  Mn  Mn103  1  0.89154305  0.58408230  0.87691443  1
  Mn  Mn104  1  0.10867633  0.08235850  0.87233277  1
  Mn  Mn105  1  0.39108669  0.25033657  0.87686927  1
  Mn  Mn106  1  0.89216469  0.24947250  0.37691296  1
  Mn  Mn107  1  0.60644886  0.41622413  0.12291610  1
  Mn  Mn108  1  0.64151017  0.58264984  0.49735597  1
  Mn  Mn109  1  0.35877494  0.75016449  0.50204643  1
  Mn  Mn110  1  0.35768861  0.41595347  0.50191552  1
  Mn  Mn111  1  0.39271569  0.25041399  0.37770315  1
  Mn  Mn112  1  0.35771638  0.74979077  0.00187261  1
  Mn  Mn113  1  0.10788547  0.74939194  0.37257264  1
  Mn  Mn114  1  0.89134800  0.58330988  0.62799203  1
  Mn  Mn115  1  0.10828741  0.08340382  0.37238394  1
  Mn  Mn116  1  0.35761562  0.08390047  0.50249291  1
  Mn  Mn117  1  0.64228125  0.91704185  0.24764748  1
  Mn  Mn118  1  0.89124925  0.58343275  0.37686409  1
  Mn  Mn119  1  0.35817171  0.75006148  0.25221268  1
  Mn  Mn120  1  0.64105844  0.25034248  0.99825896  1
  Mn  Mn121  1  0.10875031  0.41768286  0.87261469  1
  Mn  Mn122  1  0.85820475  0.08377657  0.00259232  1
  Mn  Mn123  1  0.14260246  0.58326272  0.74718467  1
  Mn  Mn124  1  0.35764491  0.08382568  0.00277122  1
  Mn  Mn125  1  0.39246218  0.25010586  0.62634461  1
  Mn  Mn126  1  0.64213489  0.91748426  0.49782951  1
  Mn  Mn127  1  0.64208318  0.25002220  0.74723329  1
  Mn  Mn128  1  0.10740628  0.74933592  0.62283738  1
  Mn  Mn129  1  0.14286525  0.58345333  0.24745723  1
  Mn  Mn130  1  0.85763949  0.08297754  0.75225722  1
  Mn  Mn131  1  0.14248242  0.58371055  0.49765551  1
  Mn  Mn132  1  0.85800456  0.41669079  0.00244427  1
  Mn  Mn133  1  0.89278444  0.24947186  0.12760153  1
  Mn  Mn134  1  0.85798246  0.08433776  0.50275162  1
  Mn  Mn135  1  0.10879809  0.08250388  0.12290010  1
  Mn  Mn136  1  0.60766232  0.08265080  0.37215326  1
  Mn  Mn137  1  0.89172864  0.58401846  0.12781112  1
  Mn  Mn138  1  0.10848082  0.41792375  0.12288252  1
  Mn  Mn139  1  0.60693122  0.41699639  0.87314070  1
  Mn  Mn140  1  0.10791393  0.08326343  0.62283477  1
  Mn  Mn141  1  0.89281726  0.24924593  0.87741412  1
  Mn  Mn142  1  0.14296084  0.58296255  0.99771176  1
  Mn  Mn143  1  0.85717601  0.74938829  0.50238891  1
  Fe  Fe144  1  0.35733672  0.41604532  0.25279913  1
  Fe  Fe145  1  0.14331301  0.91701750  0.74807931  1
  Fe  Fe146  1  0.85688928  0.74950873  0.25138367  1
  Fe  Fe147  1  0.60707232  0.75116464  0.12387443  1
  Fe  Fe148  1  0.89353079  0.91638250  0.12674110  1
  Fe  Fe149  1  0.39375940  0.58337141  0.62651647  1
  Fe  Fe150  1  0.39241063  0.91552929  0.37665642  1
  Fe  Fe151  1  0.10721184  0.74992318  0.87269593  1
  Fe  Fe152  1  0.35749559  0.41620788  0.00166166  1
  Fe  Fe153  1  0.89329530  0.91691928  0.37651998  1
  Fe  Fe154  1  0.60718552  0.75021313  0.87318009  1
  Fe  Fe155  1  0.10675101  0.41729897  0.37300526  1
  Fe  Fe156  1  0.14234758  0.24959937  0.74782235  1
  Fe  Fe157  1  0.35735835  0.08352864  0.25134186  1
  Fe  Fe158  1  0.60709273  0.08322638  0.62361519  1
  Fe  Fe159  1  0.10640281  0.41697533  0.62324031  1
  Fe  Fe160  1  0.14363968  0.25021465  0.99904540  1
  Fe  Fe161  1  0.64306423  0.24999722  0.49904230  1
  Fe  Fe162  1  0.60730384  0.75001845  0.37291176  1
  Fe  Fe163  1  0.39304646  0.91648745  0.62707476  1
  Fe  Fe164  1  0.39384482  0.58386001  0.37631729  1
  Fe  Fe165  1  0.64196328  0.58350633  0.74880258  1
  Fe  Fe166  1  0.89282502  0.24961178  0.62672465  1
  Fe  Fe167  1  0.64225389  0.25026623  0.24778673  1
  Fe  Fe168  1  0.39224100  0.91653545  0.12643706  1
  Fe  Fe169  1  0.14288390  0.91687867  0.99780492  1
  Fe  Fe170  1  0.85685185  0.41633272  0.50190059  1
  Fe  Fe171  1  0.89278485  0.91700646  0.62739348  1
  Fe  Fe172  1  0.64261892  0.91660623  0.74827030  1
  Fe  Fe173  1  0.60765151  0.41751126  0.37236367  1
  Fe  Fe174  1  0.14368168  0.24987742  0.24806445  1
  Fe  Fe175  1  0.14313128  0.91675435  0.24808343  1
  Fe  Fe176  1  0.85604683  0.74987613  0.75173882  1
  Fe  Fe177  1  0.14155621  0.24957591  0.49802312  1
  Fe  Fe178  1  0.39280901  0.58406167  0.12752409  1
  Fe  Fe179  1  0.85694684  0.41753114  0.75137363  1
  Fe  Fe180  1  0.39304705  0.91563170  0.87628539  1
  Fe  Fe181  1  0.10728520  0.74975925  0.12361797  1
  Fe  Fe182  1  0.39181676  0.24929022  0.12773512  1
  Fe  Fe183  1  0.60813204  0.41633171  0.62323834  1
  Fe  Fe184  1  0.60729775  0.75053588  0.62385509  1
  Fe  Fe185  1  0.14292240  0.91661016  0.49847745  1
  Fe  Fe186  1  0.39313294  0.58419149  0.87623787  1
  Fe  Fe187  1  0.35744333  0.08368455  0.75053515  1
  Fe  Fe188  1  0.60612431  0.08288457  0.12383574  1
  Fe  Fe189  1  0.85661002  0.41671568  0.25176847  1
  Fe  Fe190  1  0.89309753  0.91651494  0.87638859  1
  Fe  Fe191  1  0.64225941  0.58298422  0.24860028  1
  P  P192  1  0.05599561  0.25037695  0.11058633  1
  P  P193  1  0.05540242  0.25094051  0.36032157  1
  P  P194  1  0.05385352  0.25070739  0.61074210  1
  P  P195  1  0.05616784  0.25011067  0.86060390  1
  P  P196  1  0.05312936  0.58427500  0.10979647  1
  P  P197  1  0.05307008  0.58240264  0.35982996  1
  P  P198  1  0.05261706  0.58266218  0.60968560  1
  P  P199  1  0.05343068  0.58425333  0.85957565  1
  P  P200  1  0.05485667  0.91548628  0.11072407  1
  P  P201  1  0.05456175  0.91645706  0.36048118  1
  P  P202  1  0.05399199  0.91635575  0.61063816  1
  P  P203  1  0.05464647  0.91568760  0.86032434  1
  P  P204  1  0.55225624  0.24881949  0.11163613  1
  P  P205  1  0.55572140  0.25096921  0.36054759  1
  P  P206  1  0.55403918  0.24965250  0.60909560  1
  P  P207  1  0.55244816  0.25009934  0.85981946  1
  P  P208  1  0.55317888  0.58381502  0.11185902  1
  P  P209  1  0.55321713  0.58316671  0.35937382  1
  P  P210  1  0.55430675  0.58327633  0.61154543  1
  P  P211  1  0.55250865  0.58402011  0.85982200  1
  P  P212  1  0.55177986  0.91753893  0.11042678  1
  P  P213  1  0.55203866  0.91595763  0.36005283  1
  P  P214  1  0.55360916  0.91722585  0.61151588  1
  P  P215  1  0.55292276  0.91601276  0.85947158  1
  P  P216  1  0.44636228  0.08324331  0.14067083  1
  P  P217  1  0.44497263  0.08264196  0.38881176  1
  P  P218  1  0.44717399  0.08312282  0.64000770  1
  P  P219  1  0.44455225  0.08248867  0.88833715  1
  P  P220  1  0.44372398  0.41617236  0.13971751  1
  P  P221  1  0.44702248  0.41749087  0.38874663  1
  P  P222  1  0.44846122  0.41671156  0.63921007  1
  P  P223  1  0.44566523  0.41752957  0.89060125  1
  P  P224  1  0.44750492  0.75049645  0.13970076  1
  P  P225  1  0.44825864  0.74968243  0.38977778  1
  P  P226  1  0.44798105  0.75005269  0.63979217  1
  P  P227  1  0.44809362  0.75022164  0.88977421  1
  P  P228  1  0.94762085  0.08238914  0.14022705  1
  P  P229  1  0.94694431  0.08274821  0.38997259  1
  P  P230  1  0.94688303  0.08339949  0.64011994  1
  P  P231  1  0.94722935  0.08204460  0.89009864  1
  P  P232  1  0.94628218  0.41648553  0.14111921  1
  P  P233  1  0.94510166  0.41628748  0.38951186  1
  P  P234  1  0.94547748  0.41550432  0.63931537  1
  P  P235  1  0.94570866  0.41685695  0.88880144  1
  P  P236  1  0.94726597  0.75095664  0.14047212  1
  P  P237  1  0.94500500  0.75060641  0.38866792  1
  P  P238  1  0.94535098  0.75084576  0.64078781  1
  P  P239  1  0.94607441  0.75107839  0.88848146  1
  P  P240  1  0.19819029  0.08279917  0.23529056  1
  P  P241  1  0.19637119  0.08254133  0.48506258  1
  P  P242  1  0.19791440  0.08248090  0.73496030  1
  P  P243  1  0.19694058  0.08288598  0.98524109  1
  P  P244  1  0.19703208  0.41665102  0.23649435  1
  P  P245  1  0.19426957  0.41631713  0.48536486  1
  P  P246  1  0.19613729  0.41635825  0.73365019  1
  P  P247  1  0.19867946  0.41654079  0.98520056  1
  P  P248  1  0.19649403  0.75060409  0.23416579  1
  P  P249  1  0.19711677  0.75082313  0.48497730  1
  P  P250  1  0.19595642  0.75087180  0.73600031  1
  P  P251  1  0.19482889  0.75062682  0.98530960  1
  P  P252  1  0.69588020  0.08374502  0.23410221  1
  P  P253  1  0.69542875  0.08400109  0.48627480  1
  P  P254  1  0.69594927  0.08197730  0.73441929  1
  P  P255  1  0.69517353  0.08327282  0.98596189  1
  P  P256  1  0.69585208  0.41689658  0.23621758  1
  P  P257  1  0.69553512  0.41565956  0.48558233  1
  P  P258  1  0.69682658  0.41759947  0.73476964  1
  P  P259  1  0.69629430  0.41643776  0.98490615  1
  P  P260  1  0.69563609  0.74968663  0.23577980  1
  P  P261  1  0.69411717  0.75049395  0.48546014  1
  P  P262  1  0.69526741  0.75058956  0.73601389  1
  P  P263  1  0.69411730  0.75057108  0.98567535  1
  P  P264  1  0.30292473  0.25072555  0.01581631  1
  P  P265  1  0.30385906  0.24976598  0.26438279  1
  P  P266  1  0.30134246  0.25030250  0.51479469  1
  P  P267  1  0.30177946  0.24925532  0.76401070  1
  P  P268  1  0.30583072  0.58301836  0.01424988  1
  P  P269  1  0.30572568  0.58296951  0.26483886  1
  P  P270  1  0.30593424  0.58337217  0.51448400  1
  P  P271  1  0.30583227  0.58337297  0.76402060  1
  P  P272  1  0.30406756  0.91593665  0.01416202  1
  P  P273  1  0.30432131  0.91705116  0.26405722  1
  P  P274  1  0.30452126  0.91617783  0.51466482  1
  P  P275  1  0.30468193  0.91734755  0.76434981  1
  P  P276  1  0.80303061  0.24997793  0.01544740  1
  P  P277  1  0.80172756  0.25047044  0.26501214  1
  P  P278  1  0.80297047  0.25089799  0.51556348  1
  P  P279  1  0.80468676  0.25064326  0.76374526  1
  P  P280  1  0.80245408  0.58381867  0.01553828  1
  P  P281  1  0.80143400  0.58370470  0.26493445  1
  P  P282  1  0.80263609  0.58246871  0.51510264  1
  P  P283  1  0.80130922  0.58395156  0.76481588  1
  P  P284  1  0.80529845  0.91649093  0.01483288  1
  P  P285  1  0.80535642  0.91587258  0.26427343  1
  P  P286  1  0.80526967  0.91680096  0.51462748  1
  P  P287  1  0.80371002  0.91578133  0.76457172  1
  O  O288  1  0.06061373  0.25027732  0.18741196  1
  O  O289  1  0.05891841  0.24986562  0.43718388  1
  O  O290  1  0.05868838  0.24969889  0.68748315  1
  O  O291  1  0.06088158  0.25031790  0.93738730  1
  O  O292  1  0.05646125  0.58318036  0.18654379  1
  O  O293  1  0.05628174  0.58304008  0.43656105  1
  O  O294  1  0.05611280  0.58332855  0.68642197  1
  O  O295  1  0.05685072  0.58339437  0.93633767  1
  O  O296  1  0.05959284  0.91669356  0.18744644  1
  O  O297  1  0.05925576  0.91640584  0.43717442  1
  O  O298  1  0.05919592  0.91666809  0.68729434  1
  O  O299  1  0.05917058  0.91664828  0.93705049  1
  O  O300  1  0.55761210  0.24993860  0.18828493  1
  O  O301  1  0.55996619  0.25024888  0.43726982  1
  O  O302  1  0.55630032  0.24987817  0.68597897  1
  O  O303  1  0.55523245  0.24997905  0.93662450  1
  O  O304  1  0.55819525  0.58297209  0.18849426  1
  O  O305  1  0.55621281  0.58254782  0.43608872  1
  O  O306  1  0.55865514  0.58297834  0.68826815  1
  O  O307  1  0.55538940  0.58310383  0.93658295  1
  O  O308  1  0.55549256  0.91746038  0.18708739  1
  O  O309  1  0.55589640  0.91692606  0.43670996  1
  O  O310  1  0.55814212  0.91728792  0.68815717  1
  O  O311  1  0.55626737  0.91701803  0.93615210  1
  O  O312  1  0.44319196  0.08360892  0.06385769  1
  O  O313  1  0.44057269  0.08365800  0.31209112  1
  O  O314  1  0.44367495  0.08376809  0.56323908  1
  O  O315  1  0.44054332  0.08370898  0.81159679  1
  O  O316  1  0.44012759  0.41579862  0.06289471  1
  O  O317  1  0.44186444  0.41614807  0.31209333  1
  O  O318  1  0.44453891  0.41596280  0.56253996  1
  O  O319  1  0.44340678  0.41616443  0.81376934  1
  O  O320  1  0.44394534  0.75032696  0.06308946  1
  O  O321  1  0.44460868  0.75011212  0.31311328  1
  O  O322  1  0.44470152  0.75015013  0.56315005  1
  O  O323  1  0.44485855  0.75037257  0.81303120  1
  O  O324  1  0.94464146  0.08338624  0.06346449  1
  O  O325  1  0.94383157  0.08373080  0.31321934  1
  O  O326  1  0.94423786  0.08356531  0.56333548  1
  O  O327  1  0.94380421  0.08286671  0.81333445  1
  O  O328  1  0.94340244  0.41626288  0.06427643  1
  O  O329  1  0.93970598  0.41634611  0.31282551  1
  O  O330  1  0.94086598  0.41623267  0.56258629  1
  O  O331  1  0.94082880  0.41707104  0.81204219  1
  O  O332  1  0.94389127  0.75015903  0.06371447  1
  O  O333  1  0.94079341  0.74954527  0.31195904  1
  O  O334  1  0.94258829  0.74984319  0.56395830  1
  O  O335  1  0.94056256  0.75019194  0.81190513  1
  O  O336  1  0.19443231  0.08232730  0.06201209  1
  O  O337  1  0.19478307  0.08243279  0.31197039  1
  O  O338  1  0.19359670  0.08238685  0.56183597  1
  O  O339  1  0.19478462  0.08223933  0.81166241  1
  O  O340  1  0.19522729  0.41766930  0.06190528  1
  O  O341  1  0.19184989  0.41768584  0.31307250  1
  O  O342  1  0.18995460  0.41727012  0.56210754  1
  O  O343  1  0.19387946  0.41757512  0.81049208  1
  O  O344  1  0.19095217  0.74978066  0.06207354  1
  O  O345  1  0.19357412  0.74981470  0.31097291  1
  O  O346  1  0.19391440  0.75002164  0.56174387  1
  O  O347  1  0.19164891  0.74994945  0.81271244  1
  O  O348  1  0.69013618  0.08290472  0.06266010  1
  O  O349  1  0.69310263  0.08255036  0.31096821  1
  O  O350  1  0.69109270  0.08279174  0.56297134  1
  O  O351  1  0.69308469  0.08232224  0.81125268  1
  O  O352  1  0.69246174  0.41639586  0.06169502  1
  O  O353  1  0.69158706  0.41705637  0.31296299  1
  O  O354  1  0.69100669  0.41675512  0.56231611  1
  O  O355  1  0.69296610  0.41685660  0.81144238  1
  O  O356  1  0.68951642  0.75102127  0.06249357  1
  O  O357  1  0.69093827  0.75074375  0.31253966  1
  O  O358  1  0.68979091  0.75082524  0.56228622  1
  O  O359  1  0.69091555  0.75068246  0.81277214  1
  O  O360  1  0.30822432  0.24972919  0.18767003  1
  O  O361  1  0.30593502  0.25069689  0.43815436  1
  O  O362  1  0.30574605  0.24996026  0.68736496  1
  O  O363  1  0.30602222  0.24998608  0.93904836  1
  O  O364  1  0.30980655  0.58424302  0.18798591  1
  O  O365  1  0.31056597  0.58361884  0.43771123  1
  O  O366  1  0.31056957  0.58369851  0.68721909  1
  O  O367  1  0.30982008  0.58447056  0.93744014  1
  O  O368  1  0.30909905  0.91599434  0.18731866  1
  O  O369  1  0.30941824  0.91549288  0.43791903  1
  O  O370  1  0.30963361  0.91607760  0.68759932  1
  O  O371  1  0.30912234  0.91536612  0.93751624  1
  O  O372  1  0.80602841  0.24985095  0.18838952  1
  O  O373  1  0.80645420  0.24985062  0.43885478  1
  O  O374  1  0.80882703  0.24985360  0.68701236  1
  O  O375  1  0.80668017  0.24948417  0.93864950  1
  O  O376  1  0.80483329  0.58403582  0.18824120  1
  O  O377  1  0.80566667  0.58321878  0.43833002  1
  O  O378  1  0.80482345  0.58407001  0.68811925  1
  O  O379  1  0.80586648  0.58432656  0.93875236  1
  O  O380  1  0.80945553  0.91645524  0.18750809  1
  O  O381  1  0.80960301  0.91696882  0.43786398  1
  O  O382  1  0.80844372  0.91659926  0.68786189  1
  O  O383  1  0.80952629  0.91638428  0.93806655  1
  O  O384  1  0.23293902  0.25018509  0.04066955  1
  O  O385  1  0.23351258  0.25002831  0.28824868  1
  O  O386  1  0.23111652  0.24993834  0.53858678  1
  O  O387  1  0.23174170  0.24976250  0.78863202  1
  O  O388  1  0.23579170  0.58329429  0.03852200  1
  O  O389  1  0.23565126  0.58351151  0.28885669  1
  O  O390  1  0.23570624  0.58349896  0.53803586  1
  O  O391  1  0.23566387  0.58303116  0.78764110  1
  O  O392  1  0.23361553  0.91647429  0.03744683  1
  O  O393  1  0.23384892  0.91647495  0.28752103  1
  O  O394  1  0.23412415  0.91653246  0.53810144  1
  O  O395  1  0.23430516  0.91679092  0.78787768  1
  O  O396  1  0.73325877  0.25042240  0.04021492  1
  O  O397  1  0.73157246  0.25012200  0.28922238  1
  O  O398  1  0.73289015  0.25073727  0.54007395  1
  O  O399  1  0.73458445  0.24989126  0.78795484  1
  O  O400  1  0.73273493  0.58356624  0.04042355  1
  O  O401  1  0.73153050  0.58331758  0.29013175  1
  O  O402  1  0.73294317  0.58300284  0.54009409  1
  O  O403  1  0.73128929  0.58378783  0.78971049  1
  O  O404  1  0.73513299  0.91643436  0.03869253  1
  O  O405  1  0.73521999  0.91673876  0.28846882  1
  O  O406  1  0.73505532  0.91673555  0.53827628  1
  O  O407  1  0.73328534  0.91624866  0.78822141  1
  O  O408  1  0.26806886  0.08304225  0.21011962  1
  O  O409  1  0.26592343  0.08308711  0.45951802  1
  O  O410  1  0.26772043  0.08290009  0.70951905  1
  O  O411  1  0.26648448  0.08312697  0.95965924  1
  O  O412  1  0.26747850  0.41650243  0.21311794  1
  O  O413  1  0.26447373  0.41657896  0.46146058  1
  O  O414  1  0.26575595  0.41649486  0.70808554  1
  O  O415  1  0.26858787  0.41640547  0.96014810  1
  O  O416  1  0.26623206  0.75031997  0.20909724  1
  O  O417  1  0.26674963  0.75051766  0.45970287  1
  O  O418  1  0.26603665  0.75078095  0.71185616  1
  O  O419  1  0.26489994  0.75000557  0.96100531  1
  O  O420  1  0.76559228  0.08345613  0.20903663  1
  O  O421  1  0.76540832  0.08406679  0.46196417  1
  O  O422  1  0.76565244  0.08304374  0.70935368  1
  O  O423  1  0.76526382  0.08310448  0.96207501  1
  O  O424  1  0.76611791  0.41674035  0.21212939  1
  O  O425  1  0.76592014  0.41595781  0.46195062  1
  O  O426  1  0.76699951  0.41727453  0.71039891  1
  O  O427  1  0.76596606  0.41662323  0.96004032  1
  O  O428  1  0.76601002  0.75006537  0.21203167  1
  O  O429  1  0.76425006  0.75007629  0.46180912  1
  O  O430  1  0.76555458  0.75056305  0.71189066  1
  O  O431  1  0.76429679  0.75042353  0.96211577  1
  O  O432  1  0.01726954  0.08234386  0.16552723  1
  O  O433  1  0.01655696  0.08290978  0.41524406  1
  O  O434  1  0.01642670  0.08307223  0.66580222  1
  O  O435  1  0.01695091  0.08216355  0.91503795  1
  O  O436  1  0.01608262  0.41673876  0.16595561  1
  O  O437  1  0.01562078  0.41630975  0.41250881  1
  O  O438  1  0.01588753  0.41608163  0.66300760  1
  O  O439  1  0.01586316  0.41694899  0.91262203  1
  O  O440  1  0.01731395  0.75065762  0.16512218  1
  O  O441  1  0.01498604  0.75034285  0.41305293  1
  O  O442  1  0.01510904  0.75038123  0.66572635  1
  O  O443  1  0.01648114  0.75100264  0.91187629  1
  O  O444  1  0.51625346  0.08312294  0.16580151  1
  O  O445  1  0.51508754  0.08252535  0.41270302  1
  O  O446  1  0.51718809  0.08330044  0.66463988  1
  O  O447  1  0.51445734  0.08258460  0.91288500  1
  O  O448  1  0.51381632  0.41656345  0.16394661  1
  O  O449  1  0.51744942  0.41751256  0.41210729  1
  O  O450  1  0.51851361  0.41661028  0.66384464  1
  O  O451  1  0.51506653  0.41682977  0.91671302  1
  O  O452  1  0.51756614  0.75089965  0.16450505  1
  O  O453  1  0.51819451  0.74946529  0.41473465  1
  O  O454  1  0.51801200  0.75023567  0.66459270  1
  O  O455  1  0.51794284  0.74999668  0.91489463  1
  O  O456  1  0.48179194  0.24915002  0.08826338  1
  O  O457  1  0.48549049  0.25024418  0.33685759  1
  O  O458  1  0.48459280  0.24980467  0.58297654  1
  O  O459  1  0.48284204  0.25024993  0.83445742  1
  O  O460  1  0.48272367  0.58350440  0.08842024  1
  O  O461  1  0.48325485  0.58362250  0.33441188  1
  O  O462  1  0.48408209  0.58339034  0.58725445  1
  O  O463  1  0.48260340  0.58393620  0.83479729  1
  O  O464  1  0.48177056  0.91685357  0.08554806  1
  O  O465  1  0.48192112  0.91623686  0.33564658  1
  O  O466  1  0.48327668  0.91668935  0.58744847  1
  O  O467  1  0.48284333  0.91627115  0.83484515  1
  O  O468  1  0.98587392  0.25020699  0.08679206  1
  O  O469  1  0.98539298  0.25023047  0.33599344  1
  O  O470  1  0.98347642  0.25024575  0.58701395  1
  O  O471  1  0.98595229  0.24991239  0.83709592  1
  O  O472  1  0.98353010  0.58426370  0.08444493  1
  O  O473  1  0.98336572  0.58308660  0.33479682  1
  O  O474  1  0.98286650  0.58307084  0.58475045  1
  O  O475  1  0.98371247  0.58377189  0.83451852  1
  O  O476  1  0.98446511  0.91581779  0.08710652  1
  O  O477  1  0.98413239  0.91632342  0.33705131  1
  O  O478  1  0.98346001  0.91632130  0.58754919  1
  O  O479  1  0.98425957  0.91603079  0.83666615  1
  O  O480  1  0.08951999  0.31542657  0.07738721  1
  O  O481  1  0.08888192  0.31632203  0.32787889  1
  O  O482  1  0.08700354  0.31589620  0.57765924  1
  O  O483  1  0.08955886  0.31501640  0.82710296  1
  O  O484  1  0.08734855  0.64953982  0.07799227  1
  O  O485  1  0.08756712  0.64722310  0.32732208  1
  O  O486  1  0.08680235  0.64768274  0.57706103  1
  O  O487  1  0.08725963  0.64958089  0.82734432  1
  O  O488  1  0.08846622  0.98023012  0.07684456  1
  O  O489  1  0.08779106  0.98149608  0.32690692  1
  O  O490  1  0.08729427  0.98131948  0.57702376  1
  O  O491  1  0.08822789  0.98049434  0.82656216  1
  O  O492  1  0.58537377  0.31382993  0.07786278  1
  O  O493  1  0.58872889  0.31632730  0.32746010  1
  O  O494  1  0.58878535  0.31465985  0.57718847  1
  O  O495  1  0.58678561  0.31510671  0.82759396  1
  O  O496  1  0.58618474  0.64908619  0.07893051  1
  O  O497  1  0.58756356  0.64825449  0.32727922  1
  O  O498  1  0.58761962  0.64850064  0.57866446  1
  O  O499  1  0.58674706  0.64909204  0.82761817  1
  O  O500  1  0.58505885  0.98286887  0.07760467  1
  O  O501  1  0.58590050  0.98076265  0.32685060  1
  O  O502  1  0.58647611  0.98245152  0.57794236  1
  O  O503  1  0.58708049  0.98065461  0.82620964  1
  O  O504  1  0.41210166  0.01805125  0.17269997  1
  O  O505  1  0.41144632  0.01739614  0.42132320  1
  O  O506  1  0.41303738  0.01811491  0.67242655  1
  O  O507  1  0.41113157  0.01701098  0.92071540  1
  O  O508  1  0.41035881  0.35107938  0.17305081  1
  O  O509  1  0.41389406  0.35259838  0.42277650  1
  O  O510  1  0.41469075  0.35161527  0.67214999  1
  O  O511  1  0.41057180  0.35291866  0.92313289  1
  O  O512  1  0.41400274  0.68544569  0.17274589  1
  O  O513  1  0.41446638  0.68447941  0.42223044  1
  O  O514  1  0.41427286  0.68496985  0.67243682  1
  O  O515  1  0.41392333  0.68523669  0.92215608  1
  O  O516  1  0.91340473  0.01716705  0.17202801  1
  O  O517  1  0.91280325  0.01756997  0.42194533  1
  O  O518  1  0.91250653  0.01823133  0.67217898  1
  O  O519  1  0.91319454  0.01674366  0.92200870  1
  O  O520  1  0.91212110  0.35154806  0.17383794  1
  O  O521  1  0.91203714  0.35121703  0.42313978  1
  O  O522  1  0.91234226  0.35034928  0.67243958  1
  O  O523  1  0.91258420  0.35166970  0.92203686  1
  O  O524  1  0.91295305  0.68617010  0.17351862  1
  O  O525  1  0.91128033  0.68572359  0.42209270  1
  O  O526  1  0.91073898  0.68610042  0.67356670  1
  O  O527  1  0.91297905  0.68610618  0.92239687  1
  O  O528  1  0.16440850  0.01773197  0.20247483  1
  O  O529  1  0.16269463  0.01714937  0.45273044  1
  O  O530  1  0.16415188  0.01726785  0.70237479  1
  O  O531  1  0.16294860  0.01774777  0.95267803  1
  O  O532  1  0.16379694  0.35153017  0.20339984  1
  O  O533  1  0.16070812  0.35111136  0.45269785  1
  O  O534  1  0.16162976  0.35110622  0.70213617  1
  O  O535  1  0.16458796  0.35141469  0.95316675  1
  O  O536  1  0.16208231  0.68577155  0.20145907  1
  O  O537  1  0.16291183  0.68587303  0.45225041  1
  O  O538  1  0.16253471  0.68595008  0.70239658  1
  O  O539  1  0.16078902  0.68595643  0.95187841  1
  O  O540  1  0.66148342  0.01887897  0.20135642  1
  O  O541  1  0.66204511  0.01911489  0.45247863  1
  O  O542  1  0.66228077  0.01663747  0.70203064  1
  O  O543  1  0.66180531  0.01817035  0.95264466  1
  O  O544  1  0.66226374  0.35181887  0.20312492  1
  O  O545  1  0.66218453  0.35053781  0.45275934  1
  O  O546  1  0.66294161  0.35265563  0.70157222  1
  O  O547  1  0.66232412  0.35146522  0.95224590  1
  O  O548  1  0.66218438  0.68448077  0.20301705  1
  O  O549  1  0.66035827  0.68547558  0.45253687  1
  O  O550  1  0.66168755  0.68554739  0.70290078  1
  O  O551  1  0.66040189  0.68556552  0.95265626  1
  O  O552  1  0.33681719  0.31574793  0.04823013  1
  O  O553  1  0.33723497  0.31477632  0.29781710  1
  O  O554  1  0.33483233  0.31523716  0.54804259  1
  O  O555  1  0.33565851  0.31428704  0.79690344  1
  O  O556  1  0.33957208  0.64784880  0.04792862  1
  O  O557  1  0.33966669  0.64781686  0.29812288  1
  O  O558  1  0.33956161  0.64825004  0.54789304  1
  O  O559  1  0.33908498  0.64842856  0.79767707  1
  O  O560  1  0.33769953  0.98084883  0.04745081  1
  O  O561  1  0.33740151  0.98225611  0.29706964  1
  O  O562  1  0.33809351  0.98124393  0.54769921  1
  O  O563  1  0.33784576  0.98266067  0.79697399  1
  O  O564  1  0.83729918  0.31492287  0.04779428  1
  O  O565  1  0.83525357  0.31557913  0.29786348  1
  O  O566  1  0.83693980  0.31607564  0.54781384  1
  O  O567  1  0.83776220  0.31611862  0.79636757  1
  O  O568  1  0.83622831  0.64894689  0.04825954  1
  O  O569  1  0.83517878  0.64888441  0.29761815  1
  O  O570  1  0.83675131  0.64737258  0.54778341  1
  O  O571  1  0.83495991  0.64913842  0.79761651  1
  O  O572  1  0.83906928  0.98133986  0.04805051  1
  O  O573  1  0.83949886  0.98062231  0.29756917  1
  O  O574  1  0.83886255  0.98170486  0.54802736  1
  O  O575  1  0.83748877  0.98054100  0.79817816  1
  O  O576  1  0.41215932  0.14807257  0.17356145  1
  O  O577  1  0.41191453  0.14778811  0.42242314  1
  O  O578  1  0.41303911  0.14810435  0.67277760  1
  O  O579  1  0.41093695  0.14735812  0.92185139  1
  O  O580  1  0.40992051  0.48130859  0.17233659  1
  O  O581  1  0.41382747  0.48275451  0.42151912  1
  O  O582  1  0.41457932  0.48168924  0.67174142  1
  O  O583  1  0.41174670  0.48312935  0.92206584  1
  O  O584  1  0.41352581  0.81549542  0.17231476  1
  O  O585  1  0.41441558  0.81471918  0.42260201  1
  O  O586  1  0.41408004  0.81505813  0.67256459  1
  O  O587  1  0.41415208  0.81532848  0.92229379  1
  O  O588  1  0.91362784  0.14739892  0.17307797  1
  O  O589  1  0.91284181  0.14781555  0.42262873  1
  O  O590  1  0.91288073  0.14858724  0.67235723  1
  O  O591  1  0.91333027  0.14710320  0.92291420  1
  O  O592  1  0.91179191  0.48152945  0.17333343  1
  O  O593  1  0.91167610  0.48120487  0.42306186  1
  O  O594  1  0.91180207  0.48038655  0.67296147  1
  O  O595  1  0.91222000  0.48194553  0.92190007  1
  O  O596  1  0.91328205  0.81603584  0.17286960  1
  O  O597  1  0.91159795  0.81589980  0.42133252  1
  O  O598  1  0.91135701  0.81611050  0.67286973  1
  O  O599  1  0.91302224  0.81624300  0.92184163  1
  O  O600  1  0.08974041  0.18534332  0.07758311  1
  O  O601  1  0.08967125  0.18626854  0.32707115  1
  O  O602  1  0.08749273  0.18583247  0.57716179  1
  O  O603  1  0.08961048  0.18499747  0.82729945  1
  O  O604  1  0.08728615  0.51926643  0.07700162  1
  O  O605  1  0.08675844  0.51708412  0.32739270  1
  O  O606  1  0.08645123  0.51742501  0.57747324  1
  O  O607  1  0.08777568  0.51939375  0.82693433  1
  O  O608  1  0.08803154  0.85025789  0.07771119  1
  O  O609  1  0.08808581  0.85164910  0.32695101  1
  O  O610  1  0.08724330  0.85137873  0.57707093  1
  O  O611  1  0.08809175  0.85067890  0.82719790  1
  O  O612  1  0.58525309  0.18353465  0.07857739  1
  O  O613  1  0.58953763  0.18616499  0.32714277  1
  O  O614  1  0.58847717  0.18441598  0.57728354  1
  O  O615  1  0.58667926  0.18511660  0.82746928  1
  O  O616  1  0.58607379  0.51877515  0.07802311  1
  O  O617  1  0.58709834  0.51822772  0.32634943  1
  O  O618  1  0.58751243  0.51823542  0.57809057  1
  O  O619  1  0.58663890  0.51915960  0.82690393  1
  O  O620  1  0.58617728  0.85269582  0.07796445  1
  O  O621  1  0.58568885  0.85080804  0.32751012  1
  O  O622  1  0.58727728  0.85224603  0.57849601  1
  O  O623  1  0.58682123  0.85077898  0.82716519  1
  O  O624  1  0.33711853  0.18580896  0.04868599  1
  O  O625  1  0.33693133  0.18451802  0.29741996  1
  O  O626  1  0.33507318  0.18528500  0.54755291  1
  O  O627  1  0.33530161  0.18412598  0.79673870  1
  O  O628  1  0.33942135  0.51776987  0.04667335  1
  O  O629  1  0.33918526  0.51773398  0.29754572  1
  O  O630  1  0.33940181  0.51826450  0.54762192  1
  O  O631  1  0.33961049  0.51839397  0.79682521  1
  O  O632  1  0.33707622  0.85100185  0.04804524  1
  O  O633  1  0.33783184  0.85220158  0.29791562  1
  O  O634  1  0.33785906  0.85136483  0.54845210  1
  O  O635  1  0.33825464  0.85261318  0.79837341  1
  O  O636  1  0.83679261  0.18487558  0.04829509  1
  O  O637  1  0.83544980  0.18541542  0.29812036  1
  O  O638  1  0.83706100  0.18617517  0.54883347  1
  O  O639  1  0.83844250  0.18574301  0.79708581  1
  O  O640  1  0.83671640  0.51884032  0.04775480  1
  O  O641  1  0.83563896  0.51863739  0.29725964  1
  O  O642  1  0.83639924  0.51709538  0.54715167  1
  O  O643  1  0.83542723  0.51887517  0.79714569  1
  O  O644  1  0.83886906  0.85150341  0.04808206  1
  O  O645  1  0.83849150  0.85047055  0.29713938  1
  O  O646  1  0.83864452  0.85177630  0.54790947  1
  O  O647  1  0.83687103  0.85055458  0.79777039  1
  O  O648  1  0.16408512  0.14789769  0.20306127  1
  O  O649  1  0.16182790  0.14757838  0.45307887  1
  O  O650  1  0.16341285  0.14742328  0.70273559  1
  O  O651  1  0.16276121  0.14815923  0.95352823  1
  O  O652  1  0.16429995  0.48164578  0.20227819  1
  O  O653  1  0.16075573  0.48122735  0.45172959  1
  O  O654  1  0.16160185  0.48111023  0.70091376  1
  O  O655  1  0.16501026  0.48151227  0.95193704  1
  O  O656  1  0.16236201  0.81578298  0.20210690  1
  O  O657  1  0.16306852  0.81606251  0.45292012  1
  O  O658  1  0.16247621  0.81615897  0.70334941  1
  O  O659  1  0.16146986  0.81605833  0.95267321  1
  O  O660  1  0.66156426  0.14895764  0.20231713  1
  O  O661  1  0.66181728  0.14930335  0.45388811  1
  O  O662  1  0.66103583  0.14672305  0.70211576  1
  O  O663  1  0.66173085  0.14833579  0.95277097  1
  O  O664  1  0.66254794  0.48201471  0.20305441  1
  O  O665  1  0.66199445  0.48050502  0.45179820  1
  O  O666  1  0.66306275  0.48273906  0.70219132  1
  O  O667  1  0.66224319  0.48162755  0.95258836  1
  O  O668  1  0.66215724  0.81458700  0.20201438  1
  O  O669  1  0.66081400  0.81543469  0.45194921  1
  O  O670  1  0.66190677  0.81570819  0.70261503  1
  O  O671  1  0.66068684  0.81544430  0.95215229  1
