# generated using pymatgen
data_Na2MnFe(PO4)2
_symmetry_space_group_name_H-M   'P 1'
_cell_length_a   21.08791975
_cell_length_b   18.94101473
_cell_length_c   20.04706603
_cell_angle_alpha   90.00038856
_cell_angle_beta   89.99929976
_cell_angle_gamma   89.99959429
_symmetry_Int_Tables_number   1
_chemical_formula_structural   Na2MnFe(PO4)2
_chemical_formula_sum   'Na96 Mn48 Fe48 P96 O384'
_cell_volume   8007.33139393
_cell_formula_units_Z   48
loop_
 _symmetry_equiv_pos_site_id
 _symmetry_equiv_pos_as_xyz
  1  'x, y, z'
loop_
 _atom_site_type_symbol
 _atom_site_label
 _atom_site_symmetry_multiplicity
 _atom_site_fract_x
 _atom_site_fract_y
 _atom_site_fract_z
 _atom_site_occupancy
  Na  Na0  1  0.00046945  0.00127576  -0.00014762  1
  Na  Na1  1  -0.00038974  -0.00051005  0.25065296  1
  Na  Na2  1  0.00244111  0.00131594  0.49936752  1
  Na  Na3  1  -0.00146143  -0.00053028  0.75000604  1
  Na  Na4  1  -0.00082924  0.33398755  -0.00025966  1
  Na  Na5  1  -0.00289900  0.33225085  0.25071197  1
  Na  Na6  1  -0.00095761  0.33332403  0.49975169  1
  Na  Na7  1  -0.00301663  0.33243551  0.74998823  1
  Na  Na8  1  -0.00148659  0.66589671  -0.00001560  1
  Na  Na9  1  0.00008136  0.66627060  0.25000349  1
  Na  Na10  1  0.00152568  0.66704006  0.50007976  1
  Na  Na11  1  0.00125918  0.66709595  0.75022212  1
  Na  Na12  1  0.50196986  0.00091933  -0.00029336  1
  Na  Na13  1  0.49844977  -0.00060521  0.25041643  1
  Na  Na14  1  0.50092914  0.00006275  0.49973875  1
  Na  Na15  1  0.50135022  -0.00022454  0.75008412  1
  Na  Na16  1  0.49966508  0.33303957  -0.00092496  1
  Na  Na17  1  0.49933606  0.33322178  0.25066767  1
  Na  Na18  1  0.50010133  0.33359904  0.49996139  1
  Na  Na19  1  0.50092723  0.33352994  0.74972515  1
  Na  Na20  1  0.49791131  0.66578525  0.00040055  1
  Na  Na21  1  0.49758472  0.66649092  0.25060821  1
  Na  Na22  1  0.49778922  0.66583312  0.50048110  1
  Na  Na23  1  0.49918784  0.66648654  0.74872202  1
  Na  Na24  1  0.25146080  0.00131271  0.12509867  1
  Na  Na25  1  0.24715276  -0.00052762  0.37638277  1
  Na  Na26  1  0.24820938  0.00040114  0.62564860  1
  Na  Na27  1  0.24927270  0.00007737  0.87384727  1
  Na  Na28  1  0.25259157  0.33394383  0.12334897  1
  Na  Na29  1  0.24977270  0.33233871  0.37503058  1
  Na  Na30  1  0.25091892  0.33358453  0.62616355  1
  Na  Na31  1  0.25104573  0.33303964  0.87492025  1
  Na  Na32  1  0.25172227  0.66677329  0.12522129  1
  Na  Na33  1  0.25071955  0.66698284  0.37617793  1
  Na  Na34  1  0.24998837  0.66636132  0.62494312  1
  Na  Na35  1  0.25149758  0.66651201  0.87373107  1
  Na  Na36  1  0.75003634  0.00040227  0.12372210  1
  Na  Na37  1  0.74972548  -0.00066963  0.37556624  1
  Na  Na38  1  0.75095775  0.00023585  0.62613624  1
  Na  Na39  1  0.74815277  -0.00094989  0.87407709  1
  Na  Na40  1  0.75086405  0.33345289  0.12406006  1
  Na  Na41  1  0.75193919  0.33382587  0.37593287  1
  Na  Na42  1  0.75038163  0.33350691  0.62500936  1
  Na  Na43  1  0.74981741  0.33339576  0.87504316  1
  Na  Na44  1  0.75202173  0.66732988  0.12556959  1
  Na  Na45  1  0.75017247  0.66591600  0.37438964  1
  Na  Na46  1  0.75048378  0.66664971  0.62566131  1
  Na  Na47  1  0.74994645  0.66591723  0.87439938  1
  Na  Na48  1  -0.00249122  0.16777444  -0.00038385  1
  Na  Na49  1  -0.00150200  0.16739827  0.25065415  1
  Na  Na50  1  0.00030681  0.16693224  0.49950331  1
  Na  Na51  1  0.00042250  0.16625043  0.75015009  1
  Na  Na52  1  0.00096856  0.49933162  -0.00088882  1
  Na  Na53  1  -0.00127424  0.50114376  0.25085990  1
  Na  Na54  1  0.00049974  0.49993512  0.49921926  1
  Na  Na55  1  -0.00149330  0.50072526  0.75068997  1
  Na  Na56  1  -0.00197308  0.83401879  0.00051890  1
  Na  Na57  1  0.00066422  0.83245891  0.25016690  1
  Na  Na58  1  0.00031897  0.83321141  0.50034118  1
  Na  Na59  1  -0.00120157  0.83324099  0.74968067  1
  Na  Na60  1  0.49873091  0.16691295  0.00055421  1
  Na  Na61  1  0.49768630  0.16700910  0.24999063  1
  Na  Na62  1  0.49893578  0.16716265  0.50034624  1
  Na  Na63  1  0.49939361  0.16695587  0.74951077  1
  Na  Na64  1  0.50229787  0.49843794  -0.00086638  1
  Na  Na65  1  0.49850322  0.50057032  0.25117389  1
  Na  Na66  1  0.50061897  0.50002224  0.49996306  1
  Na  Na67  1  0.50009079  0.50045665  0.74940602  1
  Na  Na68  1  0.49945861  0.83360071  -0.00023973  1
  Na  Na69  1  0.49934131  0.83306832  0.25060379  1
  Na  Na70  1  0.49872390  0.83411032  0.49992892  1
  Na  Na71  1  0.50123642  0.83334070  0.74949376  1
  Na  Na72  1  0.25290873  0.16603446  0.12472276  1
  Na  Na73  1  0.24952431  0.16622601  0.37535208  1
  Na  Na74  1  0.24841508  0.16689772  0.62624852  1
  Na  Na75  1  0.25122712  0.16654650  0.87412631  1
  Na  Na76  1  0.24990933  0.50043057  0.12372170  1
  Na  Na77  1  0.25151452  0.49929591  0.37570847  1
  Na  Na78  1  0.25099722  0.49986788  0.62542734  1
  Na  Na79  1  0.24953782  0.50034547  0.87417130  1
  Na  Na80  1  0.25224659  0.83238980  0.12555308  1
  Na  Na81  1  0.24996602  0.83249397  0.37588950  1
  Na  Na82  1  0.24908553  0.83342968  0.62538383  1
  Na  Na83  1  0.25071710  0.83311556  0.87409212  1
  Na  Na84  1  0.75210212  0.16688609  0.12435017  1
  Na  Na85  1  0.75279138  0.16618716  0.37512832  1
  Na  Na86  1  0.75171317  0.16657336  0.62534161  1
  Na  Na87  1  0.75056599  0.16720991  0.87458962  1
  Na  Na88  1  0.75044805  0.49945882  0.12458689  1
  Na  Na89  1  0.75033133  0.49962014  0.37534761  1
  Na  Na90  1  0.74870484  0.50004575  0.62581985  1
  Na  Na91  1  0.74784416  0.50012515  0.87492370  1
  Na  Na92  1  0.74891010  0.83423117  0.12480364  1
  Na  Na93  1  0.75082385  0.83271908  0.37489759  1
  Na  Na94  1  0.75059160  0.83358836  0.62591948  1
  Na  Na95  1  0.75053136  0.83355882  0.87377068  1
  Mn  Mn96  1  0.14275557  0.91651839  0.24738036  1
  Mn  Mn97  1  0.10807656  0.41670191  0.37226250  1
  Mn  Mn98  1  0.89165573  0.91690865  0.12742952  1
  Mn  Mn99  1  0.39141366  0.25029043  0.37788245  1
  Mn  Mn100  1  0.64205359  0.58299007  0.24775200  1
  Mn  Mn101  1  0.60742597  0.74939436  0.12244196  1
  Mn  Mn102  1  0.39306367  0.91690024  0.87738162  1
  Mn  Mn103  1  0.39134341  0.91657613  0.37823457  1
  Mn  Mn104  1  0.10829941  0.74965836  0.12231225  1
  Mn  Mn105  1  0.60773950  0.41666228  0.37251018  1
  Mn  Mn106  1  0.35784952  0.74983140  0.75185350  1
  Mn  Mn107  1  0.39219476  0.91726631  0.12699176  1
  Mn  Mn108  1  0.85783462  0.74952013  0.75221444  1
  Mn  Mn109  1  0.35767259  0.08346234  0.75214724  1
  Mn  Mn110  1  0.60770454  0.08412984  0.12329054  1
  Mn  Mn111  1  0.10767872  0.41648085  0.12336804  1
  Mn  Mn112  1  0.14252224  0.25012897  0.99782697  1
  Mn  Mn113  1  0.14252905  0.25053204  0.24716562  1
  Mn  Mn114  1  0.35744975  0.41642754  0.50324276  1
  Mn  Mn115  1  0.64225438  0.91721634  0.24776819  1
  Mn  Mn116  1  0.10785710  0.08408957  0.12272567  1
  Mn  Mn117  1  0.14318247  0.58269742  0.24785515  1
  Mn  Mn118  1  0.85766953  0.08269372  0.00171469  1
  Mn  Mn119  1  0.39169264  0.58230003  0.12718136  1
  Mn  Mn120  1  0.10753344  0.75044227  0.87358700  1
  Mn  Mn121  1  0.60776435  0.74975997  0.87302476  1
  Mn  Mn122  1  0.89189168  0.58338222  0.87731472  1
  Mn  Mn123  1  0.64202832  0.58432617  0.99819464  1
  Mn  Mn124  1  0.85766677  0.41780664  0.50308698  1
  Mn  Mn125  1  0.60810690  0.08376890  0.62280596  1
  Mn  Mn126  1  0.14102980  0.91636926  0.74789299  1
  Mn  Mn127  1  0.14243958  0.91644476  0.99760682  1
  Mn  Mn128  1  0.60720104  0.74992471  0.37384424  1
  Mn  Mn129  1  0.60768910  0.74965881  0.62176253  1
  Mn  Mn130  1  0.35620795  0.08272181  0.50278846  1
  Mn  Mn131  1  0.14203314  0.25064238  0.74824378  1
  Mn  Mn132  1  0.10712049  0.41655313  0.62341612  1
  Mn  Mn133  1  0.85771328  0.41762854  0.00203727  1
  Mn  Mn134  1  0.60815848  0.08368392  0.37257744  1
  Mn  Mn135  1  0.14262379  0.58300089  0.74760402  1
  Mn  Mn136  1  0.64265586  0.24959805  0.49799692  1
  Mn  Mn137  1  0.35831786  0.41670110  0.00166786  1
  Mn  Mn138  1  0.85818831  0.75013840  0.25256382  1
  Mn  Mn139  1  0.85862237  0.08197084  0.50278722  1
  Mn  Mn140  1  0.64197160  0.24942672  0.99777236  1
  Mn  Mn141  1  0.64320880  0.24988267  0.24794687  1
  Mn  Mn142  1  0.89235284  0.58366287  0.37790738  1
  Mn  Mn143  1  0.89286471  0.91667274  0.37767104  1
  Fe  Fe144  1  0.39212246  0.58329826  0.37760987  1
  Fe  Fe145  1  0.89210156  0.91715066  0.87674703  1
  Fe  Fe146  1  0.14184356  0.91634206  0.49904458  1
  Fe  Fe147  1  0.10712592  0.41606326  0.87300212  1
  Fe  Fe148  1  0.10681302  0.74998207  0.62302106  1
  Fe  Fe149  1  0.10695909  0.08398499  0.87385626  1
  Fe  Fe150  1  0.60684652  0.41645162  0.62384726  1
  Fe  Fe151  1  0.64194782  0.58315366  0.74778850  1
  Fe  Fe152  1  0.35757286  0.75034876  0.00127920  1
  Fe  Fe153  1  0.85795669  0.74961055  0.50167328  1
  Fe  Fe154  1  0.35804338  0.08250772  0.00087915  1
  Fe  Fe155  1  0.85616037  0.41654094  0.75158226  1
  Fe  Fe156  1  0.60720006  0.41604964  0.87268992  1
  Fe  Fe157  1  0.89288596  0.91659538  0.62616844  1
  Fe  Fe158  1  0.14270126  0.58353262  0.99813270  1
  Fe  Fe159  1  0.35601977  0.75056051  0.50226034  1
  Fe  Fe160  1  0.10618780  0.08333294  0.62383808  1
  Fe  Fe161  1  0.39286035  0.25031427  0.12662964  1
  Fe  Fe162  1  0.39286274  0.58293630  0.62657914  1
  Fe  Fe163  1  0.85765773  0.08402199  0.75200385  1
  Fe  Fe164  1  0.64264963  0.91644786  0.99801815  1
  Fe  Fe165  1  0.64270477  0.58435515  0.49856762  1
  Fe  Fe166  1  0.89252592  0.24995811  0.87609002  1
  Fe  Fe167  1  0.10781304  0.75026558  0.37354525  1
  Fe  Fe168  1  0.39238996  0.91701207  0.62666133  1
  Fe  Fe169  1  0.14287525  0.58314339  0.49898360  1
  Fe  Fe170  1  0.60736117  0.41625564  0.12426926  1
  Fe  Fe171  1  0.35725926  0.08313834  0.25253876  1
  Fe  Fe172  1  0.89250941  0.58330853  0.62643551  1
  Fe  Fe173  1  0.35842687  0.41651282  0.75191876  1
  Fe  Fe174  1  0.85720666  0.75007016  0.00164038  1
  Fe  Fe175  1  0.89211804  0.25082680  0.12716638  1
  Fe  Fe176  1  0.60760481  0.08424007  0.87308064  1
  Fe  Fe177  1  0.14177697  0.25038722  0.49902683  1
  Fe  Fe178  1  0.85743330  0.41654211  0.25137687  1
  Fe  Fe179  1  0.39337088  0.58278686  0.87640635  1
  Fe  Fe180  1  0.64352298  0.91681956  0.74756578  1
  Fe  Fe181  1  0.89292111  0.58268354  0.12648093  1
  Fe  Fe182  1  0.10699914  0.08359318  0.37259518  1
  Fe  Fe183  1  0.35743922  0.74991371  0.25267544  1
  Fe  Fe184  1  0.39376315  0.24994076  0.87613712  1
  Fe  Fe185  1  0.85803589  0.08362989  0.25169002  1
  Fe  Fe186  1  0.39227172  0.24992776  0.62690826  1
  Fe  Fe187  1  0.89328914  0.24984033  0.37689943  1
  Fe  Fe188  1  0.35822554  0.41664030  0.25161101  1
  Fe  Fe189  1  0.89263573  0.25023437  0.62705739  1
  Fe  Fe190  1  0.64314415  0.91584181  0.49901224  1
  Fe  Fe191  1  0.64296504  0.24983383  0.74812329  1
  P  P192  1  0.05159281  0.25037486  0.10996055  1
  P  P193  1  0.05390150  0.24966022  0.36102273  1
  P  P194  1  0.05206069  0.24977750  0.61012893  1
  P  P195  1  0.05229041  0.25036041  0.86034959  1
  P  P196  1  0.05305856  0.58297497  0.10942525  1
  P  P197  1  0.05519955  0.58437480  0.36132312  1
  P  P198  1  0.05266782  0.58346471  0.60984135  1
  P  P199  1  0.05472419  0.58272655  0.86114455  1
  P  P200  1  0.05310925  0.91683411  0.10988463  1
  P  P201  1  0.05530739  0.91627685  0.36138933  1
  P  P202  1  0.05227042  0.91668164  0.60992944  1
  P  P203  1  0.05167634  0.91734488  0.86037670  1
  P  P204  1  0.55227117  0.25083544  0.11036955  1
  P  P205  1  0.55321205  0.24988581  0.35987916  1
  P  P206  1  0.55322932  0.25069435  0.61128899  1
  P  P207  1  0.55338104  0.24957543  0.85939239  1
  P  P208  1  0.55277093  0.58217149  0.11026886  1
  P  P209  1  0.55296775  0.58398046  0.36136440  1
  P  P210  1  0.55391995  0.58242891  0.61049910  1
  P  P211  1  0.55305091  0.58298275  0.85924611  1
  P  P212  1  0.55398504  0.91678385  0.10928050  1
  P  P213  1  0.55429261  0.91632708  0.36128304  1
  P  P214  1  0.55408925  0.91677705  0.61034577  1
  P  P215  1  0.55588475  0.91740450  0.86028032  1
  P  P216  1  0.44489417  0.08398528  0.13947947  1
  P  P217  1  0.44527478  0.08326878  0.38994757  1
  P  P218  1  0.44631182  0.08288073  0.63970623  1
  P  P219  1  0.44780814  0.08403477  0.88989068  1
  P  P220  1  0.44735974  0.41581948  0.14034202  1
  P  P221  1  0.44518724  0.41745533  0.38963051  1
  P  P222  1  0.44688643  0.41669069  0.64029329  1
  P  P223  1  0.44703428  0.41659495  0.88800382  1
  P  P224  1  0.44459133  0.75012658  0.13968938  1
  P  P225  1  0.44401354  0.74931190  0.39046805  1
  P  P226  1  0.44496653  0.75050818  0.63816794  1
  P  P227  1  0.44626788  0.74913017  0.89008076  1
  P  P228  1  0.94598578  0.08421716  0.14061975  1
  P  P229  1  0.94677455  0.08389388  0.38895025  1
  P  P230  1  0.94687899  0.08334416  0.64030289  1
  P  P231  1  0.94599544  0.08360841  0.88837660  1
  P  P232  1  0.94607721  0.41719629  0.14047469  1
  P  P233  1  0.94536541  0.41614755  0.38903563  1
  P  P234  1  0.94554882  0.41736554  0.64068407  1
  P  P235  1  0.94591711  0.41605450  0.88841015  1
  P  P236  1  0.94566016  0.74893444  0.13894685  1
  P  P237  1  0.94762706  0.75003516  0.39102577  1
  P  P238  1  0.94635098  0.74947568  0.63850323  1
  P  P239  1  0.94562532  0.75078890  0.89057316  1
  P  P240  1  0.19691864  0.08374124  0.23591368  1
  P  P241  1  0.19321576  0.08374900  0.48653980  1
  P  P242  1  0.19394682  0.08362451  0.73573892  1
  P  P243  1  0.19776251  0.08377723  0.98417151  1
  P  P244  1  0.19906175  0.41649851  0.23448855  1
  P  P245  1  0.19620304  0.41642885  0.48570110  1
  P  P246  1  0.19724790  0.41644658  0.73613467  1
  P  P247  1  0.19602297  0.41712442  0.98400695  1
  P  P248  1  0.19728259  0.74948667  0.23623619  1
  P  P249  1  0.19514333  0.74985937  0.48653269  1
  P  P250  1  0.19550127  0.74978803  0.73415498  1
  P  P251  1  0.19845610  0.74924445  0.98476625  1
  P  P252  1  0.69882414  0.08390590  0.23475493  1
  P  P253  1  0.69716821  0.08237789  0.48536415  1
  P  P254  1  0.69680556  0.08408616  0.73643568  1
  P  P255  1  0.69593531  0.08304383  0.98404040  1
  P  P256  1  0.69769451  0.41617998  0.23445554  1
  P  P257  1  0.69498223  0.41767961  0.48669427  1
  P  P258  1  0.69499602  0.41592249  0.73588040  1
  P  P259  1  0.69441558  0.41657502  0.98533878  1
  P  P260  1  0.69651461  0.74988168  0.23505815  1
  P  P261  1  0.69820330  0.74982960  0.48542296  1
  P  P262  1  0.69615157  0.74983152  0.73496703  1
  P  P263  1  0.69807283  0.75043477  0.98473285  1
  P  P264  1  0.30602100  0.24895025  0.01357715  1
  P  P265  1  0.30490691  0.25013964  0.26375391  1
  P  P266  1  0.30178256  0.24945842  0.51627351  1
  P  P267  1  0.30563846  0.25074356  0.76461456  1
  P  P268  1  0.30367052  0.58363812  0.01303470  1
  P  P269  1  0.30448743  0.58290883  0.26589278  1
  P  P270  1  0.30375813  0.58412868  0.51480996  1
  P  P271  1  0.30601377  0.58227774  0.76410399  1
  P  P272  1  0.30354265  0.91694088  0.01445203  1
  P  P273  1  0.30353981  0.91692195  0.26555941  1
  P  P274  1  0.30158103  0.91613839  0.51606450  1
  P  P275  1  0.30414747  0.91684025  0.76390269  1
  P  P276  1  0.80520904  0.25023305  0.01401027  1
  P  P277  1  0.80575009  0.25042457  0.26458019  1
  P  P278  1  0.80554050  0.24986216  0.51493453  1
  P  P279  1  0.80428667  0.25045355  0.76399026  1
  P  P280  1  0.80379249  0.58405866  0.01544907  1
  P  P281  1  0.80467768  0.58207286  0.26402683  1
  P  P282  1  0.80261211  0.58418237  0.51599359  1
  P  P283  1  0.80288704  0.58205314  0.76358524  1
  P  P284  1  0.80322784  0.91603043  0.01328913  1
  P  P285  1  0.80367752  0.91773272  0.26529795  1
  P  P286  1  0.80313057  0.91534989  0.51582263  1
  P  P287  1  0.80483425  0.91756403  0.76388901  1
  O  O288  1  0.05582750  0.25028597  0.18665101  1
  O  O289  1  0.05840557  0.25057172  0.43767614  1
  O  O290  1  0.05589338  0.25066493  0.68679255  1
  O  O291  1  0.05582720  0.25054692  0.93699788  1
  O  O292  1  0.05716633  0.58329309  0.18617399  1
  O  O293  1  0.05968695  0.58331195  0.43803217  1
  O  O294  1  0.05631218  0.58291612  0.68657884  1
  O  O295  1  0.05902524  0.58338411  0.93786074  1
  O  O296  1  0.05665647  0.91636928  0.18668890  1
  O  O297  1  0.05893074  0.91620647  0.43816958  1
  O  O298  1  0.05520820  0.91629971  0.68666354  1
  O  O299  1  0.05567409  0.91677731  0.93705108  1
  O  O300  1  0.55615421  0.24997159  0.18700529  1
  O  O301  1  0.55692976  0.24975836  0.43665657  1
  O  O302  1  0.55843634  0.24967435  0.68789615  1
  O  O303  1  0.55644346  0.24944613  0.93611629  1
  O  O304  1  0.55556371  0.58335820  0.18705322  1
  O  O305  1  0.55829709  0.58425713  0.43801110  1
  O  O306  1  0.55881385  0.58360625  0.68718645  1
  O  O307  1  0.55655790  0.58377394  0.93595809  1
  O  O308  1  0.55671730  0.91663087  0.18613150  1
  O  O309  1  0.55939291  0.91616332  0.43801118  1
  O  O310  1  0.55963031  0.91666094  0.68704430  1
  O  O311  1  0.55984075  0.91632752  0.93706954  1
  O  O312  1  0.44132914  0.08270069  0.06270845  1
  O  O313  1  0.44076150  0.08290452  0.31317116  1
  O  O314  1  0.44301010  0.08283142  0.56297911  1
  O  O315  1  0.44387073  0.08292078  0.81322119  1
  O  O316  1  0.44404713  0.41662612  0.06351135  1
  O  O317  1  0.44118685  0.41673778  0.31289407  1
  O  O318  1  0.44345622  0.41667155  0.56354947  1
  O  O319  1  0.44277088  0.41679370  0.81140280  1
  O  O320  1  0.44031461  0.75014372  0.06287802  1
  O  O321  1  0.44035362  0.75028916  0.31362777  1
  O  O322  1  0.44053897  0.75068884  0.56146624  1
  O  O323  1  0.44358113  0.75025303  0.81327357  1
  O  O324  1  0.94299661  0.08321375  0.06379083  1
  O  O325  1  0.94198921  0.08303242  0.31236259  1
  O  O326  1  0.94413391  0.08329854  0.56354089  1
  O  O327  1  0.94151442  0.08343569  0.81168757  1
  O  O328  1  0.94358518  0.41738263  0.06365412  1
  O  O329  1  0.94126309  0.41700650  0.31236530  1
  O  O330  1  0.94331902  0.41759245  0.56384834  1
  O  O331  1  0.94067905  0.41692025  0.81183341  1
  O  O332  1  0.94116083  0.74990634  0.06223825  1
  O  O333  1  0.94360127  0.74977377  0.31430576  1
  O  O334  1  0.94186900  0.74939738  0.56186537  1
  O  O335  1  0.94293036  0.74978801  0.81368427  1
  O  O336  1  0.19401417  0.08423409  0.06092317  1
  O  O337  1  0.19140209  0.08390297  0.31257502  1
  O  O338  1  0.18922151  0.08385679  0.56339635  1
  O  O339  1  0.18947987  0.08363317  0.81247433  1
  O  O340  1  0.19297032  0.41644176  0.06077657  1
  O  O341  1  0.19467597  0.41612407  0.31116513  1
  O  O342  1  0.19324394  0.41665272  0.56247285  1
  O  O343  1  0.19174554  0.41602727  0.81270643  1
  O  O344  1  0.19495134  0.74957542  0.06151391  1
  O  O345  1  0.19223383  0.74967334  0.31286597  1
  O  O346  1  0.19040145  0.74983920  0.56324678  1
  O  O347  1  0.19238116  0.74998245  0.81091311  1
  O  O348  1  0.69301785  0.08426561  0.06082452  1
  O  O349  1  0.69484184  0.08403775  0.31145226  1
  O  O350  1  0.69401891  0.08345146  0.56217043  1
  O  O351  1  0.69198972  0.08440910  0.81302333  1
  O  O352  1  0.69020701  0.41612316  0.06206365  1
  O  O353  1  0.69376865  0.41617017  0.31122736  1
  O  O354  1  0.69071051  0.41665907  0.56343624  1
  O  O355  1  0.69062963  0.41602061  0.81264869  1
  O  O356  1  0.69427801  0.74989995  0.06141117  1
  O  O357  1  0.69289340  0.74939134  0.31180071  1
  O  O358  1  0.69452403  0.74988586  0.56212301  1
  O  O359  1  0.69326149  0.74948060  0.81166503  1
  O  O360  1  0.30882334  0.25047665  0.18697810  1
  O  O361  1  0.30575282  0.24939225  0.43954886  1
  O  O362  1  0.30964281  0.25003532  0.68783942  1
  O  O363  1  0.31024200  0.24984534  0.93681701  1
  O  O364  1  0.30678136  0.58269067  0.18900166  1
  O  O365  1  0.30812894  0.58322749  0.43815659  1
  O  O366  1  0.31005525  0.58271553  0.68730205  1
  O  O367  1  0.30867948  0.58266915  0.93641493  1
  O  O368  1  0.30647506  0.91719155  0.18880122  1
  O  O369  1  0.30531646  0.91682706  0.43939039  1
  O  O370  1  0.30847937  0.91722535  0.68720615  1
  O  O371  1  0.30626684  0.91701618  0.93766260  1
  O  O372  1  0.80887297  0.25047752  0.18769149  1
  O  O373  1  0.80991696  0.24980855  0.43817850  1
  O  O374  1  0.80896393  0.25017452  0.68728174  1
  O  O375  1  0.80935881  0.25037055  0.93722464  1
  O  O376  1  0.80884064  0.58273492  0.18734927  1
  O  O377  1  0.80644155  0.58327041  0.43926859  1
  O  O378  1  0.80813276  0.58279966  0.68702834  1
  O  O379  1  0.80638582  0.58278507  0.93859045  1
  O  O380  1  0.80628264  0.91730049  0.18847840  1
  O  O381  1  0.80697528  0.91617771  0.43914043  1
  O  O382  1  0.80994453  0.91703418  0.68723258  1
  O  O383  1  0.80794008  0.91691283  0.93659605  1
  O  O384  1  0.23594952  0.25004215  0.03779352  1
  O  O385  1  0.23506505  0.24943916  0.28856164  1
  O  O386  1  0.23163754  0.25010746  0.54049765  1
  O  O387  1  0.23551250  0.24992618  0.78854126  1
  O  O388  1  0.23344213  0.58338379  0.03714341  1
  O  O389  1  0.23493083  0.58310838  0.29151032  1
  O  O390  1  0.23334931  0.58353254  0.53860036  1
  O  O391  1  0.23586258  0.58334128  0.78784023  1
  O  O392  1  0.23415271  0.91693326  0.04054116  1
  O  O393  1  0.23397104  0.91645884  0.29101810  1
  O  O394  1  0.23128507  0.91661593  0.54011437  1
  O  O395  1  0.23405582  0.91660453  0.78787356  1
  O  O396  1  0.73509693  0.24998578  0.03791243  1
  O  O397  1  0.73597832  0.25035438  0.28975403  1
  O  O398  1  0.73541892  0.24994614  0.53879710  1
  O  O399  1  0.73388922  0.25042000  0.78769709  1
  O  O400  1  0.73418915  0.58345812  0.04075561  1
  O  O401  1  0.73473857  0.58246514  0.28857727  1
  O  O402  1  0.73250698  0.58384297  0.54034687  1
  O  O403  1  0.73242454  0.58246636  0.78705613  1
  O  O404  1  0.73299332  0.91692996  0.03726845  1
  O  O405  1  0.73418117  0.91663172  0.29085620  1
  O  O406  1  0.73307806  0.91630089  0.54041957  1
  O  O407  1  0.73419116  0.91668971  0.78677880  1
  O  O408  1  0.26734200  0.08382585  0.21274819  1
  O  O409  1  0.26332565  0.08299026  0.46237179  1
  O  O410  1  0.26415478  0.08377273  0.71222076  1
  O  O411  1  0.26784449  0.08332414  0.95965242  1
  O  O412  1  0.26904701  0.41714380  0.21000874  1
  O  O413  1  0.26590487  0.41597098  0.46054035  1
  O  O414  1  0.26761768  0.41656260  0.71273432  1
  O  O415  1  0.26596747  0.41650269  0.95935000  1
  O  O416  1  0.26770178  0.74936389  0.21285766  1
  O  O417  1  0.26562940  0.74995991  0.46304505  1
  O  O418  1  0.26532623  0.74964424  0.70959406  1
  O  O419  1  0.26834182  0.74981679  0.95969034  1
  O  O420  1  0.76874362  0.08389538  0.21003491  1
  O  O421  1  0.76694616  0.08232336  0.46051051  1
  O  O422  1  0.76722672  0.08394544  0.71268917  1
  O  O423  1  0.76567611  0.08306910  0.95903005  1
  O  O424  1  0.76774393  0.41620895  0.21017227  1
  O  O425  1  0.76505407  0.41733861  0.46263976  1
  O  O426  1  0.76536463  0.41610748  0.71209882  1
  O  O427  1  0.76456845  0.41701982  0.96146016  1
  O  O428  1  0.76634793  0.75063561  0.21048697  1
  O  O429  1  0.76813028  0.74940573  0.46043735  1
  O  O430  1  0.76597489  0.75011223  0.71006197  1
  O  O431  1  0.76790797  0.74977439  0.95958595  1
  O  O432  1  0.01565565  0.08354413  0.16586379  1
  O  O433  1  0.01705032  0.08395706  0.41271461  1
  O  O434  1  0.01694255  0.08303042  0.66514077  1
  O  O435  1  0.01615976  0.08436220  0.91276230  1
  O  O436  1  0.01559292  0.41675054  0.16637647  1
  O  O437  1  0.01536247  0.41653502  0.41329115  1
  O  O438  1  0.01515652  0.41684359  0.66623594  1
  O  O439  1  0.01620307  0.41630436  0.91218439  1
  O  O440  1  0.01565693  0.74915432  0.16328454  1
  O  O441  1  0.01775880  0.75033771  0.41501737  1
  O  O442  1  0.01664246  0.74970869  0.66265453  1
  O  O443  1  0.01527440  0.75016484  0.91582167  1
  O  O444  1  0.51482878  0.08330793  0.16421137  1
  O  O445  1  0.51529696  0.08368852  0.41391926  1
  O  O446  1  0.51602009  0.08302199  0.66480219  1
  O  O447  1  0.51795488  0.08405669  0.91415910  1
  O  O448  1  0.51721559  0.41658902  0.16548401  1
  O  O449  1  0.51512764  0.41699941  0.41395458  1
  O  O450  1  0.51699519  0.41688683  0.66479597  1
  O  O451  1  0.51730672  0.41595373  0.91209189  1
  O  O452  1  0.51462142  0.74994781  0.16381869  1
  O  O453  1  0.51396941  0.74991859  0.41490119  1
  O  O454  1  0.51503624  0.75007562  0.66232258  1
  O  O455  1  0.51592223  0.74953180  0.91538985  1
  O  O456  1  0.48234955  0.25034862  0.08550170  1
  O  O457  1  0.48337372  0.25003205  0.33554698  1
  O  O458  1  0.48280060  0.25048753  0.58767272  1
  O  O459  1  0.48327284  0.24997268  0.83481725  1
  O  O460  1  0.48324277  0.58180713  0.08468497  1
  O  O461  1  0.48259245  0.58378028  0.33802721  1
  O  O462  1  0.48333711  0.58275715  0.58734559  1
  O  O463  1  0.48296739  0.58334738  0.83473009  1
  O  O464  1  0.48427787  0.91715885  0.08427404  1
  O  O465  1  0.48410337  0.91624874  0.33781685  1
  O  O466  1  0.48356659  0.91698007  0.58726151  1
  O  O467  1  0.48574390  0.91672851  0.83627363  1
  O  O468  1  0.98149265  0.25089073  0.08576727  1
  O  O469  1  0.98357691  0.24979165  0.33734648  1
  O  O470  1  0.98183687  0.25030596  0.58590654  1
  O  O471  1  0.98229417  0.24971552  0.83549094  1
  O  O472  1  0.98289389  0.58250967  0.08531737  1
  O  O473  1  0.98510950  0.58405557  0.33747503  1
  O  O474  1  0.98257230  0.58314270  0.58528558  1
  O  O475  1  0.98462458  0.58351127  0.83703990  1
  O  O476  1  0.98332811  0.91745347  0.08522257  1
  O  O477  1  0.98542803  0.91600717  0.33669634  1
  O  O478  1  0.98222014  0.91705231  0.58496564  1
  O  O479  1  0.98167758  0.91666719  0.83568216  1
  O  O480  1  0.08570368  0.31522567  0.07731421  1
  O  O481  1  0.08711143  0.31456656  0.32718669  1
  O  O482  1  0.08609259  0.31455820  0.57695881  1
  O  O483  1  0.08576852  0.31552966  0.82727452  1
  O  O484  1  0.08675512  0.64797493  0.07628381  1
  O  O485  1  0.08835709  0.64982025  0.32865344  1
  O  O486  1  0.08672089  0.64846617  0.57732759  1
  O  O487  1  0.08843218  0.64765183  0.82801530  1
  O  O488  1  0.08732185  0.98186963  0.07770975  1
  O  O489  1  0.08869664  0.98165658  0.32867046  1
  O  O490  1  0.08646544  0.98171698  0.57773237  1
  O  O491  1  0.08521089  0.98258495  0.82786150  1
  O  O492  1  0.58590725  0.31603700  0.07786426  1
  O  O493  1  0.58713877  0.31499106  0.32738732  1
  O  O494  1  0.58634052  0.31596374  0.57834984  1
  O  O495  1  0.58759092  0.31445823  0.82674895  1
  O  O496  1  0.58658017  0.64727826  0.07735545  1
  O  O497  1  0.58601878  0.64894977  0.32774165  1
  O  O498  1  0.58715901  0.64724593  0.57646273  1
  O  O499  1  0.58712055  0.64780192  0.82613638  1
  O  O500  1  0.58852956  0.98172285  0.07717930  1
  O  O501  1  0.58748380  0.98147030  0.32792606  1
  O  O502  1  0.58763388  0.98163350  0.57704520  1
  O  O503  1  0.58915662  0.98283234  0.82759817  1
  O  O504  1  0.41066545  0.01944051  0.17299552  1
  O  O505  1  0.41189511  0.01823421  0.42329193  1
  O  O506  1  0.41236685  0.01778315  0.67229778  1
  O  O507  1  0.41404130  0.01916040  0.92326410  1
  O  O508  1  0.41352151  0.35057027  0.17257700  1
  O  O509  1  0.41143049  0.35257092  0.42291345  1
  O  O510  1  0.41296197  0.35172663  0.67303462  1
  O  O511  1  0.41337713  0.35166983  0.92107820  1
  O  O512  1  0.41079984  0.68507758  0.17256225  1
  O  O513  1  0.41041580  0.68402741  0.42292866  1
  O  O514  1  0.41152417  0.68522553  0.67091647  1
  O  O515  1  0.41226166  0.68377929  0.92193230  1
  O  O516  1  0.91128817  0.01958071  0.17339319  1
  O  O517  1  0.91388046  0.01877915  0.42277321  1
  O  O518  1  0.91261250  0.01841799  0.67267401  1
  O  O519  1  0.91303865  0.01831251  0.92169482  1
  O  O520  1  0.91133666  0.35221378  0.17240498  1
  O  O521  1  0.91190875  0.35093154  0.42174280  1
  O  O522  1  0.91079985  0.35240348  0.67262402  1
  O  O523  1  0.91265987  0.35089739  0.92142468  1
  O  O524  1  0.91232891  0.68351181  0.17157603  1
  O  O525  1  0.91380257  0.68512741  0.42410750  1
  O  O526  1  0.91313141  0.68434642  0.67194429  1
  O  O527  1  0.91091706  0.68603096  0.92294084  1
  O  O528  1  0.16395324  0.01857517  0.20255028  1
  O  O529  1  0.15934293  0.01871214  0.45376133  1
  O  O530  1  0.16041800  0.01866172  0.70248356  1
  O  O531  1  0.16331966  0.01892013  0.95169946  1
  O  O532  1  0.16554950  0.35145891  0.20137120  1
  O  O533  1  0.16200165  0.35132220  0.45341712  1
  O  O534  1  0.16394123  0.35154023  0.70258198  1
  O  O535  1  0.16170159  0.35219087  0.95128580  1
  O  O536  1  0.16417213  0.68444930  0.20272075  1
  O  O537  1  0.16213996  0.68473855  0.45307858  1
  O  O538  1  0.16133331  0.68487928  0.70157025  1
  O  O539  1  0.16462198  0.68422762  0.95220226  1
  O  O540  1  0.66476422  0.01892387  0.20223918  1
  O  O541  1  0.66307345  0.01712608  0.45355483  1
  O  O542  1  0.66353646  0.01891304  0.70327685  1
  O  O543  1  0.66163393  0.01801887  0.95204480  1
  O  O544  1  0.66386162  0.35120706  0.20151563  1
  O  O545  1  0.66155292  0.35276917  0.45320270  1
  O  O546  1  0.66178340  0.35072413  0.70261118  1
  O  O547  1  0.66112537  0.35149587  0.95187945  1
  O  O548  1  0.66310396  0.68462673  0.20214865  1
  O  O549  1  0.66393708  0.68480749  0.45297884  1
  O  O550  1  0.66228869  0.68475918  0.70232205  1
  O  O551  1  0.66389326  0.68541979  0.95212007  1
  O  O552  1  0.34021865  0.31373363  0.04683392  1
  O  O553  1  0.33800921  0.31557738  0.29677025  1
  O  O554  1  0.33629381  0.31420556  0.54889440  1
  O  O555  1  0.33902244  0.31594588  0.79746429  1
  O  O556  1  0.33711535  0.64862246  0.04607856  1
  O  O557  1  0.33890239  0.64793944  0.29806959  1
  O  O558  1  0.33699851  0.64930224  0.54780111  1
  O  O559  1  0.34005768  0.64704332  0.79718914  1
  O  O560  1  0.33780432  0.98218898  0.04647207  1
  O  O561  1  0.33726565  0.98213244  0.29819954  1
  O  O562  1  0.33557067  0.98094160  0.54915409  1
  O  O563  1  0.33755526  0.98178105  0.79730938  1
  O  O564  1  0.83863105  0.31527157  0.04720649  1
  O  O565  1  0.83966419  0.31552085  0.29725722  1
  O  O566  1  0.83907594  0.31484120  0.54813671  1
  O  O567  1  0.83752718  0.31561075  0.79727254  1
  O  O568  1  0.83792291  0.64931952  0.04717547  1
  O  O569  1  0.83842264  0.64705557  0.29732031  1
  O  O570  1  0.83662843  0.64925980  0.54837347  1
  O  O571  1  0.83631178  0.64703501  0.79702662  1
  O  O572  1  0.83693328  0.98083819  0.04668859  1
  O  O573  1  0.83742695  0.98308509  0.29750616  1
  O  O574  1  0.83756594  0.98004701  0.54884672  1
  O  O575  1  0.83748162  0.98282144  0.79744938  1
  O  O576  1  0.41148924  0.14952964  0.17171638  1
  O  O577  1  0.41136972  0.14820762  0.42282218  1
  O  O578  1  0.41228028  0.14809597  0.67196041  1
  O  O579  1  0.41387034  0.14914547  0.92218079  1
  O  O580  1  0.41273418  0.48046661  0.17308393  1
  O  O581  1  0.41180148  0.48271583  0.42243131  1
  O  O582  1  0.41292958  0.48176279  0.67283435  1
  O  O583  1  0.41411215  0.48179344  0.92159207  1
  O  O584  1  0.41106086  0.81517145  0.17283842  1
  O  O585  1  0.40973222  0.81394551  0.42377456  1
  O  O586  1  0.41183844  0.81571392  0.67143554  1
  O  O587  1  0.41177472  0.81390926  0.92279517  1
  O  O588  1  0.91211341  0.14967897  0.17245095  1
  O  O589  1  0.91328054  0.14885477  0.42199891  1
  O  O590  1  0.91304365  0.14846127  0.67297267  1
  O  O591  1  0.91202276  0.14847229  0.92114387  1
  O  O592  1  0.91193252  0.48232738  0.17278965  1
  O  O593  1  0.91168742  0.48101164  0.42252692  1
  O  O594  1  0.91133446  0.48249010  0.67295551  1
  O  O595  1  0.91262564  0.48096967  0.92218404  1
  O  O596  1  0.91214735  0.81395317  0.17231427  1
  O  O597  1  0.91348965  0.81487685  0.42379345  1
  O  O598  1  0.91294151  0.81462202  0.67149715  1
  O  O599  1  0.91159110  0.81610860  0.92240292  1
  O  O600  1  0.08502391  0.18523651  0.07697026  1
  O  O601  1  0.08712383  0.18446724  0.32792243  1
  O  O602  1  0.08552077  0.18450966  0.57764012  1
  O  O603  1  0.08648580  0.18544456  0.82789834  1
  O  O604  1  0.08721969  0.51804842  0.07686909  1
  O  O605  1  0.08859575  0.51944027  0.32768441  1
  O  O606  1  0.08682910  0.51854915  0.57704180  1
  O  O607  1  0.08780241  0.51735321  0.82812878  1
  O  O608  1  0.08673627  0.85162359  0.07721583  1
  O  O609  1  0.08900527  0.85107119  0.32864930  1
  O  O610  1  0.08625641  0.85170142  0.57718236  1
  O  O611  1  0.08571273  0.85239053  0.82753436  1
  O  O612  1  0.58627644  0.18594270  0.07732194  1
  O  O613  1  0.58705434  0.18493697  0.32702759  1
  O  O614  1  0.58651349  0.18580818  0.57753253  1
  O  O615  1  0.58721625  0.18457685  0.82645212  1
  O  O616  1  0.58730110  0.51713383  0.07864484  1
  O  O617  1  0.58628758  0.51891540  0.32800681  1
  O  O618  1  0.58703859  0.51719640  0.57771386  1
  O  O619  1  0.58688966  0.51780757  0.82676077  1
  O  O620  1  0.58805752  0.85174451  0.07666291  1
  O  O621  1  0.58745907  0.85121782  0.32803576  1
  O  O622  1  0.58719861  0.85173605  0.57660938  1
  O  O623  1  0.58980195  0.85269579  0.82680462  1
  O  O624  1  0.33914871  0.18357153  0.04625609  1
  O  O625  1  0.33885330  0.18517101  0.29664282  1
  O  O626  1  0.33536650  0.18437642  0.54914341  1
  O  O627  1  0.33967847  0.18598078  0.79781929  1
  O  O628  1  0.33692738  0.51849447  0.04660349  1
  O  O629  1  0.33881189  0.51781442  0.29803765  1
  O  O630  1  0.33753115  0.51937422  0.54838105  1
  O  O631  1  0.33912961  0.51707479  0.79731142  1
  O  O632  1  0.33788672  0.85186229  0.04654522  1
  O  O633  1  0.33771765  0.85171448  0.29766070  1
  O  O634  1  0.33536664  0.85104431  0.54858721  1
  O  O635  1  0.33779141  0.85177871  0.79671501  1
  O  O636  1  0.83897046  0.18532351  0.04695567  1
  O  O637  1  0.83983271  0.18532019  0.29719625  1
  O  O638  1  0.83910861  0.18484583  0.54808284  1
  O  O639  1  0.83786108  0.18551876  0.79737208  1
  O  O640  1  0.83843799  0.51932283  0.04805350  1
  O  O641  1  0.83803345  0.51684593  0.29695127  1
  O  O642  1  0.83661280  0.51940525  0.54923229  1
  O  O643  1  0.83576835  0.51691243  0.79711395  1
  O  O644  1  0.83617933  0.85076188  0.04643301  1
  O  O645  1  0.83849404  0.85292846  0.29753768  1
  O  O646  1  0.83675232  0.85006776  0.54823578  1
  O  O647  1  0.83832879  0.85269471  0.79740942  1
  O  O648  1  0.16382654  0.14861408  0.20202257  1
  O  O649  1  0.16028721  0.14916157  0.45337032  1
  O  O650  1  0.16034070  0.14854800  0.70254040  1
  O  O651  1  0.16396633  0.14886508  0.95132158  1
  O  O652  1  0.16495462  0.48149360  0.20204975  1
  O  O653  1  0.16258280  0.48175503  0.45320950  1
  O  O654  1  0.16401172  0.48144593  0.70271132  1
  O  O655  1  0.16215871  0.48230207  0.95171832  1
  O  O656  1  0.16415997  0.81443319  0.20254558  1
  O  O657  1  0.16198280  0.81500371  0.45319555  1
  O  O658  1  0.16126678  0.81475057  0.70163767  1
  O  O659  1  0.16434464  0.81434740  0.95224205  1
  O  O660  1  0.66502579  0.14893660  0.20186697  1
  O  O661  1  0.66340502  0.14745752  0.45253780  1
  O  O662  1  0.66370035  0.14914483  0.70279537  1
  O  O663  1  0.66186042  0.14804614  0.95114778  1
  O  O664  1  0.66354027  0.48105458  0.20176813  1
  O  O665  1  0.66181306  0.48318347  0.45405220  1
  O  O666  1  0.66127647  0.48079613  0.70265583  1
  O  O667  1  0.66053895  0.48147349  0.95232643  1
  O  O668  1  0.66220265  0.81475480  0.20267672  1
  O  O669  1  0.66443861  0.81506544  0.45298436  1
  O  O670  1  0.66219056  0.81501608  0.70265473  1
  O  O671  1  0.66433382  0.81550575  0.95213570  1
