# generated using pymatgen
data_Na2MnFe(PO4)2
_symmetry_space_group_name_H-M   'P 1'
_cell_length_a   21.08808367
_cell_length_b   18.94077520
_cell_length_c   20.04621132
_cell_angle_alpha   89.99972708
_cell_angle_beta   89.99999200
_cell_angle_gamma   89.99794926
_symmetry_Int_Tables_number   1
_chemical_formula_structural   Na2MnFe(PO4)2
_chemical_formula_sum   'Na96 Mn48 Fe48 P96 O384'
_cell_volume   8006.95098168
_cell_formula_units_Z   48
loop_
 _symmetry_equiv_pos_site_id
 _symmetry_equiv_pos_as_xyz
  1  'x, y, z'
loop_
 _atom_site_type_symbol
 _atom_site_label
 _atom_site_symmetry_multiplicity
 _atom_site_fract_x
 _atom_site_fract_y
 _atom_site_fract_z
 _atom_site_occupancy
  Na  Na0  1  0.00017525  0.00028301  -0.00064344  1
  Na  Na1  1  -0.00198199  -0.00080232  0.24945000  1
  Na  Na2  1  -0.00061670  -0.00010576  0.50061908  1
  Na  Na3  1  0.00033540  0.00011974  0.75119622  1
  Na  Na4  1  0.00278932  0.33414930  0.00006783  1
  Na  Na5  1  -0.00104745  0.33243849  0.24989016  1
  Na  Na6  1  -0.00099333  0.33247757  0.49995020  1
  Na  Na7  1  0.00007487  0.33267527  0.75063699  1
  Na  Na8  1  0.00096696  0.66686937  -0.00002286  1
  Na  Na9  1  0.00040257  0.66636956  0.24978387  1
  Na  Na10  1  -0.00040799  0.66650888  0.49941739  1
  Na  Na11  1  0.00018177  0.66703277  0.75049666  1
  Na  Na12  1  0.49838606  0.00010849  0.00027526  1
  Na  Na13  1  0.49733208  -0.00091482  0.24891298  1
  Na  Na14  1  0.50097305  0.00038381  0.49989859  1
  Na  Na15  1  0.50062814  0.00051144  0.74977143  1
  Na  Na16  1  0.49963601  0.33246395  0.00065272  1
  Na  Na17  1  0.50215028  0.33419318  0.24952951  1
  Na  Na18  1  0.50258596  0.33386577  0.49918852  1
  Na  Na19  1  0.50083286  0.33257853  0.75063672  1
  Na  Na20  1  0.50072200  0.66758068  -0.00037555  1
  Na  Na21  1  0.50180293  0.66808660  0.24866245  1
  Na  Na22  1  0.50083646  0.66735633  0.50000169  1
  Na  Na23  1  0.49921236  0.66635659  0.75156862  1
  Na  Na24  1  0.25266270  0.00078690  0.12547922  1
  Na  Na25  1  0.25074151  0.00007450  0.37603485  1
  Na  Na26  1  0.24735313  -0.00030711  0.62426392  1
  Na  Na27  1  0.24703237  -0.00094697  0.87465594  1
  Na  Na28  1  0.25059533  0.33311907  0.12398842  1
  Na  Na29  1  0.25154480  0.33351087  0.37560435  1
  Na  Na30  1  0.25062726  0.33288063  0.62614903  1
  Na  Na31  1  0.25083475  0.33296880  0.87394834  1
  Na  Na32  1  0.24875179  0.66613519  0.12515084  1
  Na  Na33  1  0.24763630  0.66577448  0.37625584  1
  Na  Na34  1  0.24842328  0.66669417  0.62557607  1
  Na  Na35  1  0.24885850  0.66695160  0.87344814  1
  Na  Na36  1  0.75247577  0.00123454  0.12553521  1
  Na  Na37  1  0.75031079  -0.00043226  0.37463177  1
  Na  Na38  1  0.75210542  0.00052507  0.62503913  1
  Na  Na39  1  0.75103177  -0.00018944  0.87418529  1
  Na  Na40  1  0.74730384  0.33236577  0.12547672  1
  Na  Na41  1  0.74768524  0.33285245  0.37580485  1
  Na  Na42  1  0.74804536  0.33235726  0.62435481  1
  Na  Na43  1  0.74793687  0.33254527  0.87483282  1
  Na  Na44  1  0.74986143  0.66704790  0.12579490  1
  Na  Na45  1  0.74972911  0.66703391  0.37434972  1
  Na  Na46  1  0.75185345  0.66771810  0.62486956  1
  Na  Na47  1  0.75105335  0.66705472  0.87493313  1
  Na  Na48  1  0.00153457  0.16604446  -0.00055675  1
  Na  Na49  1  -0.00070255  0.16690025  0.24910708  1
  Na  Na50  1  -0.00040901  0.16687065  0.49975958  1
  Na  Na51  1  0.00061968  0.16657933  0.75109341  1
  Na  Na52  1  0.00108801  0.50040169  0.00049106  1
  Na  Na53  1  0.00042716  0.50027666  0.25049785  1
  Na  Na54  1  -0.00048034  0.50015008  0.49948498  1
  Na  Na55  1  -0.00014223  0.50027546  0.75079610  1
  Na  Na56  1  0.00039355  0.83326699  -0.00075001  1
  Na  Na57  1  -0.00186978  0.83388039  0.24971054  1
  Na  Na58  1  -0.00139841  0.83403322  0.50072938  1
  Na  Na59  1  0.00055396  0.83309418  0.75050530  1
  Na  Na60  1  0.50017277  0.16664853  0.00101248  1
  Na  Na61  1  0.50088091  0.16601851  0.24930060  1
  Na  Na62  1  0.50117347  0.16659618  0.49964513  1
  Na  Na63  1  0.49954270  0.16733072  0.75036118  1
  Na  Na64  1  0.50083677  0.49941499  -0.00024781  1
  Na  Na65  1  0.50031644  0.49976703  0.24898832  1
  Na  Na66  1  0.50150957  0.49934269  0.49907786  1
  Na  Na67  1  0.50033308  0.50023372  0.75123119  1
  Na  Na68  1  0.49774312  0.83408250  -0.00031623  1
  Na  Na69  1  0.50023143  0.83277889  0.24901729  1
  Na  Na70  1  0.50103333  0.83324326  0.50014586  1
  Na  Na71  1  0.50103265  0.83272000  0.75055881  1
  Na  Na72  1  0.25103081  0.16670318  0.12430163  1
  Na  Na73  1  0.25029312  0.16672631  0.37643836  1
  Na  Na74  1  0.24936360  0.16676027  0.62591816  1
  Na  Na75  1  0.25012058  0.16647526  0.87368938  1
  Na  Na76  1  0.25067252  0.49968255  0.12464974  1
  Na  Na77  1  0.24910805  0.50040171  0.37594651  1
  Na  Na78  1  0.25031080  0.49972232  0.62583106  1
  Na  Na79  1  0.24902955  0.50067458  0.87367027  1
  Na  Na80  1  0.25027432  0.83345397  0.12563254  1
  Na  Na81  1  0.25095280  0.83299980  0.37567052  1
  Na  Na82  1  0.24642158  0.83447463  0.62431371  1
  Na  Na83  1  0.24745974  0.83382538  0.87462881  1
  Na  Na84  1  0.74845830  0.16699146  0.12563162  1
  Na  Na85  1  0.74798634  0.16746488  0.37503159  1
  Na  Na86  1  0.74981907  0.16693039  0.62511015  1
  Na  Na87  1  0.74927942  0.16674151  0.87415073  1
  Na  Na88  1  0.74940713  0.49994307  0.12574209  1
  Na  Na89  1  0.74872317  0.49997803  0.37493689  1
  Na  Na90  1  0.75015440  0.49990777  0.62509416  1
  Na  Na91  1  0.74894112  0.50080939  0.87484266  1
  Na  Na92  1  0.75116296  0.83309781  0.12563571  1
  Na  Na93  1  0.75130527  0.83276085  0.37479358  1
  Na  Na94  1  0.75158662  0.83301402  0.62410171  1
  Na  Na95  1  0.75232169  0.83251604  0.87480110  1
  Mn  Mn96  1  0.10883945  0.41647849  0.12300807  1
  Mn  Mn97  1  0.89323301  0.91678945  0.87754160  1
  Mn  Mn98  1  0.64286072  0.91678537  0.49762092  1
  Mn  Mn99  1  0.85761393  0.08324246  0.50233403  1
  Mn  Mn100  1  0.10799145  0.41595613  0.37289163  1
  Mn  Mn101  1  0.35804501  0.74945898  0.25268458  1
  Mn  Mn102  1  0.85750112  0.41649172  0.75230222  1
  Mn  Mn103  1  0.60840743  0.08298606  0.62280655  1
  Mn  Mn104  1  0.60825892  0.75107437  0.87323249  1
  Mn  Mn105  1  0.39218463  0.58421495  0.37725295  1
  Mn  Mn106  1  0.10849837  0.08296162  0.12293322  1
  Mn  Mn107  1  0.10777877  0.75037253  0.12276533  1
  Mn  Mn108  1  0.35746227  0.08354279  0.50244357  1
  Mn  Mn109  1  0.14261625  0.91672278  0.24803695  1
  Mn  Mn110  1  0.89222102  0.58311743  0.37728026  1
  Mn  Mn111  1  0.85770313  0.41645090  0.00266880  1
  Mn  Mn112  1  0.85689703  0.41680690  0.50240780  1
  Mn  Mn113  1  0.39104762  0.91742303  0.87686032  1
  Mn  Mn114  1  0.35870515  0.41671082  0.75195337  1
  Mn  Mn115  1  0.39200836  0.58373652  0.12644395  1
  Mn  Mn116  1  0.64189601  0.91714384  0.24748249  1
  Mn  Mn117  1  0.10728148  0.08335335  0.37242758  1
  Mn  Mn118  1  0.89278626  0.58278263  0.87790918  1
  Mn  Mn119  1  0.10719228  0.41630498  0.62215005  1
  Mn  Mn120  1  0.14244502  0.24969036  0.74747953  1
  Mn  Mn121  1  0.39185704  0.91628153  0.62731511  1
  Mn  Mn122  1  0.64326591  0.91661168  0.74784995  1
  Mn  Mn123  1  0.60771637  0.41601996  0.87315632  1
  Mn  Mn124  1  0.35737063  0.08247562  0.75192163  1
  Mn  Mn125  1  0.85693524  0.41613480  0.25191340  1
  Mn  Mn126  1  0.14255656  0.25030423  0.24816855  1
  Mn  Mn127  1  0.39232933  0.24991763  0.12707705  1
  Mn  Mn128  1  0.64260382  0.91685462  0.99792301  1
  Mn  Mn129  1  0.64195491  0.58342122  0.49806596  1
  Mn  Mn130  1  0.64248688  0.58363228  0.74706232  1
  Mn  Mn131  1  0.85746458  0.74980804  0.25192678  1
  Mn  Mn132  1  0.10703811  0.75041585  0.37307908  1
  Mn  Mn133  1  0.89203668  0.25044671  0.12639807  1
  Mn  Mn134  1  0.39203622  0.58302672  0.87809212  1
  Mn  Mn135  1  0.35695109  0.75082955  0.75114531  1
  Mn  Mn136  1  0.35846860  0.41660208  0.50261941  1
  Mn  Mn137  1  0.85750874  0.08428135  0.25229482  1
  Mn  Mn138  1  0.14176492  0.58359535  0.74691959  1
  Mn  Mn139  1  0.60719623  0.08255441  0.12199950  1
  Mn  Mn140  1  0.64151426  0.58304257  0.24724028  1
  Mn  Mn141  1  0.39326333  0.24967451  0.37726482  1
  Mn  Mn142  1  0.35754631  0.74981860  0.50272570  1
  Mn  Mn143  1  0.89243494  0.25051333  0.87767651  1
  Fe  Fe144  1  0.14365300  0.24995345  0.99795375  1
  Fe  Fe145  1  0.64245574  0.24952638  0.74794902  1
  Fe  Fe146  1  0.39330165  0.24943240  0.87694416  1
  Fe  Fe147  1  0.35693836  0.08301130  0.00049703  1
  Fe  Fe148  1  0.60723982  0.41707289  0.37234803  1
  Fe  Fe149  1  0.10613855  0.08345897  0.62359204  1
  Fe  Fe150  1  0.10788592  0.08351832  0.87354264  1
  Fe  Fe151  1  0.60700014  0.41745702  0.12231230  1
  Fe  Fe152  1  0.39314245  0.91648066  0.37683061  1
  Fe  Fe153  1  0.35678280  0.41696113  0.00125305  1
  Fe  Fe154  1  0.89224216  0.91705601  0.37703383  1
  Fe  Fe155  1  0.10848664  0.41661013  0.87369558  1
  Fe  Fe156  1  0.60716031  0.75004606  0.12197809  1
  Fe  Fe157  1  0.14207620  0.25021800  0.49865290  1
  Fe  Fe158  1  0.89355261  0.91690802  0.62703928  1
  Fe  Fe159  1  0.14264500  0.58324500  0.99866825  1
  Fe  Fe160  1  0.85787349  0.08378236  0.75188040  1
  Fe  Fe161  1  0.10754635  0.74997884  0.87345825  1
  Fe  Fe162  1  0.60768081  0.75067524  0.37363881  1
  Fe  Fe163  1  0.89296336  0.58324172  0.12639772  1
  Fe  Fe164  1  0.14206794  0.58282119  0.49901714  1
  Fe  Fe165  1  0.89268807  0.58328041  0.62635886  1
  Fe  Fe166  1  0.35624802  0.75005830  0.00093593  1
  Fe  Fe167  1  0.14130359  0.91681258  0.74758286  1
  Fe  Fe168  1  0.60715839  0.41733939  0.62367595  1
  Fe  Fe169  1  0.14282969  0.58283064  0.24833801  1
  Fe  Fe170  1  0.85810631  0.75002083  0.00224956  1
  Fe  Fe171  1  0.64233532  0.24966179  0.24852966  1
  Fe  Fe172  1  0.85826286  0.75008805  0.75147663  1
  Fe  Fe173  1  0.35798075  0.41657852  0.25140451  1
  Fe  Fe174  1  0.64343445  0.58364799  0.99899703  1
  Fe  Fe175  1  0.64232862  0.24949969  0.49813541  1
  Fe  Fe176  1  0.85751365  0.08342836  0.00126341  1
  Fe  Fe177  1  0.60705092  0.08256941  0.37287421  1
  Fe  Fe178  1  0.39277034  0.58332427  0.62581713  1
  Fe  Fe179  1  0.85743765  0.74953907  0.50215816  1
  Fe  Fe180  1  0.60813985  0.74951009  0.62354779  1
  Fe  Fe181  1  0.64250802  0.24965536  0.99793189  1
  Fe  Fe182  1  0.39357637  0.25043813  0.62616282  1
  Fe  Fe183  1  0.35782305  0.08396168  0.25248455  1
  Fe  Fe184  1  0.89162436  0.24974753  0.37702805  1
  Fe  Fe185  1  0.89276675  0.91642562  0.12587754  1
  Fe  Fe186  1  0.60765882  0.08300618  0.87385922  1
  Fe  Fe187  1  0.10576103  0.75000833  0.62279627  1
  Fe  Fe188  1  0.14146902  0.91690149  0.49763055  1
  Fe  Fe189  1  0.89210985  0.24989549  0.62677483  1
  Fe  Fe190  1  0.14266880  0.91679136  0.99919136  1
  Fe  Fe191  1  0.39167713  0.91599773  0.12616969  1
  P  P192  1  0.05449663  0.24973677  0.10908114  1
  P  P193  1  0.05254757  0.24982273  0.36078959  1
  P  P194  1  0.05212371  0.24901370  0.60988156  1
  P  P195  1  0.05553837  0.25005993  0.86152724  1
  P  P196  1  0.05431875  0.58331823  0.11057890  1
  P  P197  1  0.05521876  0.58312599  0.36046218  1
  P  P198  1  0.05204367  0.58389494  0.60961764  1
  P  P199  1  0.05547982  0.58336307  0.86155357  1
  P  P200  1  0.05269184  0.91672481  0.10936038  1
  P  P201  1  0.05254218  0.91677892  0.36073261  1
  P  P202  1  0.05352436  0.91696212  0.61104380  1
  P  P203  1  0.05602667  0.91669087  0.86124189  1
  P  P204  1  0.55527083  0.25066187  0.11065865  1
  P  P205  1  0.55548494  0.24948156  0.36040214  1
  P  P206  1  0.55436661  0.25060893  0.61060888  1
  P  P207  1  0.55464165  0.24854187  0.86099345  1
  P  P208  1  0.55390283  0.58347560  0.10884564  1
  P  P209  1  0.55338576  0.58403289  0.35962048  1
  P  P210  1  0.55231614  0.58355940  0.61034054  1
  P  P211  1  0.55505060  0.58369000  0.86155551  1
  P  P212  1  0.55165922  0.91597259  0.10954117  1
  P  P213  1  0.55249136  0.91680697  0.35980839  1
  P  P214  1  0.55377576  0.91571060  0.61010809  1
  P  P215  1  0.55328812  0.91792097  0.86012284  1
  P  P216  1  0.44395556  0.08262128  0.13885182  1
  P  P217  1  0.44678886  0.08262630  0.38890884  1
  P  P218  1  0.44688624  0.08413527  0.63984787  1
  P  P219  1  0.44726108  0.08411192  0.89039445  1
  P  P220  1  0.44575817  0.41683833  0.13885903  1
  P  P221  1  0.44700071  0.41669120  0.38849308  1
  P  P222  1  0.44833041  0.41671023  0.63971308  1
  P  P223  1  0.44612727  0.41532213  0.89086269  1
  P  P224  1  0.44584999  0.75036703  0.13801747  1
  P  P225  1  0.44788718  0.75092048  0.38998631  1
  P  P226  1  0.44818802  0.74923576  0.64011296  1
  P  P227  1  0.44551328  0.75052294  0.89056997  1
  P  P228  1  0.94538569  0.08289259  0.13832790  1
  P  P229  1  0.94608421  0.08353103  0.38992538  1
  P  P230  1  0.94679768  0.08353087  0.64066445  1
  P  P231  1  0.94655346  0.08369428  0.88946140  1
  P  P232  1  0.94696306  0.41748430  0.14008917  1
  P  P233  1  0.94608355  0.41571142  0.38999783  1
  P  P234  1  0.94623517  0.41648179  0.64009780  1
  P  P235  1  0.94843283  0.41651987  0.89049950  1
  P  P236  1  0.94536945  0.74976284  0.13853279  1
  P  P237  1  0.94542098  0.75063232  0.39056140  1
  P  P238  1  0.94596624  0.74997344  0.63919317  1
  P  P239  1  0.94657834  0.74986729  0.88957994  1
  P  P240  1  0.19847349  0.08340114  0.23535602  1
  P  P241  1  0.19426142  0.08383183  0.48667250  1
  P  P242  1  0.19427477  0.08255381  0.73518192  1
  P  P243  1  0.19741837  0.08326869  0.98474830  1
  P  P244  1  0.19843291  0.41699838  0.23523360  1
  P  P245  1  0.19664074  0.41609669  0.48573505  1
  P  P246  1  0.19576909  0.41644025  0.73557910  1
  P  P247  1  0.19762098  0.41663624  0.98429315  1
  P  P248  1  0.19654109  0.74951004  0.23554017  1
  P  P249  1  0.19437201  0.75003886  0.48664281  1
  P  P250  1  0.19373152  0.75105325  0.73492120  1
  P  P251  1  0.19679888  0.75012546  0.98487334  1
  P  P252  1  0.69499470  0.08373480  0.23599648  1
  P  P253  1  0.69601686  0.08370394  0.48429804  1
  P  P254  1  0.69714361  0.08366968  0.73618472  1
  P  P255  1  0.69751039  0.08342179  0.98441003  1
  P  P256  1  0.69403358  0.41577362  0.23537650  1
  P  P257  1  0.69397266  0.41616153  0.48579993  1
  P  P258  1  0.69571302  0.41572800  0.73443468  1
  P  P259  1  0.69558144  0.41700800  0.98627753  1
  P  P260  1  0.69421116  0.75044975  0.23517627  1
  P  P261  1  0.69653989  0.74991533  0.48543503  1
  P  P262  1  0.69813243  0.75040412  0.73432644  1
  P  P263  1  0.69747304  0.74972265  0.98623783  1
  P  P264  1  0.30395012  0.24978532  0.01289067  1
  P  P265  1  0.30399650  0.25014286  0.26513214  1
  P  P266  1  0.30291550  0.24986114  0.51607336  1
  P  P267  1  0.30595880  0.24968164  0.76427290  1
  P  P268  1  0.30176509  0.58364972  0.01428106  1
  P  P269  1  0.30233512  0.58255071  0.26522926  1
  P  P270  1  0.30230395  0.58339783  0.51598479  1
  P  P271  1  0.30485148  0.58372877  0.76354516  1
  P  P272  1  0.30218853  0.91661288  0.01493701  1
  P  P273  1  0.30543966  0.91726115  0.26502716  1
  P  P274  1  0.30277206  0.91668157  0.51409150  1
  P  P275  1  0.30081504  0.91660127  0.76459633  1
  P  P276  1  0.80164308  0.24924657  0.01479294  1
  P  P277  1  0.80220296  0.25032035  0.26570334  1
  P  P278  1  0.80324973  0.24986199  0.51460330  1
  P  P279  1  0.80355129  0.24949172  0.76394463  1
  P  P280  1  0.80317011  0.58393931  0.01582931  1
  P  P281  1  0.80406392  0.58304570  0.26400296  1
  P  P282  1  0.80368962  0.58396172  0.51549341  1
  P  P283  1  0.80511121  0.58415049  0.76392966  1
  P  P284  1  0.80442288  0.91680739  0.01534864  1
  P  P285  1  0.80506887  0.91673916  0.26446481  1
  P  P286  1  0.80560089  0.91593405  0.51452876  1
  P  P287  1  0.80604345  0.91661437  0.76348407  1
  O  O288  1  0.05732181  0.24966973  0.18592065  1
  O  O289  1  0.05783077  0.25002997  0.43738998  1
  O  O290  1  0.05624089  0.24984546  0.68656927  1
  O  O291  1  0.06002632  0.24997768  0.93824847  1
  O  O292  1  0.05919133  0.58311226  0.18728626  1
  O  O293  1  0.05946051  0.58283840  0.43722724  1
  O  O294  1  0.05561396  0.58332509  0.68636502  1
  O  O295  1  0.05951022  0.58339998  0.93835102  1
  O  O296  1  0.05651939  0.91673620  0.18608013  1
  O  O297  1  0.05752947  0.91688064  0.43743806  1
  O  O298  1  0.05739663  0.91685952  0.68780335  1
  O  O299  1  0.05997407  0.91681159  0.93799999  1
  O  O300  1  0.55891358  0.24971095  0.18739729  1
  O  O301  1  0.55878835  0.24941163  0.43724889  1
  O  O302  1  0.55862366  0.24950599  0.68738693  1
  O  O303  1  0.55930029  0.24917862  0.93774495  1
  O  O304  1  0.55631549  0.58352112  0.18563272  1
  O  O305  1  0.55618481  0.58383978  0.43639236  1
  O  O306  1  0.55556752  0.58369108  0.68707219  1
  O  O307  1  0.55983466  0.58392109  0.93821970  1
  O  O308  1  0.55568830  0.91664570  0.18616215  1
  O  O309  1  0.55636226  0.91701718  0.43648315  1
  O  O310  1  0.55717958  0.91637993  0.68684989  1
  O  O311  1  0.55648751  0.91725815  0.93684510  1
  O  O312  1  0.43953436  0.08354916  0.06209321  1
  O  O313  1  0.44219859  0.08352955  0.31221353  1
  O  O314  1  0.44368355  0.08353930  0.56306102  1
  O  O315  1  0.44355569  0.08322995  0.81370164  1
  O  O316  1  0.44017033  0.41673263  0.06222533  1
  O  O317  1  0.44181768  0.41667831  0.31183881  1
  O  O318  1  0.44521809  0.41653004  0.56293407  1
  O  O319  1  0.44364628  0.41636422  0.81405329  1
  O  O320  1  0.44003761  0.74976660  0.06145351  1
  O  O321  1  0.44414436  0.75001812  0.31327004  1
  O  O322  1  0.44419050  0.75012736  0.56340237  1
  O  O323  1  0.44213777  0.75044863  0.81382049  1
  O  O324  1  0.94133439  0.08385821  0.06156299  1
  O  O325  1  0.94336513  0.08377002  0.31311853  1
  O  O326  1  0.94327335  0.08375867  0.56396765  1
  O  O327  1  0.94147275  0.08389470  0.81282220  1
  O  O328  1  0.94389736  0.41687600  0.06330838  1
  O  O329  1  0.94293731  0.41619465  0.31324471  1
  O  O330  1  0.94309294  0.41639461  0.56335929  1
  O  O331  1  0.94377773  0.41630606  0.81386714  1
  O  O332  1  0.94201253  0.74965109  0.06170736  1
  O  O333  1  0.94281442  0.74964451  0.31371492  1
  O  O334  1  0.94166843  0.74976361  0.56250966  1
  O  O335  1  0.94193709  0.74986987  0.81290238  1
  O  O336  1  0.19451904  0.08342791  0.06148421  1
  O  O337  1  0.19416936  0.08320252  0.31205261  1
  O  O338  1  0.18994507  0.08367890  0.56339212  1
  O  O339  1  0.19055046  0.08343123  0.81196265  1
  O  O340  1  0.19448422  0.41651889  0.06104253  1
  O  O341  1  0.19450740  0.41628049  0.31189314  1
  O  O342  1  0.19366459  0.41599008  0.56251923  1
  O  O343  1  0.19150176  0.41643367  0.81230159  1
  O  O344  1  0.19365623  0.75008177  0.06162399  1
  O  O345  1  0.19328181  0.75047657  0.31227583  1
  O  O346  1  0.18988107  0.75032520  0.56338345  1
  O  O347  1  0.19027394  0.75006919  0.81171720  1
  O  O348  1  0.69354209  0.08274076  0.06114204  1
  O  O349  1  0.69084047  0.08239648  0.31269547  1
  O  O350  1  0.69347666  0.08284450  0.56114178  1
  O  O351  1  0.69219180  0.08291928  0.81275382  1
  O  O352  1  0.69179010  0.41697116  0.06304437  1
  O  O353  1  0.69029823  0.41706196  0.31224994  1
  O  O354  1  0.69009527  0.41727570  0.56257320  1
  O  O355  1  0.69283025  0.41655034  0.81124902  1
  O  O356  1  0.69205606  0.75063350  0.06289132  1
  O  O357  1  0.69001759  0.75067587  0.31199889  1
  O  O358  1  0.69148760  0.74994760  0.56210980  1
  O  O359  1  0.69393519  0.75037173  0.81103992  1
  O  O360  1  0.30658828  0.25024074  0.18830873  1
  O  O361  1  0.30753474  0.24978616  0.43938563  1
  O  O362  1  0.31056342  0.24994735  0.68755612  1
  O  O363  1  0.30833490  0.24949418  0.93623858  1
  O  O364  1  0.30624036  0.58336878  0.18854067  1
  O  O365  1  0.30645143  0.58368679  0.43928048  1
  O  O366  1  0.30970160  0.58344937  0.68682692  1
  O  O367  1  0.30509124  0.58387232  0.93758077  1
  O  O368  1  0.30920646  0.91613328  0.18820417  1
  O  O369  1  0.30883066  0.91649545  0.43751846  1
  O  O370  1  0.30515674  0.91668076  0.68792199  1
  O  O371  1  0.30508179  0.91654738  0.93820564  1
  O  O372  1  0.80648808  0.25022174  0.18902227  1
  O  O373  1  0.80806681  0.24998732  0.43793455  1
  O  O374  1  0.80851894  0.24994479  0.68726684  1
  O  O375  1  0.80568678  0.25010906  0.93810612  1
  O  O376  1  0.80871644  0.58305152  0.18733756  1
  O  O377  1  0.80637967  0.58321953  0.43869581  1
  O  O378  1  0.80947213  0.58341410  0.68721414  1
  O  O379  1  0.80676953  0.58330219  0.93903596  1
  O  O380  1  0.80943592  0.91671032  0.18773524  1
  O  O381  1  0.80905134  0.91681955  0.43771709  1
  O  O382  1  0.80987373  0.91679160  0.68671131  1
  O  O383  1  0.80735294  0.91653782  0.93845258  1
  O  O384  1  0.23369839  0.24992974  0.03718269  1
  O  O385  1  0.23452907  0.24998386  0.29094912  1
  O  O386  1  0.23269428  0.24998690  0.53999224  1
  O  O387  1  0.23566965  0.24957718  0.78751710  1
  O  O388  1  0.23179415  0.58314414  0.03928974  1
  O  O389  1  0.23233745  0.58293582  0.28990848  1
  O  O390  1  0.23207801  0.58303313  0.54004523  1
  O  O391  1  0.23462775  0.58368896  0.78689606  1
  O  O392  1  0.23217960  0.91696895  0.04014348  1
  O  O393  1  0.23541857  0.91663499  0.28941160  1
  O  O394  1  0.23210332  0.91702437  0.53665612  1
  O  O395  1  0.23074727  0.91669604  0.78869079  1
  O  O396  1  0.73154935  0.24942213  0.03919320  1
  O  O397  1  0.73199313  0.25011193  0.28954086  1
  O  O398  1  0.73277720  0.24962885  0.53789316  1
  O  O399  1  0.73314668  0.24980225  0.78744374  1
  O  O400  1  0.73310974  0.58361286  0.04035113  1
  O  O401  1  0.73400046  0.58339942  0.28791252  1
  O  O402  1  0.73400867  0.58375089  0.54068978  1
  O  O403  1  0.73508217  0.58390716  0.78804867  1
  O  O404  1  0.73476773  0.91704422  0.04069987  1
  O  O405  1  0.73495376  0.91633546  0.28831522  1
  O  O406  1  0.73565116  0.91691114  0.53896383  1
  O  O407  1  0.73621441  0.91617320  0.78828494  1
  O  O408  1  0.26850906  0.08365816  0.21108581  1
  O  O409  1  0.26432620  0.08344418  0.46248701  1
  O  O410  1  0.26428587  0.08306757  0.71092610  1
  O  O411  1  0.26740619  0.08291191  0.95954030  1
  O  O412  1  0.26835769  0.41659074  0.21032040  1
  O  O413  1  0.26629962  0.41650439  0.46044603  1
  O  O414  1  0.26585499  0.41639532  0.71172466  1
  O  O415  1  0.26766852  0.41678340  0.95936876  1
  O  O416  1  0.26620578  0.74975670  0.21043029  1
  O  O417  1  0.26441900  0.74978847  0.46239456  1
  O  O418  1  0.26363856  0.75060879  0.71028363  1
  O  O419  1  0.26677557  0.75028834  0.95974634  1
  O  O420  1  0.76498721  0.08410976  0.21183777  1
  O  O421  1  0.76566906  0.08347396  0.45915889  1
  O  O422  1  0.76741989  0.08371342  0.71219590  1
  O  O423  1  0.76767744  0.08310056  0.96008733  1
  O  O424  1  0.76401312  0.41615400  0.21110582  1
  O  O425  1  0.76399035  0.41675079  0.46153067  1
  O  O426  1  0.76538188  0.41598724  0.70932536  1
  O  O427  1  0.76539399  0.41674408  0.96119522  1
  O  O428  1  0.76445439  0.75019897  0.21176296  1
  O  O429  1  0.76695369  0.74973852  0.46206236  1
  O  O430  1  0.76836192  0.75049587  0.71045082  1
  O  O431  1  0.76792129  0.74996093  0.96275455  1
  O  O432  1  0.01528737  0.08304809  0.16298932  1
  O  O433  1  0.01557019  0.08330408  0.41551274  1
  O  O434  1  0.01691763  0.08325970  0.66521196  1
  O  O435  1  0.01712895  0.08317443  0.91243162  1
  O  O436  1  0.01656642  0.41659657  0.16541042  1
  O  O437  1  0.01573509  0.41619265  0.41518286  1
  O  O438  1  0.01589726  0.41638893  0.66543636  1
  O  O439  1  0.01861130  0.41689160  0.91440748  1
  O  O440  1  0.01512652  0.74998057  0.16360346  1
  O  O441  1  0.01506628  0.75031514  0.41575284  1
  O  O442  1  0.01637052  0.75023993  0.66312670  1
  O  O443  1  0.01703083  0.75022261  0.91298240  1
  O  O444  1  0.51419631  0.08293818  0.16243345  1
  O  O445  1  0.51703371  0.08322308  0.41284745  1
  O  O446  1  0.51658534  0.08371891  0.66489758  1
  O  O447  1  0.51722097  0.08357918  0.91521976  1
  O  O448  1  0.51634417  0.41720059  0.16161335  1
  O  O449  1  0.51749580  0.41641200  0.41165896  1
  O  O450  1  0.51810994  0.41669394  0.66522643  1
  O  O451  1  0.51583488  0.41562578  0.91588015  1
  O  O452  1  0.51640598  0.75006029  0.16097977  1
  O  O453  1  0.51796592  0.75067972  0.41444899  1
  O  O454  1  0.51818299  0.74951036  0.66490308  1
  O  O455  1  0.51546186  0.75099626  0.91498510  1
  O  O456  1  0.48513416  0.24983707  0.08658439  1
  O  O457  1  0.48562112  0.24988907  0.33551674  1
  O  O458  1  0.48412351  0.25020706  0.58633346  1
  O  O459  1  0.48425622  0.24958831  0.83751971  1
  O  O460  1  0.48425705  0.58346309  0.08349516  1
  O  O461  1  0.48390271  0.58405043  0.33377497  1
  O  O462  1  0.48256664  0.58341830  0.58472431  1
  O  O463  1  0.48484995  0.58330488  0.83805448  1
  O  O464  1  0.48151318  0.91658966  0.08528983  1
  O  O465  1  0.48256174  0.91633815  0.33491909  1
  O  O466  1  0.48407060  0.91649701  0.58500897  1
  O  O467  1  0.48362342  0.91718598  0.83489631  1
  O  O468  1  0.98477703  0.25012615  0.08398912  1
  O  O469  1  0.98220948  0.24977485  0.33714754  1
  O  O470  1  0.98182287  0.24956132  0.58592624  1
  O  O471  1  0.98547983  0.24975787  0.83739606  1
  O  O472  1  0.98400799  0.58359674  0.08685958  1
  O  O473  1  0.98507040  0.58333540  0.33672399  1
  O  O474  1  0.98194500  0.58352708  0.58516124  1
  O  O475  1  0.98551572  0.58341795  0.83717162  1
  O  O476  1  0.98269962  0.91657373  0.08480879  1
  O  O477  1  0.98224993  0.91670236  0.33717088  1
  O  O478  1  0.98309774  0.91696453  0.58723981  1
  O  O479  1  0.98583225  0.91670222  0.83718748  1
  O  O480  1  0.08920561  0.31462929  0.07698701  1
  O  O481  1  0.08591026  0.31481365  0.32731824  1
  O  O482  1  0.08618839  0.31369410  0.57654387  1
  O  O483  1  0.08876936  0.31524657  0.82839714  1
  O  O484  1  0.08792964  0.64819262  0.07721047  1
  O  O485  1  0.08875995  0.64813752  0.32736045  1
  O  O486  1  0.08583356  0.64894461  0.57708132  1
  O  O487  1  0.08878685  0.64868300  0.82867724  1
  O  O488  1  0.08674770  0.98163580  0.07659915  1
  O  O489  1  0.08582595  0.98171714  0.32718763  1
  O  O490  1  0.08679355  0.98205306  0.57782861  1
  O  O491  1  0.08938236  0.98178551  0.82805939  1
  O  O492  1  0.58835890  0.31607321  0.07790251  1
  O  O493  1  0.58956069  0.31447366  0.32776820  1
  O  O494  1  0.58771241  0.31587498  0.57795636  1
  O  O495  1  0.58854214  0.31321568  0.82744931  1
  O  O496  1  0.58842162  0.64843380  0.07660996  1
  O  O497  1  0.58765591  0.64921464  0.32770873  1
  O  O498  1  0.58655748  0.64856480  0.57789021  1
  O  O499  1  0.58818899  0.64878925  0.82810562  1
  O  O500  1  0.58556622  0.98093170  0.07665121  1
  O  O501  1  0.58595394  0.98202040  0.32681389  1
  O  O502  1  0.58818470  0.98057498  0.57750367  1
  O  O503  1  0.58713289  0.98329460  0.82798532  1
  O  O504  1  0.41055831  0.01743311  0.17153987  1
  O  O505  1  0.41359594  0.01734692  0.42187105  1
  O  O506  1  0.41261378  0.01913254  0.67242544  1
  O  O507  1  0.41264529  0.01936976  0.92311906  1
  O  O508  1  0.41299162  0.35169493  0.17265565  1
  O  O509  1  0.41395566  0.35174332  0.42223181  1
  O  O510  1  0.41437558  0.35157926  0.67213823  1
  O  O511  1  0.41213258  0.35004724  0.92276074  1
  O  O512  1  0.41301089  0.68530823  0.17201993  1
  O  O513  1  0.41400865  0.68595574  0.42293112  1
  O  O514  1  0.41430863  0.68405870  0.67229124  1
  O  O515  1  0.41171823  0.68547383  0.92345276  1
  O  O516  1  0.91174569  0.01763656  0.17080056  1
  O  O517  1  0.91185714  0.01840660  0.42208875  1
  O  O518  1  0.91292216  0.01844310  0.67329455  1
  O  O519  1  0.91309833  0.01873760  0.92278272  1
  O  O520  1  0.91232243  0.35250036  0.17220945  1
  O  O521  1  0.91200801  0.35063560  0.42234416  1
  O  O522  1  0.91224364  0.35126416  0.67250881  1
  O  O523  1  0.91491586  0.35147905  0.92359097  1
  O  O524  1  0.91169886  0.68459058  0.17133182  1
  O  O525  1  0.91101983  0.68578840  0.42324491  1
  O  O526  1  0.91275651  0.68495876  0.67267606  1
  O  O527  1  0.91331645  0.68497711  0.92313887  1
  O  O528  1  0.16490339  0.01826367  0.20241926  1
  O  O529  1  0.16060558  0.01884208  0.45342448  1
  O  O530  1  0.16057297  0.01744327  0.70250189  1
  O  O531  1  0.16299444  0.01828323  0.95259334  1
  O  O532  1  0.16448162  0.35206645  0.20232595  1
  O  O533  1  0.16279277  0.35077217  0.45330936  1
  O  O534  1  0.16231071  0.35139834  0.70251752  1
  O  O535  1  0.16374400  0.35156365  0.95161910  1
  O  O536  1  0.16254968  0.68428707  0.20347050  1
  O  O537  1  0.16091976  0.68468909  0.45412898  1
  O  O538  1  0.15960311  0.68629038  0.70173849  1
  O  O539  1  0.16282551  0.68508799  0.95222677  1
  O  O540  1  0.66183898  0.01881407  0.20215622  1
  O  O541  1  0.66166646  0.01884572  0.45156513  1
  O  O542  1  0.66410288  0.01864409  0.70243447  1
  O  O543  1  0.66357255  0.01851647  0.95133943  1
  O  O544  1  0.66046571  0.35050151  0.20304465  1
  O  O545  1  0.66062330  0.35073154  0.45336491  1
  O  O546  1  0.66151018  0.35054875  0.70252191  1
  O  O547  1  0.66171438  0.35182702  0.95361549  1
  O  O548  1  0.66060763  0.68551901  0.20198626  1
  O  O549  1  0.66295767  0.68506393  0.45206876  1
  O  O550  1  0.66436114  0.68542258  0.70126496  1
  O  O551  1  0.66442386  0.68454604  0.95309309  1
  O  O552  1  0.33733571  0.31488713  0.04610749  1
  O  O553  1  0.33824985  0.31529655  0.29722271  1
  O  O554  1  0.33702137  0.31483539  0.54882281  1
  O  O555  1  0.33944970  0.31454210  0.79769847  1
  O  O556  1  0.33524486  0.64880896  0.04715495  1
  O  O557  1  0.33608181  0.64760957  0.29829920  1
  O  O558  1  0.33599417  0.64839871  0.54898812  1
  O  O559  1  0.33786712  0.64888940  0.79675005  1
  O  O560  1  0.33659239  0.98156141  0.04714384  1
  O  O561  1  0.33886498  0.98269232  0.29751733  1
  O  O562  1  0.33581026  0.98165289  0.54775879  1
  O  O563  1  0.33454609  0.98156914  0.79762156  1
  O  O564  1  0.83531749  0.31421739  0.04794730  1
  O  O565  1  0.83569745  0.31532615  0.29879950  1
  O  O566  1  0.83642790  0.31479819  0.54821525  1
  O  O567  1  0.83674104  0.31446829  0.79769451  1
  O  O568  1  0.83713679  0.64900061  0.04828700  1
  O  O569  1  0.83763156  0.64804311  0.29712353  1
  O  O570  1  0.83798466  0.64905339  0.54760314  1
  O  O571  1  0.83856421  0.64942403  0.79666591  1
  O  O572  1  0.83876763  0.98194850  0.04732661  1
  O  O573  1  0.83845350  0.98183970  0.29767072  1
  O  O574  1  0.83991188  0.98055823  0.54777269  1
  O  O575  1  0.83946001  0.98186335  0.79642402  1
  O  O576  1  0.41063055  0.14762295  0.17254022  1
  O  O577  1  0.41320721  0.14745414  0.42246074  1
  O  O578  1  0.41313010  0.14938441  0.67196466  1
  O  O579  1  0.41346394  0.14927442  0.92299492  1
  O  O580  1  0.41242184  0.48176024  0.17241521  1
  O  O581  1  0.41408110  0.48179492  0.42203454  1
  O  O582  1  0.41424550  0.48184253  0.67197328  1
  O  O583  1  0.41166692  0.48011986  0.92358608  1
  O  O584  1  0.41292687  0.81546784  0.17149565  1
  O  O585  1  0.41407893  0.81598919  0.42257750  1
  O  O586  1  0.41411362  0.81427055  0.67294324  1
  O  O587  1  0.41105565  0.81539540  0.92295115  1
  O  O588  1  0.91167997  0.14790406  0.17156140  1
  O  O589  1  0.91189429  0.14856668  0.42234333  1
  O  O590  1  0.91296704  0.14857294  0.67356111  1
  O  O591  1  0.91343059  0.14856665  0.92319602  1
  O  O592  1  0.91318258  0.48286343  0.17217200  1
  O  O593  1  0.91185321  0.48074412  0.42245917  1
  O  O594  1  0.91237425  0.48176788  0.67237445  1
  O  O595  1  0.91460793  0.48146816  0.92333117  1
  O  O596  1  0.91152217  0.81498666  0.17096114  1
  O  O597  1  0.91132846  0.81579616  0.42257468  1
  O  O598  1  0.91273339  0.81513287  0.67246813  1
  O  O599  1  0.91299887  0.81480260  0.92285811  1
  O  O600  1  0.08872741  0.18473368  0.07672048  1
  O  O601  1  0.08584283  0.18483335  0.32729855  1
  O  O602  1  0.08554969  0.18377249  0.57724228  1
  O  O603  1  0.08898642  0.18486047  0.82854953  1
  O  O604  1  0.08782419  0.51836268  0.07724583  1
  O  O605  1  0.08878083  0.51816387  0.32712688  1
  O  O606  1  0.08613639  0.51900103  0.57675271  1
  O  O607  1  0.08904208  0.51827215  0.82860765  1
  O  O608  1  0.08682765  0.85185865  0.07660160  1
  O  O609  1  0.08580724  0.85175533  0.32742886  1
  O  O610  1  0.08683460  0.85199555  0.57761207  1
  O  O611  1  0.08924234  0.85149928  0.82811797  1
  O  O612  1  0.58921547  0.18596210  0.07717350  1
  O  O613  1  0.58904499  0.18426854  0.32758299  1
  O  O614  1  0.58824643  0.18586988  0.57709677  1
  O  O615  1  0.58759007  0.18324336  0.82775268  1
  O  O616  1  0.58829078  0.51835408  0.07680607  1
  O  O617  1  0.58758984  0.51888736  0.32734903  1
  O  O618  1  0.58641445  0.51847862  0.57797692  1
  O  O619  1  0.58844295  0.51860991  0.82841448  1
  O  O620  1  0.58531764  0.85094222  0.07671011  1
  O  O621  1  0.58661437  0.85179563  0.32736382  1
  O  O622  1  0.58755085  0.85039739  0.57786415  1
  O  O623  1  0.58794800  0.85311124  0.82771687  1
  O  O624  1  0.33719344  0.18473109  0.04620683  1
  O  O625  1  0.33829311  0.18501077  0.29734401  1
  O  O626  1  0.33668045  0.18487449  0.54899899  1
  O  O627  1  0.33925635  0.18461771  0.79759574  1
  O  O628  1  0.33601098  0.51867585  0.04663329  1
  O  O629  1  0.33612049  0.51739215  0.29764071  1
  O  O630  1  0.33655425  0.51847232  0.54854639  1
  O  O631  1  0.33819804  0.51874423  0.79697253  1
  O  O632  1  0.33600073  0.85147924  0.04767706  1
  O  O633  1  0.33953283  0.85252723  0.29833860  1
  O  O634  1  0.33543580  0.85155494  0.54798950  1
  O  O635  1  0.33447635  0.85165638  0.79744856  1
  O  O636  1  0.83532752  0.18408939  0.04723797  1
  O  O637  1  0.83606522  0.18543335  0.29880058  1
  O  O638  1  0.83667257  0.18491844  0.54803926  1
  O  O639  1  0.83680476  0.18442579  0.79720759  1
  O  O640  1  0.83726917  0.51902701  0.04869665  1
  O  O641  1  0.83721184  0.51793721  0.29731716  1
  O  O642  1  0.83802614  0.51912544  0.54819696  1
  O  O643  1  0.83851255  0.51912541  0.79743289  1
  O  O644  1  0.83867691  0.85179313  0.04775880  1
  O  O645  1  0.83888887  0.85190669  0.29763786  1
  O  O646  1  0.83900295  0.85056757  0.54705899  1
  O  O647  1  0.83996530  0.85153913  0.79621412  1
  O  O648  1  0.16456249  0.14831846  0.20260130  1
  O  O649  1  0.16127729  0.14939892  0.45378499  1
  O  O650  1  0.16032529  0.14735962  0.70192401  1
  O  O651  1  0.16356114  0.14827695  0.95188902  1
  O  O652  1  0.16461612  0.48214972  0.20269480  1
  O  O653  1  0.16231129  0.48119524  0.45371180  1
  O  O654  1  0.16221818  0.48140903  0.70247619  1
  O  O655  1  0.16346752  0.48167258  0.95190744  1
  O  O656  1  0.16242468  0.81446391  0.20275135  1
  O  O657  1  0.16103810  0.81521279  0.45333368  1
  O  O658  1  0.15998393  0.81628457  0.70252033  1
  O  O659  1  0.16265363  0.81523515  0.95259560  1
  O  O660  1  0.66126025  0.14891394  0.20356338  1
  O  O661  1  0.66166629  0.14883731  0.45256628  1
  O  O662  1  0.66361477  0.14876407  0.70313576  1
  O  O663  1  0.66355295  0.14844229  0.95181921  1
  O  O664  1  0.66007017  0.48049202  0.20193309  1
  O  O665  1  0.66001073  0.48087022  0.45230488  1
  O  O666  1  0.66139389  0.48066438  0.70175317  1
  O  O667  1  0.66215256  0.48228050  0.95353902  1
  O  O668  1  0.66088546  0.81538356  0.20168070  1
  O  O669  1  0.66341668  0.81500309  0.45183213  1
  O  O670  1  0.66435110  0.81528287  0.70129102  1
  O  O671  1  0.66440257  0.81476733  0.95245004  1
