# generated using pymatgen
data_Na2MnFe(PO4)2
_symmetry_space_group_name_H-M   'P 1'
_cell_length_a   21.08525995
_cell_length_b   18.93768397
_cell_length_c   20.04413189
_cell_angle_alpha   90.00078464
_cell_angle_beta   90.00165794
_cell_angle_gamma   90.00197467
_symmetry_Int_Tables_number   1
_chemical_formula_structural   Na2MnFe(PO4)2
_chemical_formula_sum   'Na96 Mn48 Fe48 P96 O384'
_cell_volume   8003.74190446
_cell_formula_units_Z   48
loop_
 _symmetry_equiv_pos_site_id
 _symmetry_equiv_pos_as_xyz
  1  'x, y, z'
loop_
 _atom_site_type_symbol
 _atom_site_label
 _atom_site_symmetry_multiplicity
 _atom_site_fract_x
 _atom_site_fract_y
 _atom_site_fract_z
 _atom_site_occupancy
  Na  Na0  1  0.00185262  0.00005143  -0.00079421  1
  Na  Na1  1  0.00020130  -0.00094894  0.24948643  1
  Na  Na2  1  -0.00152439  -0.00172080  0.50115927  1
  Na  Na3  1  0.00037401  -0.00052003  0.75107479  1
  Na  Na4  1  -0.00047733  0.33238451  -0.00041089  1
  Na  Na5  1  -0.00033249  0.33312845  0.25045883  1
  Na  Na6  1  0.00053846  0.33342060  0.50127262  1
  Na  Na7  1  0.00105970  0.33322531  0.74948175  1
  Na  Na8  1  -0.00108597  0.66705907  -0.00116986  1
  Na  Na9  1  0.00101182  0.66806447  0.24958402  1
  Na  Na10  1  -0.00070435  0.66767371  0.50032204  1
  Na  Na11  1  -0.00241692  0.66683857  0.75036130  1
  Na  Na12  1  0.49865232  -0.00032238  -0.00036517  1
  Na  Na13  1  0.49813332  -0.00057657  0.25045741  1
  Na  Na14  1  0.49972610  -0.00049840  0.49997145  1
  Na  Na15  1  0.50037400  -0.00005034  0.75007349  1
  Na  Na16  1  0.50024618  0.33309001  -0.00038039  1
  Na  Na17  1  0.50018038  0.33424658  0.24921326  1
  Na  Na18  1  0.49771919  0.33215032  0.50135784  1
  Na  Na19  1  0.50169419  0.33378762  0.74877720  1
  Na  Na20  1  0.50200831  0.66791914  -0.00102240  1
  Na  Na21  1  0.49673804  0.66579719  0.25075019  1
  Na  Na22  1  0.49760361  0.66662075  0.50061264  1
  Na  Na23  1  0.50062428  0.66720046  0.75002325  1
  Na  Na24  1  0.25152648  0.00026733  0.12487405  1
  Na  Na25  1  0.24939445  -0.00142785  0.37514727  1
  Na  Na26  1  0.25174353  0.00028560  0.62585669  1
  Na  Na27  1  0.24941997  -0.00102858  0.87429631  1
  Na  Na28  1  0.24938672  0.33311837  0.12595243  1
  Na  Na29  1  0.25008801  0.33358203  0.37465972  1
  Na  Na30  1  0.24805382  0.33271254  0.62432527  1
  Na  Na31  1  0.24916437  0.33304517  0.87469066  1
  Na  Na32  1  0.25148801  0.66752529  0.12575289  1
  Na  Na33  1  0.25102868  0.66745743  0.37481689  1
  Na  Na34  1  0.25092920  0.66757541  0.62393902  1
  Na  Na35  1  0.25022692  0.66699331  0.87536013  1
  Na  Na36  1  0.75194892  0.00019766  0.12537005  1
  Na  Na37  1  0.75074380  -0.00114529  0.37467259  1
  Na  Na38  1  0.75113587  0.00012932  0.62501770  1
  Na  Na39  1  0.74844655  -0.00095911  0.87457486  1
  Na  Na40  1  0.75009637  0.33278109  0.12469216  1
  Na  Na41  1  0.75205349  0.33385033  0.37403263  1
  Na  Na42  1  0.74986481  0.33229582  0.62469606  1
  Na  Na43  1  0.75076505  0.33345836  0.87657077  1
  Na  Na44  1  0.74888807  0.66724615  0.12520380  1
  Na  Na45  1  0.75076931  0.66745164  0.37511214  1
  Na  Na46  1  0.75059335  0.66773010  0.62523121  1
  Na  Na47  1  0.74848925  0.66703991  0.87487203  1
  Na  Na48  1  0.00093277  0.16672014  -0.00102341  1
  Na  Na49  1  -0.00114630  0.16804425  0.25043118  1
  Na  Na50  1  0.00011409  0.16691654  0.50105670  1
  Na  Na51  1  0.00009536  0.16693182  0.75021954  1
  Na  Na52  1  -0.00078336  0.50056633  -0.00047909  1
  Na  Na53  1  -0.00016604  0.50041893  0.25021123  1
  Na  Na54  1  -0.00134733  0.50114258  0.50040938  1
  Na  Na55  1  -0.00038350  0.50003246  0.74964354  1
  Na  Na56  1  0.00021180  0.83326242  -0.00077947  1
  Na  Na57  1  0.00067635  0.83313591  0.24875073  1
  Na  Na58  1  -0.00085942  0.83357878  0.50116102  1
  Na  Na59  1  -0.00043423  0.83294318  0.75119907  1
  Na  Na60  1  0.50032734  0.16528327  -0.00022999  1
  Na  Na61  1  0.49667520  0.16727048  0.24905688  1
  Na  Na62  1  0.49970373  0.16626516  0.50054409  1
  Na  Na63  1  0.50026046  0.16604576  0.74962672  1
  Na  Na64  1  0.50019547  0.50045400  -0.00049263  1
  Na  Na65  1  0.49905567  0.50007476  0.24968422  1
  Na  Na66  1  0.49671703  0.50146987  0.50146773  1
  Na  Na67  1  0.50068330  0.50021575  0.75003073  1
  Na  Na68  1  0.50100622  0.83289179  -0.00098776  1
  Na  Na69  1  0.49932529  0.83299517  0.25161792  1
  Na  Na70  1  0.49917266  0.83343773  0.49998306  1
  Na  Na71  1  0.50194028  0.83285493  0.74921578  1
  Na  Na72  1  0.25120134  0.16586436  0.12524509  1
  Na  Na73  1  0.25146142  0.16589641  0.37546848  1
  Na  Na74  1  0.24842306  0.16699354  0.62469673  1
  Na  Na75  1  0.24876464  0.16664175  0.87508365  1
  Na  Na76  1  0.25280957  0.49929711  0.12632042  1
  Na  Na77  1  0.25066323  0.50056952  0.37394108  1
  Na  Na78  1  0.25269224  0.49974083  0.62459113  1
  Na  Na79  1  0.25210835  0.50022818  0.87447021  1
  Na  Na80  1  0.24812833  0.83380835  0.12501408  1
  Na  Na81  1  0.25020668  0.83220766  0.37506832  1
  Na  Na82  1  0.24970557  0.83283850  0.62477734  1
  Na  Na83  1  0.24866372  0.83348507  0.87489765  1
  Na  Na84  1  0.75064713  0.16701193  0.12461243  1
  Na  Na85  1  0.75188591  0.16650117  0.37482573  1
  Na  Na86  1  0.75086475  0.16644176  0.62479364  1
  Na  Na87  1  0.75011991  0.16653375  0.87582244  1
  Na  Na88  1  0.74904120  0.50076096  0.12544983  1
  Na  Na89  1  0.75098359  0.50014597  0.37404743  1
  Na  Na90  1  0.75200714  0.49932983  0.62493374  1
  Na  Na91  1  0.74729149  0.50163216  0.87500353  1
  Na  Na92  1  0.75069279  0.83308169  0.12536066  1
  Na  Na93  1  0.75119312  0.83320484  0.37499183  1
  Na  Na94  1  0.74919839  0.83376738  0.62487941  1
  Na  Na95  1  0.74968577  0.83309662  0.87520215  1
  Mn  Mn96  1  0.89260500  0.58383057  0.37749519  1
  Mn  Mn97  1  0.14264729  0.58294223  0.99832557  1
  Mn  Mn98  1  0.39169606  0.24951001  0.62788221  1
  Mn  Mn99  1  0.64205910  0.24974096  0.24820298  1
  Mn  Mn100  1  0.10738991  0.74974356  0.87251861  1
  Mn  Mn101  1  0.10845083  0.08325715  0.12256079  1
  Mn  Mn102  1  0.60723625  0.41657428  0.37379220  1
  Mn  Mn103  1  0.89225491  0.91740952  0.87729978  1
  Mn  Mn104  1  0.64255529  0.25002943  0.49676018  1
  Mn  Mn105  1  0.14222724  0.24896225  0.24833281  1
  Mn  Mn106  1  0.10787212  0.41832539  0.62234827  1
  Mn  Mn107  1  0.10789614  0.41754641  0.12223391  1
  Mn  Mn108  1  0.35750863  0.08313120  0.50283040  1
  Mn  Mn109  1  0.64188746  0.91653860  0.99876498  1
  Mn  Mn110  1  0.85833608  0.08295432  0.50245360  1
  Mn  Mn111  1  0.89260022  0.24977238  0.62793484  1
  Mn  Mn112  1  0.89078948  0.58259789  0.87742767  1
  Mn  Mn113  1  0.14188570  0.91666049  0.49838524  1
  Mn  Mn114  1  0.39194232  0.24983980  0.87681437  1
  Mn  Mn115  1  0.14258594  0.58375290  0.24748086  1
  Mn  Mn116  1  0.64107112  0.58355221  0.24802633  1
  Mn  Mn117  1  0.14236416  0.58394183  0.74730191  1
  Mn  Mn118  1  0.35772512  0.41623902  0.75242094  1
  Mn  Mn119  1  0.60701954  0.74942541  0.37352266  1
  Mn  Mn120  1  0.85754010  0.41776576  0.00275882  1
  Mn  Mn121  1  0.35847510  0.41644661  0.25296417  1
  Mn  Mn122  1  0.35828592  0.75020219  0.00256672  1
  Mn  Mn123  1  0.85898437  0.08324612  0.25211232  1
  Mn  Mn124  1  0.64216300  0.91691180  0.24760022  1
  Mn  Mn125  1  0.10758579  0.08287060  0.37257453  1
  Mn  Mn126  1  0.64226294  0.24983163  0.99769242  1
  Mn  Mn127  1  0.39164873  0.24995292  0.12680844  1
  Mn  Mn128  1  0.10749463  0.08229053  0.62333500  1
  Mn  Mn129  1  0.85803937  0.41692830  0.25178386  1
  Mn  Mn130  1  0.60675798  0.08266551  0.12294866  1
  Mn  Mn131  1  0.39147259  0.91650810  0.37780996  1
  Mn  Mn132  1  0.85737779  0.41629898  0.75274245  1
  Mn  Mn133  1  0.60799546  0.41596858  0.87248674  1
  Mn  Mn134  1  0.64260153  0.58336841  0.49782027  1
  Mn  Mn135  1  0.60806979  0.08251948  0.62292303  1
  Mn  Mn136  1  0.39322265  0.58361864  0.87711080  1
  Mn  Mn137  1  0.60747832  0.08401596  0.37247606  1
  Mn  Mn138  1  0.14253904  0.58302830  0.49810041  1
  Mn  Mn139  1  0.10845978  0.41685227  0.87321451  1
  Mn  Mn140  1  0.85842137  0.08255209  0.00215408  1
  Mn  Mn141  1  0.85840812  0.75006519  0.25173169  1
  Mn  Mn142  1  0.39261632  0.91652350  0.87656520  1
  Mn  Mn143  1  0.60797329  0.41724534  0.62188102  1
  Fe  Fe144  1  0.89210185  0.58418697  0.62678143  1
  Fe  Fe145  1  0.39308055  0.91598238  0.62716941  1
  Fe  Fe146  1  0.35734130  0.75079342  0.75126907  1
  Fe  Fe147  1  0.60700519  0.75016797  0.62289215  1
  Fe  Fe148  1  0.35680182  0.08284592  0.75202139  1
  Fe  Fe149  1  0.10816184  0.08355495  0.87285002  1
  Fe  Fe150  1  0.64345646  0.91658076  0.49849469  1
  Fe  Fe151  1  0.85852268  0.41719895  0.50142075  1
  Fe  Fe152  1  0.89202545  0.58363715  0.12631431  1
  Fe  Fe153  1  0.35696491  0.75082822  0.25126678  1
  Fe  Fe154  1  0.39198381  0.25052850  0.37713240  1
  Fe  Fe155  1  0.14258507  0.91639206  0.24831692  1
  Fe  Fe156  1  0.60702902  0.41726702  0.12324937  1
  Fe  Fe157  1  0.64300897  0.91713662  0.74764656  1
  Fe  Fe158  1  0.10635155  0.74989254  0.62392340  1
  Fe  Fe159  1  0.60747418  0.08316643  0.87287260  1
  Fe  Fe160  1  0.35710707  0.08252381  0.25194054  1
  Fe  Fe161  1  0.64279841  0.58345595  0.74730857  1
  Fe  Fe162  1  0.39332957  0.58408488  0.12583923  1
  Fe  Fe163  1  0.35691688  0.74988314  0.50261031  1
  Fe  Fe164  1  0.35677969  0.41676035  0.50140185  1
  Fe  Fe165  1  0.85585888  0.75048974  0.75139696  1
  Fe  Fe166  1  0.89314364  0.25000487  0.12622941  1
  Fe  Fe167  1  0.39157483  0.91529382  0.12665284  1
  Fe  Fe168  1  0.14257230  0.24963404  0.74852245  1
  Fe  Fe169  1  0.89333422  0.25007853  0.37710898  1
  Fe  Fe170  1  0.64338285  0.24961187  0.74885726  1
  Fe  Fe171  1  0.10733286  0.41739327  0.37416391  1
  Fe  Fe172  1  0.64212959  0.58382113  0.99924109  1
  Fe  Fe173  1  0.60818858  0.75084231  0.87242062  1
  Fe  Fe174  1  0.85790176  0.74995842  0.50218894  1
  Fe  Fe175  1  0.89337965  0.24973514  0.87634515  1
  Fe  Fe176  1  0.85641480  0.74987626  0.00190379  1
  Fe  Fe177  1  0.85701891  0.08312510  0.75232699  1
  Fe  Fe178  1  0.39179529  0.58258411  0.37747723  1
  Fe  Fe179  1  0.14300154  0.91706966  0.99854000  1
  Fe  Fe180  1  0.35682209  0.08346786  0.00082666  1
  Fe  Fe181  1  0.10746774  0.74990405  0.37373828  1
  Fe  Fe182  1  0.14310438  0.91618219  0.74794233  1
  Fe  Fe183  1  0.89392299  0.91660470  0.12630148  1
  Fe  Fe184  1  0.14254274  0.24983881  0.99854332  1
  Fe  Fe185  1  0.39284982  0.58446138  0.62742488  1
  Fe  Fe186  1  0.35783163  0.41606426  0.00153202  1
  Fe  Fe187  1  0.89333574  0.91668392  0.37662005  1
  Fe  Fe188  1  0.10722988  0.74953630  0.12300038  1
  Fe  Fe189  1  0.60652952  0.75007627  0.12405740  1
  Fe  Fe190  1  0.89203721  0.91599842  0.62772018  1
  Fe  Fe191  1  0.14278346  0.25033880  0.49786464  1
  P  P192  1  0.05306825  0.25008481  0.10946247  1
  P  P193  1  0.05365869  0.25095578  0.36173776  1
  P  P194  1  0.05576871  0.24981921  0.61075823  1
  P  P195  1  0.05483248  0.24937505  0.86050905  1
  P  P196  1  0.05183534  0.58445740  0.10973987  1
  P  P197  1  0.05376164  0.58392467  0.36037809  1
  P  P198  1  0.05177145  0.58515605  0.61025165  1
  P  P199  1  0.05280902  0.58333618  0.85965110  1
  P  P200  1  0.05465924  0.91573753  0.11023881  1
  P  P201  1  0.05308740  0.91539824  0.35969419  1
  P  P202  1  0.05297714  0.91532409  0.61210293  1
  P  P203  1  0.05573883  0.91733524  0.86064180  1
  P  P204  1  0.55297656  0.25027740  0.10985756  1
  P  P205  1  0.55118041  0.25028302  0.35984891  1
  P  P206  1  0.55474863  0.24935867  0.61094660  1
  P  P207  1  0.55384605  0.24873341  0.85902401  1
  P  P208  1  0.55256332  0.58405044  0.10992162  1
  P  P209  1  0.55122749  0.58312835  0.36068343  1
  P  P210  1  0.55360731  0.58471732  0.61115446  1
  P  P211  1  0.55596598  0.58428291  0.86030091  1
  P  P212  1  0.55098706  0.91556891  0.11053516  1
  P  P213  1  0.55422390  0.91655221  0.36139052  1
  P  P214  1  0.55436394  0.91579005  0.61047298  1
  P  P215  1  0.55465535  0.91700548  0.85896225  1
  P  P216  1  0.44363007  0.08180311  0.13903048  1
  P  P217  1  0.44494132  0.08399708  0.38918759  1
  P  P218  1  0.44573937  0.08198034  0.64085421  1
  P  P219  1  0.44592927  0.08312744  0.88900698  1
  P  P220  1  0.44631219  0.41749074  0.13833333  1
  P  P221  1  0.44579404  0.41647309  0.39116341  1
  P  P222  1  0.44513348  0.41753256  0.63903746  1
  P  P223  1  0.44632889  0.41636373  0.89039105  1
  P  P224  1  0.44699354  0.75012111  0.14071848  1
  P  P225  1  0.44398986  0.74924714  0.38983206  1
  P  P226  1  0.44590558  0.75051273  0.63946118  1
  P  P227  1  0.44737005  0.75054941  0.88816835  1
  P  P228  1  0.94753056  0.08317492  0.13943373  1
  P  P229  1  0.94718664  0.08279739  0.39024971  1
  P  P230  1  0.94574366  0.08206997  0.64146508  1
  P  P231  1  0.94707741  0.08396855  0.88862089  1
  P  P232  1  0.94673779  0.41692748  0.13969411  1
  P  P233  1  0.94756527  0.41633755  0.39064110  1
  P  P234  1  0.94543254  0.41774380  0.63919985  1
  P  P235  1  0.94659708  0.41547253  0.88989961  1
  P  P236  1  0.94640039  0.75009377  0.13796154  1
  P  P237  1  0.94741387  0.75119734  0.39042362  1
  P  P238  1  0.94505186  0.75023337  0.64000282  1
  P  P239  1  0.94378286  0.75028920  0.88939225  1
  P  P240  1  0.19784169  0.08212117  0.23533120  1
  P  P241  1  0.19638976  0.08334412  0.48517913  1
  P  P242  1  0.19640602  0.08269274  0.73625040  1
  P  P243  1  0.19703330  0.08298076  0.98468316  1
  P  P244  1  0.19558418  0.41667650  0.23633499  1
  P  P245  1  0.19725832  0.41684730  0.48423978  1
  P  P246  1  0.19669085  0.41654730  0.73470014  1
  P  P247  1  0.19850944  0.41647932  0.98530345  1
  P  P248  1  0.19556920  0.75074603  0.23565758  1
  P  P249  1  0.19588355  0.74979703  0.48581742  1
  P  P250  1  0.19700443  0.75057363  0.73420393  1
  P  P251  1  0.19548213  0.75035360  0.98636437  1
  P  P252  1  0.69717769  0.08344772  0.23461466  1
  P  P253  1  0.69694682  0.08213207  0.48476204  1
  P  P254  1  0.69684007  0.08348568  0.73628261  1
  P  P255  1  0.69610973  0.08281018  0.98452812  1
  P  P256  1  0.69564022  0.41657203  0.23427567  1
  P  P257  1  0.69888044  0.41706617  0.48453254  1
  P  P258  1  0.69641308  0.41611772  0.73493976  1
  P  P259  1  0.69512563  0.41779471  0.98653147  1
  P  P260  1  0.69570802  0.75021682  0.23459690  1
  P  P261  1  0.69694644  0.75079060  0.48632024  1
  P  P262  1  0.69527944  0.75059546  0.73533472  1
  P  P263  1  0.69525011  0.74961341  0.98603719  1
  P  P264  1  0.30187824  0.24981540  0.01457687  1
  P  P265  1  0.30405438  0.24908830  0.26560810  1
  P  P266  1  0.30307432  0.25101150  0.51401134  1
  P  P267  1  0.30178489  0.24886805  0.76484416  1
  P  P268  1  0.30442489  0.58276663  0.01568395  1
  P  P269  1  0.30580832  0.58481359  0.26413691  1
  P  P270  1  0.30527162  0.58337449  0.51427627  1
  P  P271  1  0.30491937  0.58515708  0.76376465  1
  P  P272  1  0.30277822  0.91712064  0.01485537  1
  P  P273  1  0.30322424  0.91586273  0.26382062  1
  P  P274  1  0.30377253  0.91554835  0.51617121  1
  P  P275  1  0.30372798  0.91589904  0.76355651  1
  P  P276  1  0.80545567  0.24975273  0.01444611  1
  P  P277  1  0.80571684  0.25003300  0.26445034  1
  P  P278  1  0.80529130  0.25078038  0.51392643  1
  P  P279  1  0.80310904  0.24900811  0.76596827  1
  P  P280  1  0.80193582  0.58465132  0.01566716  1
  P  P281  1  0.80418065  0.58384324  0.26401592  1
  P  P282  1  0.80439466  0.58383840  0.51541322  1
  P  P283  1  0.80269315  0.58442729  0.76368899  1
  P  P284  1  0.80399971  0.91577634  0.01550548  1
  P  P285  1  0.80577068  0.91641541  0.26451928  1
  P  P286  1  0.80477008  0.91559727  0.51463518  1
  P  P287  1  0.80326789  0.91648232  0.76394585  1
  O  O288  1  0.05691887  0.24991588  0.18621448  1
  O  O289  1  0.05856758  0.25018739  0.43843047  1
  O  O290  1  0.06009455  0.24967646  0.68759130  1
  O  O291  1  0.05963471  0.24990232  0.93724136  1
  O  O292  1  0.05608196  0.58404233  0.18644241  1
  O  O293  1  0.05648845  0.58391462  0.43711346  1
  O  O294  1  0.05567889  0.58426864  0.68690858  1
  O  O295  1  0.05673039  0.58353090  0.93635188  1
  O  O296  1  0.05913577  0.91657442  0.18697583  1
  O  O297  1  0.05637816  0.91613795  0.43646127  1
  O  O298  1  0.05826682  0.91597543  0.68870333  1
  O  O299  1  0.05993828  0.91673506  0.93741285  1
  O  O300  1  0.55587297  0.24986834  0.18662703  1
  O  O301  1  0.55544007  0.24991177  0.43660368  1
  O  O302  1  0.55978849  0.24941182  0.68762384  1
  O  O303  1  0.55665315  0.24921948  0.93582985  1
  O  O304  1  0.55523109  0.58372562  0.18649944  1
  O  O305  1  0.55556522  0.58354985  0.43741685  1
  O  O306  1  0.55888294  0.58385568  0.68780346  1
  O  O307  1  0.55954306  0.58381663  0.93714077  1
  O  O308  1  0.55478809  0.91642862  0.18702658  1
  O  O309  1  0.55897047  0.91649356  0.43814740  1
  O  O310  1  0.55940024  0.91684940  0.68712307  1
  O  O311  1  0.55698797  0.91684422  0.93624021  1
  O  O312  1  0.43969031  0.08275389  0.06214388  1
  O  O313  1  0.44072008  0.08294945  0.31241451  1
  O  O314  1  0.44269291  0.08286871  0.56400979  1
  O  O315  1  0.44053975  0.08320222  0.81237585  1
  O  O316  1  0.44158393  0.41631847  0.06164101  1
  O  O317  1  0.44381765  0.41648146  0.31428134  1
  O  O318  1  0.44046692  0.41646383  0.56233853  1
  O  O319  1  0.44314324  0.41627710  0.81357986  1
  O  O320  1  0.44425568  0.75060233  0.06327420  1
  O  O321  1  0.44017560  0.75048239  0.31327136  1
  O  O322  1  0.44128083  0.75055969  0.56275153  1
  O  O323  1  0.44209130  0.75072775  0.81192683  1
  O  O324  1  0.94503619  0.08292827  0.06264814  1
  O  O325  1  0.94490105  0.08305054  0.31346576  1
  O  O326  1  0.94305052  0.08270235  0.56465434  1
  O  O327  1  0.94165747  0.08308902  0.81200628  1
  O  O328  1  0.94388189  0.41704074  0.06291709  1
  O  O329  1  0.94397591  0.41681033  0.31391803  1
  O  O330  1  0.94156225  0.41712238  0.56244217  1
  O  O331  1  0.94342146  0.41620378  0.81309366  1
  O  O332  1  0.94158605  0.74996061  0.06137711  1
  O  O333  1  0.94407287  0.75035128  0.31368523  1
  O  O334  1  0.94118052  0.75052887  0.56324570  1
  O  O335  1  0.93906517  0.75030170  0.81262116  1
  O  O336  1  0.19396627  0.08297778  0.06139203  1
  O  O337  1  0.19390616  0.08259726  0.31202377  1
  O  O338  1  0.19327863  0.08257537  0.56196526  1
  O  O339  1  0.19220778  0.08275837  0.81298229  1
  O  O340  1  0.19474869  0.41733193  0.06204486  1
  O  O341  1  0.19075782  0.41726544  0.31303714  1
  O  O342  1  0.19356238  0.41782704  0.56098043  1
  O  O343  1  0.19392688  0.41759777  0.81150055  1
  O  O344  1  0.19138229  0.74946112  0.06291393  1
  O  O345  1  0.19109074  0.74991562  0.31239157  1
  O  O346  1  0.19049581  0.74978757  0.56242134  1
  O  O347  1  0.19325188  0.74965849  0.81096481  1
  O  O348  1  0.69261156  0.08289249  0.06127767  1
  O  O349  1  0.69373133  0.08337548  0.31138791  1
  O  O350  1  0.69387172  0.08284387  0.56157030  1
  O  O351  1  0.69222016  0.08323069  0.81291072  1
  O  O352  1  0.69081820  0.41700504  0.06327342  1
  O  O353  1  0.69263804  0.41666817  0.31109158  1
  O  O354  1  0.69450902  0.41689827  0.56123502  1
  O  O355  1  0.69372852  0.41636877  0.81176117  1
  O  O356  1  0.69032667  0.75058370  0.06269061  1
  O  O357  1  0.69245595  0.75007008  0.31139481  1
  O  O358  1  0.69182233  0.75016855  0.56294974  1
  O  O359  1  0.69148786  0.75058331  0.81211134  1
  O  O360  1  0.30678108  0.25023044  0.18886451  1
  O  O361  1  0.30785536  0.25037385  0.43735568  1
  O  O362  1  0.30532894  0.24932269  0.68818181  1
  O  O363  1  0.30527047  0.25006144  0.93787040  1
  O  O364  1  0.31018338  0.58388788  0.18736855  1
  O  O365  1  0.30827789  0.58345089  0.43740930  1
  O  O366  1  0.30894371  0.58474955  0.68697644  1
  O  O367  1  0.30743604  0.58391439  0.93889571  1
  O  O368  1  0.30743580  0.91550390  0.18709848  1
  O  O369  1  0.30630322  0.91608747  0.43932086  1
  O  O370  1  0.30846574  0.91581406  0.68696334  1
  O  O371  1  0.30658367  0.91585597  0.93822512  1
  O  O372  1  0.81005429  0.24992712  0.18765381  1
  O  O373  1  0.80977187  0.25031348  0.43715047  1
  O  O374  1  0.80668905  0.24950640  0.68918996  1
  O  O375  1  0.80988971  0.24965565  0.93773923  1
  O  O376  1  0.80872741  0.58406513  0.18726597  1
  O  O377  1  0.80713969  0.58401870  0.43856078  1
  O  O378  1  0.80782110  0.58394357  0.68708445  1
  O  O379  1  0.80516847  0.58375661  0.93888810  1
  O  O380  1  0.81062289  0.91640931  0.18777930  1
  O  O381  1  0.80945329  0.91607255  0.43795638  1
  O  O382  1  0.80773725  0.91649468  0.68719021  1
  O  O383  1  0.80648818  0.91678530  0.93887512  1
  O  O384  1  0.23195142  0.24938580  0.03985404  1
  O  O385  1  0.23432821  0.24955520  0.29077450  1
  O  O386  1  0.23270285  0.25052147  0.53768661  1
  O  O387  1  0.23177288  0.24939450  0.78953550  1
  O  O388  1  0.23490016  0.58347378  0.04119868  1
  O  O389  1  0.23562148  0.58413741  0.28795064  1
  O  O390  1  0.23537466  0.58353893  0.53911585  1
  O  O391  1  0.23500985  0.58437574  0.78830432  1
  O  O392  1  0.23269333  0.91708639  0.03929444  1
  O  O393  1  0.23309199  0.91557900  0.28833915  1
  O  O394  1  0.23407183  0.91648430  0.54122876  1
  O  O395  1  0.23344162  0.91587069  0.78754123  1
  O  O396  1  0.73524495  0.24963726  0.03810770  1
  O  O397  1  0.73561747  0.25001809  0.28844109  1
  O  O398  1  0.73525110  0.24963409  0.53801020  1
  O  O399  1  0.73307050  0.24975230  0.79054927  1
  O  O400  1  0.73192345  0.58420873  0.04033397  1
  O  O401  1  0.73421028  0.58382170  0.28818749  1
  O  O402  1  0.73472059  0.58380459  0.54073782  1
  O  O403  1  0.73228399  0.58435027  0.78717311  1
  O  O404  1  0.73418622  0.91662522  0.04097426  1
  O  O405  1  0.73557593  0.91617294  0.28801924  1
  O  O406  1  0.73441965  0.91649114  0.53844748  1
  O  O407  1  0.73296872  0.91632648  0.78778009  1
  O  O408  1  0.26781733  0.08269926  0.21077268  1
  O  O409  1  0.26610078  0.08250487  0.46020066  1
  O  O410  1  0.26659234  0.08280708  0.71193637  1
  O  O411  1  0.26708903  0.08283751  0.95973140  1
  O  O412  1  0.26586946  0.41634445  0.21295028  1
  O  O413  1  0.26732225  0.41716265  0.45982028  1
  O  O414  1  0.26628485  0.41629452  0.70930186  1
  O  O415  1  0.26842952  0.41650812  0.96033505  1
  O  O416  1  0.26594116  0.75059885  0.21196972  1
  O  O417  1  0.26644658  0.74971512  0.46284080  1
  O  O418  1  0.26708732  0.75057777  0.70988787  1
  O  O419  1  0.26573598  0.75021897  0.96191462  1
  O  O420  1  0.76691829  0.08349993  0.20978082  1
  O  O421  1  0.76667028  0.08246854  0.45977445  1
  O  O422  1  0.76711069  0.08318995  0.71211101  1
  O  O423  1  0.76597144  0.08254031  0.96001167  1
  O  O424  1  0.76542885  0.41658794  0.20939269  1
  O  O425  1  0.76893971  0.41740609  0.46021760  1
  O  O426  1  0.76607298  0.41591231  0.70961804  1
  O  O427  1  0.76509227  0.41765516  0.96215241  1
  O  O428  1  0.76559295  0.75033891  0.21007788  1
  O  O429  1  0.76732092  0.75026107  0.46264688  1
  O  O430  1  0.76564849  0.75071582  0.71136658  1
  O  O431  1  0.76556087  0.75016484  0.96226924  1
  O  O432  1  0.01701340  0.08345401  0.16536472  1
  O  O433  1  0.01656270  0.08251051  0.41645953  1
  O  O434  1  0.01550299  0.08263800  0.66640508  1
  O  O435  1  0.01750678  0.08355460  0.91204986  1
  O  O436  1  0.01627256  0.41695396  0.16537488  1
  O  O437  1  0.01760977  0.41719048  0.41541611  1
  O  O438  1  0.01543441  0.41714842  0.66350507  1
  O  O439  1  0.01621154  0.41620958  0.91514172  1
  O  O440  1  0.01665402  0.75038094  0.16208826  1
  O  O441  1  0.01744569  0.75053079  0.41514854  1
  O  O442  1  0.01524567  0.75012634  0.66441341  1
  O  O443  1  0.01413383  0.75031346  0.91252822  1
  O  O444  1  0.51362952  0.08288534  0.16342588  1
  O  O445  1  0.51480800  0.08326509  0.41380714  1
  O  O446  1  0.51561053  0.08261172  0.66535497  1
  O  O447  1  0.51640398  0.08253817  0.91218881  1
  O  O448  1  0.51658736  0.41753794  0.16231452  1
  O  O449  1  0.51515506  0.41682197  0.41745291  1
  O  O450  1  0.51527378  0.41756638  0.66289001  1
  O  O451  1  0.51616271  0.41650157  0.91489826  1
  O  O452  1  0.51670449  0.74965996  0.16581382  1
  O  O453  1  0.51402909  0.74989490  0.41436784  1
  O  O454  1  0.51633039  0.75023570  0.66304248  1
  O  O455  1  0.51778672  0.75085806  0.91163144  1
  O  O456  1  0.48331916  0.24946507  0.08451106  1
  O  O457  1  0.48120409  0.25079506  0.33533533  1
  O  O458  1  0.48442844  0.24891587  0.58774473  1
  O  O459  1  0.48418731  0.24983338  0.83372563  1
  O  O460  1  0.48265339  0.58431536  0.08441793  1
  O  O461  1  0.48113442  0.58271318  0.33652352  1
  O  O462  1  0.48309603  0.58473942  0.58812267  1
  O  O463  1  0.48591095  0.58347563  0.83604823  1
  O  O464  1  0.48114876  0.91565156  0.08525914  1
  O  O465  1  0.48401111  0.91643330  0.33786540  1
  O  O466  1  0.48384572  0.91619754  0.58724196  1
  O  O467  1  0.48505929  0.91665380  0.83388930  1
  O  O468  1  0.98294011  0.24978217  0.08521992  1
  O  O469  1  0.98334002  0.25053865  0.33794782  1
  O  O470  1  0.98548788  0.24987738  0.58748023  1
  O  O471  1  0.98448233  0.24977674  0.83671906  1
  O  O472  1  0.98175479  0.58402800  0.08524470  1
  O  O473  1  0.98415447  0.58426833  0.33484446  1
  O  O474  1  0.98177726  0.58492974  0.58572812  1
  O  O475  1  0.98287774  0.58329198  0.83530463  1
  O  O476  1  0.98432256  0.91621346  0.08629722  1
  O  O477  1  0.98310403  0.91599169  0.33491216  1
  O  O478  1  0.98260115  0.91561486  0.58864604  1
  O  O479  1  0.98552544  0.91656199  0.83704868  1
  O  O480  1  0.08683502  0.31511025  0.07659045  1
  O  O481  1  0.08675874  0.31610635  0.32867638  1
  O  O482  1  0.08930928  0.31479051  0.57751311  1
  O  O483  1  0.08843399  0.31425256  0.82710030  1
  O  O484  1  0.08554682  0.64946464  0.07702479  1
  O  O485  1  0.08798550  0.64909697  0.32818021  1
  O  O486  1  0.08560258  0.65032092  0.57788252  1
  O  O487  1  0.08650628  0.64846893  0.82682680  1
  O  O488  1  0.08832085  0.98067303  0.07684460  1
  O  O489  1  0.08749194  0.98012929  0.32667059  1
  O  O490  1  0.08613779  0.98025768  0.57829730  1
  O  O491  1  0.08899659  0.98255812  0.82764154  1
  O  O492  1  0.58672009  0.31560644  0.07762852  1
  O  O493  1  0.58533253  0.31536187  0.32763306  1
  O  O494  1  0.58765302  0.31457634  0.57736560  1
  O  O495  1  0.58877948  0.31341305  0.82663231  1
  O  O496  1  0.58675448  0.64926831  0.07761416  1
  O  O497  1  0.58462405  0.64822323  0.32762448  1
  O  O498  1  0.58663798  0.64991026  0.57785949  1
  O  O499  1  0.58920587  0.64961250  0.82748906  1
  O  O500  1  0.58502997  0.98045156  0.07736941  1
  O  O501  1  0.58742545  0.98152091  0.32784990  1
  O  O502  1  0.58795192  0.98052006  0.57671323  1
  O  O503  1  0.58877402  0.98216555  0.82693573  1
  O  O504  1  0.41055955  0.01625521  0.17175728  1
  O  O505  1  0.41096981  0.01913817  0.42234217  1
  O  O506  1  0.41204666  0.01655088  0.67298885  1
  O  O507  1  0.41224526  0.01827321  0.92235862  1
  O  O508  1  0.41297615  0.35259894  0.17204024  1
  O  O509  1  0.41128770  0.35132960  0.42314519  1
  O  O510  1  0.41197586  0.35238204  0.67254367  1
  O  O511  1  0.41225327  0.35133229  0.92296217  1
  O  O512  1  0.41243656  0.68518066  0.17227761  1
  O  O513  1  0.41067520  0.68383934  0.42251392  1
  O  O514  1  0.41223996  0.68571029  0.67285736  1
  O  O515  1  0.41440179  0.68547881  0.92206568  1
  O  O516  1  0.91348337  0.01787674  0.17156509  1
  O  O517  1  0.91284400  0.01744275  0.42199299  1
  O  O518  1  0.91166617  0.01690216  0.67364984  1
  O  O519  1  0.91386613  0.01905625  0.92236999  1
  O  O520  1  0.91275481  0.35162119  0.17180147  1
  O  O521  1  0.91385966  0.35130691  0.42344949  1
  O  O522  1  0.91179210  0.35273219  0.67235936  1
  O  O523  1  0.91280354  0.35018734  0.92189731  1
  O  O524  1  0.91316506  0.68509716  0.17160158  1
  O  O525  1  0.91292207  0.68655241  0.42339039  1
  O  O526  1  0.91115911  0.68515291  0.67277475  1
  O  O527  1  0.91026544  0.68533897  0.92271066  1
  O  O528  1  0.16431679  0.01694613  0.20266639  1
  O  O529  1  0.16208807  0.01834639  0.45277564  1
  O  O530  1  0.16310219  0.01744663  0.70309110  1
  O  O531  1  0.16294713  0.01800121  0.95205824  1
  O  O532  1  0.16220085  0.35153303  0.20342872  1
  O  O533  1  0.16320926  0.35179922  0.45186528  1
  O  O534  1  0.16231754  0.35137623  0.70312323  1
  O  O535  1  0.16441558  0.35128394  0.95321093  1
  O  O536  1  0.16211599  0.68591194  0.20182631  1
  O  O537  1  0.16273705  0.68489265  0.45203967  1
  O  O538  1  0.16304893  0.68579663  0.70088795  1
  O  O539  1  0.16203244  0.68547233  0.95277951  1
  O  O540  1  0.66319749  0.01829995  0.20207983  1
  O  O541  1  0.66309313  0.01674560  0.45284674  1
  O  O542  1  0.66340192  0.01844962  0.70281172  1
  O  O543  1  0.66186252  0.01770228  0.95206182  1
  O  O544  1  0.66137624  0.35163397  0.20179553  1
  O  O545  1  0.66520517  0.35197965  0.45167286  1
  O  O546  1  0.66233934  0.35086245  0.70291768  1
  O  O547  1  0.66167579  0.35277058  0.95314442  1
  O  O548  1  0.66154047  0.68529667  0.20200406  1
  O  O549  1  0.66347668  0.68584236  0.45272630  1
  O  O550  1  0.66181565  0.68561855  0.70198285  1
  O  O551  1  0.66207893  0.68443471  0.95292652  1
  O  O552  1  0.33574279  0.31479089  0.04745539  1
  O  O553  1  0.33856926  0.31391199  0.29832784  1
  O  O554  1  0.33609367  0.31622277  0.54718722  1
  O  O555  1  0.33579597  0.31383449  0.79756812  1
  O  O556  1  0.33920838  0.64775858  0.04820922  1
  O  O557  1  0.33877046  0.65018492  0.29691420  1
  O  O558  1  0.33925662  0.64847639  0.54708873  1
  O  O559  1  0.33816220  0.65050533  0.79662965  1
  O  O560  1  0.33671528  0.98218738  0.04703303  1
  O  O561  1  0.33660621  0.98109506  0.29680691  1
  O  O562  1  0.33873353  0.98010081  0.54860627  1
  O  O563  1  0.33694089  0.98103880  0.79688559  1
  O  O564  1  0.83882604  0.31480950  0.04775893  1
  O  O565  1  0.83933453  0.31509768  0.29751030  1
  O  O566  1  0.83821617  0.31615360  0.54695836  1
  O  O567  1  0.83750853  0.31378623  0.79873573  1
  O  O568  1  0.83581966  0.64985076  0.04799929  1
  O  O569  1  0.83779216  0.64881230  0.29717372  1
  O  O570  1  0.83858289  0.64900721  0.54778873  1
  O  O571  1  0.83573897  0.64953656  0.79697680  1
  O  O572  1  0.83894434  0.98033681  0.04809021  1
  O  O573  1  0.83925884  0.98137624  0.29791056  1
  O  O574  1  0.83869203  0.98025382  0.54824184  1
  O  O575  1  0.83663365  0.98151813  0.79732069  1
  O  O576  1  0.40927477  0.14641430  0.17211904  1
  O  O577  1  0.41172575  0.14950626  0.42179277  1
  O  O578  1  0.41115373  0.14664324  0.67365043  1
  O  O579  1  0.41289208  0.14819931  0.92265567  1
  O  O580  1  0.41302648  0.48269702  0.17123242  1
  O  O581  1  0.41084039  0.48141596  0.42293075  1
  O  O582  1  0.41179777  0.48288125  0.67169893  1
  O  O583  1  0.41216804  0.48130252  0.92286734  1
  O  O584  1  0.41269311  0.81502204  0.17304630  1
  O  O585  1  0.40992562  0.81391316  0.42345632  1
  O  O586  1  0.41285273  0.81571673  0.67298130  1
  O  O587  1  0.41392553  0.81536674  0.92212402  1
  O  O588  1  0.91313925  0.14822611  0.17148949  1
  O  O589  1  0.91295432  0.14786407  0.42246715  1
  O  O590  1  0.91134009  0.14702890  0.67394920  1
  O  O591  1  0.91401727  0.14914655  0.92173374  1
  O  O592  1  0.91247029  0.48212565  0.17182576  1
  O  O593  1  0.91318495  0.48127646  0.42318876  1
  O  O594  1  0.91209445  0.48313365  0.67181489  1
  O  O595  1  0.91199924  0.48037937  0.92230339  1
  O  O596  1  0.91318919  0.81528942  0.17129202  1
  O  O597  1  0.91367919  0.81640073  0.42294095  1
  O  O598  1  0.91135690  0.81514414  0.67341634  1
  O  O599  1  0.91056678  0.81527084  0.92274510  1
  O  O600  1  0.08718586  0.18521927  0.07661675  1
  O  O601  1  0.08681901  0.18585564  0.32802949  1
  O  O602  1  0.08907281  0.18470797  0.57758708  1
  O  O603  1  0.08808590  0.18413709  0.82737276  1
  O  O604  1  0.08572103  0.51936640  0.07693875  1
  O  O605  1  0.08770081  0.51868661  0.32807752  1
  O  O606  1  0.08575407  0.52030468  0.57711620  1
  O  O607  1  0.08677764  0.51829096  0.82713076  1
  O  O608  1  0.08803365  0.85067713  0.07722165  1
  O  O609  1  0.08690415  0.85017814  0.32730079  1
  O  O610  1  0.08609733  0.85020661  0.57875519  1
  O  O611  1  0.08952313  0.85252259  0.82719412  1
  O  O612  1  0.58738012  0.18531470  0.07748588  1
  O  O613  1  0.58476307  0.18523286  0.32678438  1
  O  O614  1  0.58812523  0.18434618  0.57763283  1
  O  O615  1  0.58762417  0.18332578  0.82684731  1
  O  O616  1  0.58677369  0.51919104  0.07707723  1
  O  O617  1  0.58514330  0.51818954  0.32802582  1
  O  O618  1  0.58658143  0.51977249  0.57721821  1
  O  O619  1  0.58995766  0.51944166  0.82714943  1
  O  O620  1  0.58506549  0.85037547  0.07812973  1
  O  O621  1  0.58748594  0.85143267  0.32826354  1
  O  O622  1  0.58749392  0.85047641  0.57734684  1
  O  O623  1  0.58924450  0.85219274  0.82690189  1
  O  O624  1  0.33594835  0.18458141  0.04662545  1
  O  O625  1  0.33796471  0.18374961  0.29752072  1
  O  O626  1  0.33641931  0.18604655  0.54759481  1
  O  O627  1  0.33540548  0.18376276  0.79754108  1
  O  O628  1  0.33851142  0.51755453  0.04762934  1
  O  O629  1  0.33964694  0.51995817  0.29760762  1
  O  O630  1  0.33917183  0.51834654  0.54689773  1
  O  O631  1  0.33897745  0.52021954  0.79661334  1
  O  O632  1  0.33659713  0.85214047  0.04842769  1
  O  O633  1  0.33691517  0.85103295  0.29708435  1
  O  O634  1  0.33760992  0.85019480  0.54833454  1
  O  O635  1  0.33698836  0.85084302  0.79705845  1
  O  O636  1  0.83906568  0.18478446  0.04766001  1
  O  O637  1  0.83958959  0.18520518  0.29769877  1
  O  O638  1  0.83923285  0.18591821  0.54713667  1
  O  O639  1  0.83691269  0.18382195  0.79851436  1
  O  O640  1  0.83633945  0.51996878  0.04858712  1
  O  O641  1  0.83781016  0.51874505  0.29686638  1
  O  O642  1  0.83884012  0.51883831  0.54759649  1
  O  O643  1  0.83563196  0.51927108  0.79739576  1
  O  O644  1  0.83771242  0.85038538  0.04761647  1
  O  O645  1  0.83932968  0.85151996  0.29795044  1
  O  O646  1  0.83772430  0.85031915  0.54803541  1
  O  O647  1  0.83655697  0.85144023  0.79709200  1
  O  O648  1  0.16395915  0.14715195  0.20252839  1
  O  O649  1  0.16284659  0.14866099  0.45284084  1
  O  O650  1  0.16277918  0.14764275  0.70329993  1
  O  O651  1  0.16293431  0.14806680  0.95219473  1
  O  O652  1  0.16269340  0.48176736  0.20259397  1
  O  O653  1  0.16328316  0.48180735  0.45130989  1
  O  O654  1  0.16287687  0.48171020  0.70186006  1
  O  O655  1  0.16470174  0.48146623  0.95230088  1
  O  O656  1  0.16198262  0.81577917  0.20267539  1
  O  O657  1  0.16273894  0.81485501  0.45223032  1
  O  O658  1  0.16285551  0.81565040  0.70181234  1
  O  O659  1  0.16216633  0.81565202  0.95364919  1
  O  O660  1  0.66304473  0.14843349  0.20223183  1
  O  O661  1  0.66279164  0.14711250  0.45206844  1
  O  O662  1  0.66372773  0.14872951  0.70311404  1
  O  O663  1  0.66198266  0.14763505  0.95167471  1
  O  O664  1  0.66133107  0.48163950  0.20196784  1
  O  O665  1  0.66491123  0.48216088  0.45201450  1
  O  O666  1  0.66252522  0.48135753  0.70241602  1
  O  O667  1  0.66166356  0.48305708  0.95396844  1
  O  O668  1  0.66155376  0.81508136  0.20180584  1
  O  O669  1  0.66386219  0.81604287  0.45320619  1
  O  O670  1  0.66177969  0.81563600  0.70219911  1
  O  O671  1  0.66166824  0.81457488  0.95225337  1
