# generated using pymatgen
data_Na2MnFe(PO4)2
_symmetry_space_group_name_H-M   'P 1'
_cell_length_a   21.08730107
_cell_length_b   18.93955186
_cell_length_c   20.04602004
_cell_angle_alpha   90.00070060
_cell_angle_beta   90.00469319
_cell_angle_gamma   89.99965254
_symmetry_Int_Tables_number   1
_chemical_formula_structural   Na2MnFe(PO4)2
_chemical_formula_sum   'Na96 Mn48 Fe48 P96 O384'
_cell_volume   8006.06028475
_cell_formula_units_Z   48
loop_
 _symmetry_equiv_pos_site_id
 _symmetry_equiv_pos_as_xyz
  1  'x, y, z'
loop_
 _atom_site_type_symbol
 _atom_site_label
 _atom_site_symmetry_multiplicity
 _atom_site_fract_x
 _atom_site_fract_y
 _atom_site_fract_z
 _atom_site_occupancy
  Na  Na0  1  -0.00155064  -0.00056148  0.00021862  1
  Na  Na1  1  0.00007423  0.00025853  0.24992144  1
  Na  Na2  1  -0.00110414  -0.00050405  0.50013372  1
  Na  Na3  1  -0.00039003  0.00037370  0.74961476  1
  Na  Na4  1  -0.00159819  0.33248939  0.00136133  1
  Na  Na5  1  0.00088152  0.33348217  0.24913814  1
  Na  Na6  1  0.00068132  0.33362633  0.49999589  1
  Na  Na7  1  -0.00113931  0.33320931  0.74921485  1
  Na  Na8  1  -0.00068830  0.66700082  0.00068034  1
  Na  Na9  1  0.00093039  0.66780180  0.24956519  1
  Na  Na10  1  0.00129693  0.66714263  0.49957185  1
  Na  Na11  1  0.00182035  0.66770537  0.75019081  1
  Na  Na12  1  0.50046924  -0.00064252  -0.00043062  1
  Na  Na13  1  0.49769848  -0.00096475  0.25077593  1
  Na  Na14  1  0.49901948  -0.00066661  0.50017730  1
  Na  Na15  1  0.50125116  -0.00043773  0.74977910  1
  Na  Na16  1  0.49892506  0.33284337  -0.00128031  1
  Na  Na17  1  0.50204174  0.33410700  0.25048092  1
  Na  Na18  1  0.49932557  0.33269576  0.50126647  1
  Na  Na19  1  0.49859661  0.33274949  0.75013284  1
  Na  Na20  1  0.50197455  0.66813599  -0.00090205  1
  Na  Na21  1  0.49927475  0.66708831  0.25148931  1
  Na  Na22  1  0.49918280  0.66686367  0.50017261  1
  Na  Na23  1  0.50061647  0.66747480  0.74888280  1
  Na  Na24  1  0.25072875  -0.00003760  0.12475601  1
  Na  Na25  1  0.25179889  0.00032495  0.37501846  1
  Na  Na26  1  0.24982290  -0.00044750  0.62458342  1
  Na  Na27  1  0.24880110  -0.00096523  0.87490209  1
  Na  Na28  1  0.25006918  0.33261223  0.12427978  1
  Na  Na29  1  0.24900200  0.33215177  0.37496706  1
  Na  Na30  1  0.25124371  0.33374878  0.62530895  1
  Na  Na31  1  0.25235566  0.33384397  0.87447498  1
  Na  Na32  1  0.24904576  0.66768441  0.12513600  1
  Na  Na33  1  0.24983782  0.66786510  0.37518438  1
  Na  Na34  1  0.24888257  0.66753135  0.62544996  1
  Na  Na35  1  0.24757544  0.66682013  0.87522310  1
  Na  Na36  1  0.75072525  -0.00059421  0.12536303  1
  Na  Na37  1  0.75134685  0.00010843  0.37484473  1
  Na  Na38  1  0.75038394  -0.00017066  0.62411733  1
  Na  Na39  1  0.75128600  -0.00015318  0.87549027  1
  Na  Na40  1  0.74974453  0.33333873  0.12511157  1
  Na  Na41  1  0.74963903  0.33377413  0.37451827  1
  Na  Na42  1  0.74986916  0.33316607  0.62469551  1
  Na  Na43  1  0.75115014  0.33356171  0.87614616  1
  Na  Na44  1  0.75179337  0.66839968  0.12447874  1
  Na  Na45  1  0.74869081  0.66592289  0.37473407  1
  Na  Na46  1  0.74963140  0.66688822  0.62552179  1
  Na  Na47  1  0.74923839  0.66640537  0.87528490  1
  Na  Na48  1  -0.00193414  0.16640957  0.00023607  1
  Na  Na49  1  0.00077624  0.16554360  0.24977093  1
  Na  Na50  1  -0.00118597  0.16622437  0.49940282  1
  Na  Na51  1  -0.00130299  0.16585110  0.74970642  1
  Na  Na52  1  -0.00239525  0.50131928  0.00086251  1
  Na  Na53  1  0.00021278  0.50004563  0.24969517  1
  Na  Na54  1  -0.00052195  0.50078542  0.50039698  1
  Na  Na55  1  0.00105275  0.49941863  0.74957195  1
  Na  Na56  1  0.00062340  0.83318783  0.00138229  1
  Na  Na57  1  0.00082256  0.83325910  0.24917262  1
  Na  Na58  1  0.00236437  0.83298551  0.49994941  1
  Na  Na59  1  0.00069310  0.83322534  0.74967107  1
  Na  Na60  1  0.49864460  0.16703410  -0.00004544  1
  Na  Na61  1  0.49772071  0.16679226  0.25042299  1
  Na  Na62  1  0.49860445  0.16641468  0.50054784  1
  Na  Na63  1  0.49878441  0.16700322  0.74908068  1
  Na  Na64  1  0.50107698  0.49985098  -0.00125300  1
  Na  Na65  1  0.50196869  0.49987143  0.25071100  1
  Na  Na66  1  0.50190720  0.49988267  0.50082677  1
  Na  Na67  1  0.50103561  0.50012849  0.74983273  1
  Na  Na68  1  0.50157767  0.83286322  -0.00118279  1
  Na  Na69  1  0.49807647  0.83415003  0.25135651  1
  Na  Na70  1  0.49776039  0.83400480  0.50034633  1
  Na  Na71  1  0.50086425  0.83321723  0.74978817  1
  Na  Na72  1  0.25054542  0.16656393  0.12410418  1
  Na  Na73  1  0.25138790  0.16572140  0.37485674  1
  Na  Na74  1  0.25014807  0.16637628  0.62582222  1
  Na  Na75  1  0.25106887  0.16647985  0.87499873  1
  Na  Na76  1  0.24909142  0.50044716  0.12482988  1
  Na  Na77  1  0.24871390  0.50033993  0.37529686  1
  Na  Na78  1  0.24918479  0.50020754  0.62469181  1
  Na  Na79  1  0.24913729  0.50042996  0.87461084  1
  Na  Na80  1  0.24933262  0.83348441  0.12533799  1
  Na  Na81  1  0.25116383  0.83325602  0.37490221  1
  Na  Na82  1  0.25041509  0.83288153  0.62486354  1
  Na  Na83  1  0.24892491  0.83311558  0.87505589  1
  Na  Na84  1  0.75200496  0.16515933  0.12527554  1
  Na  Na85  1  0.74976079  0.16592862  0.37483484  1
  Na  Na86  1  0.75095137  0.16589510  0.62441665  1
  Na  Na87  1  0.75197060  0.16567835  0.87585358  1
  Na  Na88  1  0.75049931  0.50007991  0.12572716  1
  Na  Na89  1  0.74991798  0.50041979  0.37377549  1
  Na  Na90  1  0.74991604  0.50039900  0.62531879  1
  Na  Na91  1  0.75071419  0.50007272  0.87547509  1
  Na  Na92  1  0.74982137  0.83348358  0.12420719  1
  Na  Na93  1  0.75117882  0.83248233  0.37501713  1
  Na  Na94  1  0.74818895  0.83471986  0.62491124  1
  Na  Na95  1  0.74945502  0.83346509  0.87537922  1
  Mn  Mn96  1  0.89228438  0.58378407  0.87700740  1
  Mn  Mn97  1  0.64187737  0.24920962  0.24753686  1
  Mn  Mn98  1  0.64218337  0.91633927  0.24829762  1
  Mn  Mn99  1  0.60707749  0.75061123  0.37297731  1
  Mn  Mn100  1  0.14194162  0.58349563  0.49775291  1
  Mn  Mn101  1  0.85811577  0.74974762  0.50216614  1
  Mn  Mn102  1  0.39247372  0.58368067  0.12759326  1
  Mn  Mn103  1  0.14302180  0.91719853  0.49763471  1
  Mn  Mn104  1  0.60820737  0.41666567  0.87233179  1
  Mn  Mn105  1  0.85797099  0.41606352  0.75234577  1
  Mn  Mn106  1  0.35806204  0.41702661  0.25221477  1
  Mn  Mn107  1  0.14123866  0.58289906  0.99776356  1
  Mn  Mn108  1  0.64285595  0.58386914  0.99828729  1
  Mn  Mn109  1  0.85737603  0.41663468  0.25260574  1
  Mn  Mn110  1  0.35806398  0.74990289  0.00206562  1
  Mn  Mn111  1  0.14236557  0.25021304  0.99706626  1
  Mn  Mn112  1  0.39198470  0.58308096  0.37720658  1
  Mn  Mn113  1  0.89250780  0.24963555  0.37714398  1
  Mn  Mn114  1  0.10787605  0.41691375  0.37232195  1
  Mn  Mn115  1  0.10773946  0.41666168  0.12250715  1
  Mn  Mn116  1  0.14190008  0.91695593  0.99772730  1
  Mn  Mn117  1  0.35823608  0.41686584  0.50239392  1
  Mn  Mn118  1  0.89239870  0.24995606  0.12791052  1
  Mn  Mn119  1  0.89233677  0.91626037  0.12754266  1
  Mn  Mn120  1  0.10639696  0.08322548  0.87280773  1
  Mn  Mn121  1  0.39207456  0.25031871  0.37716867  1
  Mn  Mn122  1  0.64243498  0.24928542  0.99803984  1
  Mn  Mn123  1  0.60781918  0.08318699  0.62300987  1
  Mn  Mn124  1  0.60727352  0.75039130  0.62279975  1
  Mn  Mn125  1  0.35841500  0.41743882  0.00255553  1
  Mn  Mn126  1  0.14266659  0.24939893  0.49825299  1
  Mn  Mn127  1  0.10692526  0.41646750  0.87275555  1
  Mn  Mn128  1  0.60882691  0.08349502  0.87259106  1
  Mn  Mn129  1  0.39206591  0.58340196  0.62776121  1
  Mn  Mn130  1  0.60793003  0.41639052  0.62310226  1
  Mn  Mn131  1  0.39226450  0.58361970  0.87650393  1
  Mn  Mn132  1  0.60724921  0.08309033  0.12325436  1
  Mn  Mn133  1  0.35716327  0.08287765  0.75246728  1
  Mn  Mn134  1  0.85780341  0.75051464  0.75226315  1
  Mn  Mn135  1  0.39272418  0.91676127  0.87650552  1
  Mn  Mn136  1  0.89229373  0.91571838  0.62695194  1
  Mn  Mn137  1  0.89182661  0.25044831  0.62714146  1
  Mn  Mn138  1  0.64208743  0.25003433  0.49759567  1
  Mn  Mn139  1  0.64213561  0.58442987  0.24718124  1
  Mn  Mn140  1  0.35827908  0.08279589  0.00216799  1
  Mn  Mn141  1  0.89272146  0.58401988  0.37741104  1
  Mn  Mn142  1  0.10815264  0.08280675  0.37269625  1
  Mn  Mn143  1  0.14196055  0.25002121  0.74803650  1
  Fe  Fe144  1  0.64285413  0.24953653  0.74898122  1
  Fe  Fe145  1  0.85781629  0.08248107  0.25243084  1
  Fe  Fe146  1  0.85737111  0.08282650  0.00223596  1
  Fe  Fe147  1  0.35682285  0.75036622  0.25111377  1
  Fe  Fe148  1  0.10746064  0.41632393  0.62325216  1
  Fe  Fe149  1  0.39242721  0.24969112  0.62748944  1
  Fe  Fe150  1  0.64325786  0.58365428  0.49872187  1
  Fe  Fe151  1  0.10764347  0.75011195  0.62330210  1
  Fe  Fe152  1  0.10804505  0.75057013  0.37260745  1
  Fe  Fe153  1  0.85731539  0.41689905  0.00227189  1
  Fe  Fe154  1  0.35787982  0.08298817  0.50245200  1
  Fe  Fe155  1  0.60739982  0.75010773  0.12389466  1
  Fe  Fe156  1  0.39263401  0.91683527  0.62750314  1
  Fe  Fe157  1  0.64292748  0.58325855  0.74799150  1
  Fe  Fe158  1  0.85740809  0.08308764  0.75117876  1
  Fe  Fe159  1  0.89276928  0.58390319  0.12700310  1
  Fe  Fe160  1  0.39285796  0.91644670  0.12656876  1
  Fe  Fe161  1  0.60734092  0.41698998  0.12316649  1
  Fe  Fe162  1  0.14306472  0.24929633  0.24798837  1
  Fe  Fe163  1  0.39270172  0.24999561  0.12684027  1
  Fe  Fe164  1  0.60662711  0.08325597  0.37346725  1
  Fe  Fe165  1  0.89297794  0.58356906  0.62641416  1
  Fe  Fe166  1  0.14216910  0.58336424  0.74809822  1
  Fe  Fe167  1  0.64292435  0.91659462  0.99887708  1
  Fe  Fe168  1  0.64239518  0.91656600  0.49775826  1
  Fe  Fe169  1  0.89233559  0.91641191  0.87652161  1
  Fe  Fe170  1  0.35699505  0.08289324  0.25134228  1
  Fe  Fe171  1  0.35663686  0.75011075  0.50214174  1
  Fe  Fe172  1  0.14179079  0.91633899  0.74831345  1
  Fe  Fe173  1  0.64341989  0.91727915  0.74822921  1
  Fe  Fe174  1  0.85794219  0.75063576  0.25188976  1
  Fe  Fe175  1  0.85735069  0.41664495  0.50121287  1
  Fe  Fe176  1  0.89337362  0.91617261  0.37640063  1
  Fe  Fe177  1  0.85733490  0.75012074  0.00158074  1
  Fe  Fe178  1  0.39302031  0.24980614  0.87611525  1
  Fe  Fe179  1  0.10671560  0.75046549  0.87361420  1
  Fe  Fe180  1  0.89148877  0.24966184  0.87685833  1
  Fe  Fe181  1  0.60830856  0.74991533  0.87256441  1
  Fe  Fe182  1  0.39205110  0.91696704  0.37713037  1
  Fe  Fe183  1  0.10763744  0.08301676  0.12346889  1
  Fe  Fe184  1  0.14256469  0.58360942  0.24811362  1
  Fe  Fe185  1  0.85668509  0.08341688  0.50128692  1
  Fe  Fe186  1  0.35593039  0.74965272  0.75182896  1
  Fe  Fe187  1  0.60817410  0.41622403  0.37398385  1
  Fe  Fe188  1  0.10678855  0.08349143  0.62309730  1
  Fe  Fe189  1  0.14342885  0.91718043  0.24851937  1
  Fe  Fe190  1  0.10707613  0.75035330  0.12353749  1
  Fe  Fe191  1  0.35674522  0.41789905  0.75131637  1
  P  P192  1  0.05506618  0.24848392  0.11105420  1
  P  P193  1  0.05423207  0.24950553  0.35905355  1
  P  P194  1  0.05328778  0.24948039  0.61007726  1
  P  P195  1  0.05081882  0.24976988  0.86001933  1
  P  P196  1  0.05343238  0.58442428  0.11144809  1
  P  P197  1  0.05424563  0.58442456  0.35912385  1
  P  P198  1  0.05396671  0.58349298  0.61129167  1
  P  P199  1  0.05347366  0.58415973  0.85954935  1
  P  P200  1  0.05504840  0.91715415  0.11174467  1
  P  P201  1  0.05355045  0.91636586  0.35926951  1
  P  P202  1  0.05486283  0.91688334  0.61109053  1
  P  P203  1  0.05217996  0.91613094  0.85977211  1
  P  P204  1  0.55201537  0.25023418  0.10997620  1
  P  P205  1  0.55346607  0.24918127  0.36055876  1
  P  P206  1  0.55340094  0.24957832  0.61145376  1
  P  P207  1  0.55301635  0.24970463  0.85914890  1
  P  P208  1  0.55330852  0.58409669  0.10997725  1
  P  P209  1  0.55490459  0.58308372  0.36163975  1
  P  P210  1  0.55517492  0.58359730  0.61045559  1
  P  P211  1  0.55463708  0.58437772  0.85903610  1
  P  P212  1  0.55277697  0.91575859  0.10997241  1
  P  P213  1  0.55291426  0.91758340  0.36156533  1
  P  P214  1  0.55407245  0.91676786  0.61037808  1
  P  P215  1  0.55606986  0.91600203  0.86027179  1
  P  P216  1  0.44593281  0.08272584  0.14055676  1
  P  P217  1  0.44521891  0.08261633  0.38959903  1
  P  P218  1  0.44530029  0.08261893  0.63909401  1
  P  P219  1  0.44709183  0.08355380  0.88951409  1
  P  P220  1  0.44828078  0.41640246  0.14011728  1
  P  P221  1  0.44847484  0.41679326  0.39040616  1
  P  P222  1  0.44594198  0.41623175  0.64093977  1
  P  P223  1  0.44540697  0.41659022  0.88820579  1
  P  P224  1  0.44750956  0.75100831  0.14052026  1
  P  P225  1  0.44386361  0.75078223  0.38966747  1
  P  P226  1  0.44417599  0.75106142  0.63962848  1
  P  P227  1  0.44686386  0.75007912  0.88820146  1
  P  P228  1  0.94602279  0.08288602  0.13979225  1
  P  P229  1  0.94507355  0.08193676  0.38942316  1
  P  P230  1  0.94546231  0.08301898  0.63903551  1
  P  P231  1  0.94383148  0.08277516  0.88918442  1
  P  P232  1  0.94515348  0.41755194  0.13920359  1
  P  P233  1  0.94634117  0.41675737  0.39069716  1
  P  P234  1  0.94644338  0.41778580  0.63840360  1
  P  P235  1  0.94565274  0.41593722  0.89085676  1
  P  P236  1  0.94585740  0.74967014  0.13939986  1
  P  P237  1  0.94756802  0.75125526  0.38875755  1
  P  P238  1  0.94801472  0.74911107  0.63971333  1
  P  P239  1  0.94703508  0.75120506  0.89057334  1
  P  P240  1  0.19742538  0.08275185  0.23458645  1
  P  P241  1  0.19736917  0.08325051  0.48611318  1
  P  P242  1  0.19526002  0.08236855  0.73467193  1
  P  P243  1  0.19573202  0.08322086  0.98549166  1
  P  P244  1  0.19673407  0.41649019  0.23480635  1
  P  P245  1  0.19568847  0.41620945  0.48602631  1
  P  P246  1  0.19669894  0.41719728  0.73469237  1
  P  P247  1  0.19690946  0.41643613  0.98425084  1
  P  P248  1  0.19574693  0.75080640  0.23589870  1
  P  P249  1  0.19584513  0.75055128  0.48544699  1
  P  P250  1  0.19485819  0.75035282  0.73596778  1
  P  P251  1  0.19449498  0.75022671  0.98547118  1
  P  P252  1  0.69692697  0.08248448  0.23621282  1
  P  P253  1  0.69655922  0.08237937  0.48435174  1
  P  P254  1  0.69817467  0.08322461  0.73516987  1
  P  P255  1  0.69787914  0.08226995  0.98573348  1
  P  P256  1  0.69449050  0.41667870  0.23527160  1
  P  P257  1  0.69757226  0.41779344  0.48477432  1
  P  P258  1  0.69688611  0.41612410  0.73533045  1
  P  P259  1  0.69670343  0.41682197  0.98650138  1
  P  P260  1  0.69751990  0.75065502  0.23433430  1
  P  P261  1  0.69644498  0.75004396  0.48520746  1
  P  P262  1  0.69562410  0.75049410  0.73611477  1
  P  P263  1  0.69596289  0.75085577  0.98583849  1
  P  P264  1  0.30566181  0.24994182  0.01433749  1
  P  P265  1  0.30360577  0.24923390  0.26345963  1
  P  P266  1  0.30452345  0.24902811  0.51589325  1
  P  P267  1  0.30493516  0.25075815  0.76442898  1
  P  P268  1  0.30292691  0.58396034  0.01522815  1
  P  P269  1  0.30192519  0.58434819  0.26484568  1
  P  P270  1  0.30312908  0.58434581  0.51521701  1
  P  P271  1  0.30157060  0.58397546  0.76464265  1
  P  P272  1  0.30409397  0.91607988  0.01557882  1
  P  P273  1  0.30433443  0.91659935  0.26391808  1
  P  P274  1  0.30558772  0.91652385  0.51447123  1
  P  P275  1  0.30254975  0.91557579  0.76385467  1
  P  P276  1  0.80476267  0.24973939  0.01440252  1
  P  P277  1  0.80328731  0.24913563  0.26522359  1
  P  P278  1  0.80335128  0.24995277  0.51437475  1
  P  P279  1  0.80261859  0.24901381  0.76543175  1
  P  P280  1  0.80461689  0.58387495  0.01553727  1
  P  P281  1  0.80483042  0.58485795  0.26372252  1
  P  P282  1  0.80323750  0.58288089  0.51541973  1
  P  P283  1  0.80336683  0.58360599  0.76382301  1
  P  P284  1  0.80391372  0.91611655  0.01378378  1
  P  P285  1  0.80440830  0.91599220  0.26558577  1
  P  P286  1  0.80345354  0.91697808  0.51338742  1
  P  P287  1  0.80310044  0.91715844  0.76526854  1
  O  O288  1  0.05969074  0.24910191  0.18779809  1
  O  O289  1  0.05725445  0.24922170  0.43585001  1
  O  O290  1  0.05591469  0.24945192  0.68685406  1
  O  O291  1  0.05494950  0.24973596  0.93670598  1
  O  O292  1  0.05856553  0.58369339  0.18807762  1
  O  O293  1  0.05703131  0.58377002  0.43596119  1
  O  O294  1  0.05840743  0.58336696  0.68799601  1
  O  O295  1  0.05572803  0.58329927  0.93637713  1
  O  O296  1  0.05924602  0.91738840  0.18839055  1
  O  O297  1  0.05731282  0.91714588  0.43599968  1
  O  O298  1  0.05830630  0.91690742  0.68784328  1
  O  O299  1  0.05571220  0.91686817  0.93649731  1
  O  O300  1  0.55585152  0.24933988  0.18667778  1
  O  O301  1  0.55609168  0.24901429  0.43738383  1
  O  O302  1  0.55893538  0.24939987  0.68803923  1
  O  O303  1  0.55704583  0.24953685  0.93586860  1
  O  O304  1  0.55577137  0.58426566  0.18679974  1
  O  O305  1  0.55909625  0.58387575  0.43838922  1
  O  O306  1  0.55978762  0.58362795  0.68719347  1
  O  O307  1  0.55777720  0.58378410  0.93582400  1
  O  O308  1  0.55609354  0.91645315  0.18672408  1
  O  O309  1  0.55803555  0.91669672  0.43819758  1
  O  O310  1  0.55951176  0.91701959  0.68704074  1
  O  O311  1  0.56017164  0.91678180  0.93705121  1
  O  O312  1  0.44373849  0.08261808  0.06375612  1
  O  O313  1  0.44042214  0.08300901  0.31290623  1
  O  O314  1  0.44185471  0.08259837  0.56232271  1
  O  O315  1  0.44367616  0.08256212  0.81275498  1
  O  O316  1  0.44467057  0.41701719  0.06338459  1
  O  O317  1  0.44429717  0.41712489  0.31371652  1
  O  O318  1  0.44333518  0.41723276  0.56411855  1
  O  O319  1  0.44077206  0.41784720  0.81153630  1
  O  O320  1  0.44435935  0.75033380  0.06376590  1
  O  O321  1  0.43963404  0.75002289  0.31288938  1
  O  O322  1  0.44024433  0.74997954  0.56287209  1
  O  O323  1  0.44095251  0.74998857  0.81162943  1
  O  O324  1  0.94090785  0.08266924  0.06307532  1
  O  O325  1  0.94113229  0.08289417  0.31262282  1
  O  O326  1  0.94044711  0.08292123  0.56235609  1
  O  O327  1  0.94026101  0.08284506  0.81233628  1
  O  O328  1  0.94081961  0.41684978  0.06245952  1
  O  O329  1  0.94311051  0.41658449  0.31389506  1
  O  O330  1  0.94135009  0.41711806  0.56178886  1
  O  O331  1  0.94323131  0.41660600  0.81395684  1
  O  O332  1  0.94100702  0.75046114  0.06275245  1
  O  O333  1  0.94270612  0.75074867  0.31214706  1
  O  O334  1  0.94425299  0.74983773  0.56300731  1
  O  O335  1  0.94350508  0.75068603  0.81383372  1
  O  O336  1  0.19151100  0.08316328  0.06219083  1
  O  O337  1  0.19419553  0.08273972  0.31134966  1
  O  O338  1  0.19174736  0.08319637  0.56265323  1
  O  O339  1  0.19214769  0.08305274  0.81149024  1
  O  O340  1  0.19314992  0.41616677  0.06099797  1
  O  O341  1  0.19403673  0.41637557  0.31162478  1
  O  O342  1  0.19107118  0.41632642  0.56277436  1
  O  O343  1  0.19296777  0.41637152  0.81138848  1
  O  O344  1  0.19016125  0.75036770  0.06224448  1
  O  O345  1  0.19170245  0.75088288  0.31266920  1
  O  O346  1  0.19096772  0.75045363  0.56215352  1
  O  O347  1  0.19038790  0.75067947  0.81266452  1
  O  O348  1  0.69379276  0.08278163  0.06240684  1
  O  O349  1  0.69134208  0.08263757  0.31276679  1
  O  O350  1  0.69297863  0.08280337  0.56108673  1
  O  O351  1  0.69503851  0.08327491  0.81186418  1
  O  O352  1  0.69134425  0.41668256  0.06315649  1
  O  O353  1  0.69035601  0.41660464  0.31206987  1
  O  O354  1  0.69385492  0.41683534  0.56148705  1
  O  O355  1  0.69444245  0.41631745  0.81216308  1
  O  O356  1  0.69119138  0.75040227  0.06249260  1
  O  O357  1  0.69292849  0.75034787  0.31098980  1
  O  O358  1  0.69331677  0.75060389  0.56194545  1
  O  O359  1  0.69251797  0.75002562  0.81292305  1
  O  O360  1  0.30865729  0.25018621  0.18681076  1
  O  O361  1  0.30700839  0.24969468  0.43900333  1
  O  O362  1  0.30885899  0.24971526  0.68765630  1
  O  O363  1  0.31005093  0.24976291  0.93755785  1
  O  O364  1  0.30584633  0.58380956  0.18816102  1
  O  O365  1  0.30612265  0.58352227  0.43844576  1
  O  O366  1  0.30539827  0.58402934  0.68799719  1
  O  O367  1  0.30646610  0.58405489  0.93847933  1
  O  O368  1  0.30870181  0.91629194  0.18725868  1
  O  O369  1  0.30895048  0.91685901  0.43760336  1
  O  O370  1  0.30740800  0.91637150  0.68724535  1
  O  O371  1  0.30747306  0.91601715  0.93878376  1
  O  O372  1  0.80646738  0.24966502  0.18843362  1
  O  O373  1  0.80617305  0.25008193  0.43768278  1
  O  O374  1  0.80614506  0.24986306  0.68868023  1
  O  O375  1  0.80819219  0.24999457  0.93761205  1
  O  O376  1  0.80904112  0.58442822  0.18701007  1
  O  O377  1  0.80684895  0.58372920  0.43865745  1
  O  O378  1  0.80861446  0.58394291  0.68721299  1
  O  O379  1  0.80704972  0.58386442  0.93867893  1
  O  O380  1  0.80701815  0.91604238  0.18873159  1
  O  O381  1  0.80865292  0.91584326  0.43685621  1
  O  O382  1  0.80667902  0.91623063  0.68851304  1
  O  O383  1  0.80826955  0.91581921  0.93716539  1
  O  O384  1  0.23550561  0.24976598  0.03797033  1
  O  O385  1  0.23329464  0.24885445  0.28731829  1
  O  O386  1  0.23492516  0.24969815  0.54127181  1
  O  O387  1  0.23484178  0.24991948  0.78867981  1
  O  O388  1  0.23317076  0.58398672  0.03999289  1
  O  O389  1  0.23186694  0.58427889  0.28939516  1
  O  O390  1  0.23349706  0.58414563  0.54039927  1
  O  O391  1  0.23145095  0.58382080  0.78911151  1
  O  O392  1  0.23426425  0.91641345  0.04007269  1
  O  O393  1  0.23399956  0.91668934  0.28807118  1
  O  O394  1  0.23558811  0.91634998  0.53879504  1
  O  O395  1  0.23224038  0.91595862  0.78776159  1
  O  O396  1  0.73495664  0.24925393  0.03943831  1
  O  O397  1  0.73361571  0.24953830  0.29024782  1
  O  O398  1  0.73372467  0.24957715  0.53986653  1
  O  O399  1  0.73266710  0.24957803  0.79039143  1
  O  O400  1  0.73495751  0.58408657  0.04088486  1
  O  O401  1  0.73480253  0.58392601  0.28778285  1
  O  O402  1  0.73311686  0.58373729  0.53979932  1
  O  O403  1  0.73306242  0.58334376  0.78755597  1
  O  O404  1  0.73372763  0.91639808  0.03815510  1
  O  O405  1  0.73473936  0.91607202  0.29079262  1
  O  O406  1  0.73306315  0.91716831  0.53707419  1
  O  O407  1  0.73305671  0.91674244  0.78973184  1
  O  O408  1  0.26753836  0.08285209  0.20996637  1
  O  O409  1  0.26776498  0.08285753  0.46281678  1
  O  O410  1  0.26513626  0.08285971  0.71006274  1
  O  O411  1  0.26569863  0.08271494  0.96124076  1
  O  O412  1  0.26630484  0.41669157  0.20912623  1
  O  O413  1  0.26569496  0.41622737  0.46191276  1
  O  O414  1  0.26688622  0.41714973  0.71036980  1
  O  O415  1  0.26664658  0.41692429  0.95966243  1
  O  O416  1  0.26614075  0.75083991  0.21191414  1
  O  O417  1  0.26626812  0.75071520  0.46222236  1
  O  O418  1  0.26518838  0.75015197  0.71200414  1
  O  O419  1  0.26458308  0.75020680  0.96157261  1
  O  O420  1  0.76741187  0.08202961  0.21296273  1
  O  O421  1  0.76677908  0.08303133  0.46024421  1
  O  O422  1  0.76802712  0.08286231  0.70986368  1
  O  O423  1  0.76797955  0.08251803  0.96148018  1
  O  O424  1  0.76466245  0.41669855  0.21165096  1
  O  O425  1  0.76763396  0.41719435  0.46011467  1
  O  O426  1  0.76642841  0.41631044  0.70967504  1
  O  O427  1  0.76714213  0.41719190  0.96319169  1
  O  O428  1  0.76773420  0.75117338  0.21053624  1
  O  O429  1  0.76614194  0.74944943  0.46004356  1
  O  O430  1  0.76538552  0.75104674  0.71092645  1
  O  O431  1  0.76643123  0.74995489  0.96226724  1
  O  O432  1  0.01643608  0.08281272  0.16308849  1
  O  O433  1  0.01515055  0.08258996  0.41351170  1
  O  O434  1  0.01583551  0.08306962  0.66251377  1
  O  O435  1  0.01378291  0.08274004  0.91383667  1
  O  O436  1  0.01519931  0.41694287  0.16320006  1
  O  O437  1  0.01615228  0.41713301  0.41535580  1
  O  O438  1  0.01676564  0.41675965  0.66223978  1
  O  O439  1  0.01516858  0.41689108  0.91658894  1
  O  O440  1  0.01635687  0.75045507  0.16273604  1
  O  O441  1  0.01789821  0.75065655  0.41255759  1
  O  O442  1  0.01803601  0.74998968  0.66418719  1
  O  O443  1  0.01706939  0.75037611  0.91519420  1
  O  O444  1  0.51550822  0.08269810  0.16633162  1
  O  O445  1  0.51552872  0.08288239  0.41348172  1
  O  O446  1  0.51514576  0.08285153  0.66390423  1
  O  O447  1  0.51674570  0.08337936  0.91470490  1
  O  O448  1  0.51829071  0.41683530  0.16480047  1
  O  O449  1  0.51848335  0.41622761  0.41498812  1
  O  O450  1  0.51568149  0.41648895  0.66596179  1
  O  O451  1  0.51551539  0.41650530  0.91223853  1
  O  O452  1  0.51742868  0.75068593  0.16569773  1
  O  O453  1  0.51400734  0.75050915  0.41362491  1
  O  O454  1  0.51436540  0.75069170  0.66336723  1
  O  O455  1  0.51740877  0.75032045  0.91109160  1
  O  O456  1  0.48196443  0.24983151  0.08545367  1
  O  O457  1  0.48391204  0.24998430  0.33498862  1
  O  O458  1  0.48296051  0.24975692  0.58821585  1
  O  O459  1  0.48285160  0.24981913  0.83509148  1
  O  O460  1  0.48395801  0.58411263  0.08379805  1
  O  O461  1  0.48490538  0.58362591  0.33723994  1
  O  O462  1  0.48495331  0.58340937  0.58700971  1
  O  O463  1  0.48488935  0.58407430  0.83399518  1
  O  O464  1  0.48278752  0.91618169  0.08510447  1
  O  O465  1  0.48247219  0.91703356  0.33821117  1
  O  O466  1  0.48354831  0.91639950  0.58749584  1
  O  O467  1  0.48597382  0.91636709  0.83614949  1
  O  O468  1  0.98489132  0.24902618  0.08745377  1
  O  O469  1  0.98448239  0.24950002  0.33408612  1
  O  O470  1  0.98372984  0.24974109  0.58449084  1
  O  O471  1  0.98078278  0.24944471  0.83552108  1
  O  O472  1  0.98310791  0.58449871  0.08777759  1
  O  O473  1  0.98452112  0.58399787  0.33417722  1
  O  O474  1  0.98386498  0.58387236  0.58673999  1
  O  O475  1  0.98385389  0.58362591  0.83406239  1
  O  O476  1  0.98496692  0.91661241  0.08743561  1
  O  O477  1  0.98350890  0.91677824  0.33478691  1
  O  O478  1  0.98502410  0.91639822  0.58620627  1
  O  O479  1  0.98211130  0.91665827  0.83516372  1
  O  O480  1  0.08843593  0.31352819  0.07765061  1
  O  O481  1  0.08844499  0.31451384  0.32669016  1
  O  O482  1  0.08765822  0.31458315  0.57808727  1
  O  O483  1  0.08450103  0.31488742  0.82723771  1
  O  O484  1  0.08666303  0.64960437  0.07845378  1
  O  O485  1  0.08834192  0.64958808  0.32703388  1
  O  O486  1  0.08756671  0.64867026  0.57835052  1
  O  O487  1  0.08750015  0.64957921  0.82784320  1
  O  O488  1  0.08805334  0.98234261  0.07831975  1
  O  O489  1  0.08781622  0.98116898  0.32632653  1
  O  O490  1  0.08825802  0.98216691  0.57809518  1
  O  O491  1  0.08649771  0.98076202  0.82669385  1
  O  O492  1  0.58576679  0.31532182  0.07738874  1
  O  O493  1  0.58819588  0.31408271  0.32875332  1
  O  O494  1  0.58662430  0.31460770  0.57799431  1
  O  O495  1  0.58696183  0.31463087  0.82637242  1
  O  O496  1  0.58768847  0.64939593  0.07817914  1
  O  O497  1  0.58848141  0.64806117  0.32819009  1
  O  O498  1  0.58846365  0.64865338  0.57713340  1
  O  O499  1  0.58881506  0.64942600  0.82676860  1
  O  O500  1  0.58712084  0.98059797  0.07709353  1
  O  O501  1  0.58580763  0.98279458  0.32823042  1
  O  O502  1  0.58715635  0.98176998  0.57670248  1
  O  O503  1  0.58980791  0.98092972  0.82688220  1
  O  O504  1  0.41157821  0.01758129  0.17269632  1
  O  O505  1  0.41171542  0.01757877  0.42277785  1
  O  O506  1  0.41181040  0.01735001  0.67201649  1
  O  O507  1  0.41300725  0.01855316  0.92216063  1
  O  O508  1  0.41457950  0.35122520  0.17266969  1
  O  O509  1  0.41433075  0.35180098  0.42279539  1
  O  O510  1  0.41168428  0.35108822  0.67273537  1
  O  O511  1  0.41209721  0.35120515  0.92074422  1
  O  O512  1  0.41304020  0.68627702  0.17343346  1
  O  O513  1  0.41016588  0.68594450  0.42310513  1
  O  O514  1  0.41041813  0.68629421  0.67322506  1
  O  O515  1  0.41402550  0.68505131  0.92206661  1
  O  O516  1  0.91261998  0.01786469  0.17314082  1
  O  O517  1  0.91178665  0.01654333  0.42207646  1
  O  O518  1  0.91212378  0.01805106  0.67255310  1
  O  O519  1  0.91027183  0.01753260  0.92207147  1
  O  O520  1  0.91156305  0.35262060  0.17253043  1
  O  O521  1  0.91238778  0.35170591  0.42331650  1
  O  O522  1  0.91271750  0.35295649  0.67189025  1
  O  O523  1  0.91162156  0.35060870  0.92269190  1
  O  O524  1  0.91282081  0.68467510  0.17286144  1
  O  O525  1  0.91404974  0.68636901  0.42228082  1
  O  O526  1  0.91448802  0.68397677  0.67240311  1
  O  O527  1  0.91261066  0.68641686  0.92327416  1
  O  O528  1  0.16361735  0.01753945  0.20200165  1
  O  O529  1  0.16412908  0.01835468  0.45233969  1
  O  O530  1  0.16145177  0.01717122  0.70232025  1
  O  O531  1  0.16185551  0.01827620  0.95255720  1
  O  O532  1  0.16267548  0.35128860  0.20258063  1
  O  O533  1  0.16222903  0.35118263  0.45297824  1
  O  O534  1  0.16286302  0.35217310  0.70167226  1
  O  O535  1  0.16325042  0.35137963  0.95130853  1
  O  O536  1  0.16221181  0.68582582  0.20265835  1
  O  O537  1  0.16247632  0.68564562  0.45202603  1
  O  O538  1  0.16143058  0.68522427  0.70277970  1
  O  O539  1  0.16060190  0.68542189  0.95237698  1
  O  O540  1  0.66364013  0.01752429  0.20274783  1
  O  O541  1  0.66291727  0.01730714  0.45149756  1
  O  O542  1  0.66403931  0.01812739  0.70271962  1
  O  O543  1  0.66427819  0.01722150  0.95302077  1
  O  O544  1  0.66091569  0.35170492  0.20204227  1
  O  O545  1  0.66323661  0.35294266  0.45192128  1
  O  O546  1  0.66288287  0.35079355  0.70325879  1
  O  O547  1  0.66374120  0.35168942  0.95297954  1
  O  O548  1  0.66395843  0.68572053  0.20099871  1
  O  O549  1  0.66220050  0.68492731  0.45314441  1
  O  O550  1  0.66196089  0.68546024  0.70320753  1
  O  O551  1  0.66222100  0.68611022  0.95224986  1
  O  O552  1  0.33916003  0.31495699  0.04765996  1
  O  O553  1  0.33658661  0.31429698  0.29730873  1
  O  O554  1  0.33928947  0.31381110  0.54820659  1
  O  O555  1  0.33822944  0.31621668  0.79678984  1
  O  O556  1  0.33685808  0.64900204  0.04782834  1
  O  O557  1  0.33577735  0.64946634  0.29724101  1
  O  O558  1  0.33700545  0.64959936  0.54738819  1
  O  O559  1  0.33516798  0.64911633  0.79757959  1
  O  O560  1  0.33845666  0.98090442  0.04812892  1
  O  O561  1  0.33775007  0.98176844  0.29711635  1
  O  O562  1  0.33931463  0.98146542  0.54758168  1
  O  O563  1  0.33603101  0.98049517  0.79743195  1
  O  O564  1  0.83825001  0.31496658  0.04721482  1
  O  O565  1  0.83744102  0.31416968  0.29764174  1
  O  O566  1  0.83720401  0.31515738  0.54688812  1
  O  O567  1  0.83707398  0.31373382  0.79828358  1
  O  O568  1  0.83899985  0.64908059  0.04749763  1
  O  O569  1  0.83775885  0.65033575  0.29676085  1
  O  O570  1  0.83763195  0.64760917  0.54847373  1
  O  O571  1  0.83639814  0.64869566  0.79741991  1
  O  O572  1  0.83758082  0.98106986  0.04699054  1
  O  O573  1  0.83894928  0.98084963  0.29783750  1
  O  O574  1  0.83683709  0.98214872  0.54634452  1
  O  O575  1  0.83689487  0.98233747  0.79753224  1
  O  O576  1  0.41149757  0.14777060  0.17271940  1
  O  O577  1  0.41166682  0.14756978  0.42297406  1
  O  O578  1  0.41133564  0.14761723  0.67169451  1
  O  O579  1  0.41300915  0.14875884  0.92143100  1
  O  O580  1  0.41438899  0.48144763  0.17301195  1
  O  O581  1  0.41482433  0.48185152  0.42330800  1
  O  O582  1  0.41157827  0.48116336  0.67362425  1
  O  O583  1  0.41226092  0.48161966  0.92189637  1
  O  O584  1  0.41335833  0.81615266  0.17283355  1
  O  O585  1  0.41044040  0.81602700  0.42239964  1
  O  O586  1  0.41088019  0.81634327  0.67250977  1
  O  O587  1  0.41380281  0.81505375  0.92191511  1
  O  O588  1  0.91258310  0.14770419  0.17329779  1
  O  O589  1  0.91096090  0.14660936  0.42274824  1
  O  O590  1  0.91196552  0.14794674  0.67245189  1
  O  O591  1  0.91008394  0.14779585  0.92209693  1
  O  O592  1  0.91197707  0.48287189  0.17196299  1
  O  O593  1  0.91202175  0.48170372  0.42312018  1
  O  O594  1  0.91367877  0.48309942  0.67174861  1
  O  O595  1  0.91073455  0.48079225  0.92293063  1
  O  O596  1  0.91241156  0.81453656  0.17310490  1
  O  O597  1  0.91455644  0.81644770  0.42214011  1
  O  O598  1  0.91390053  0.81399584  0.67253927  1
  O  O599  1  0.91338841  0.81640697  0.92322139  1
  O  O600  1  0.08798752  0.18311349  0.07802617  1
  O  O601  1  0.08851306  0.18450766  0.32659831  1
  O  O602  1  0.08722198  0.18414938  0.57774141  1
  O  O603  1  0.08489327  0.18491735  0.82726563  1
  O  O604  1  0.08640913  0.51938295  0.07766626  1
  O  O605  1  0.08867406  0.51955811  0.32657124  1
  O  O606  1  0.08729092  0.51834384  0.57815556  1
  O  O607  1  0.08817724  0.51947441  0.82694326  1
  O  O608  1  0.08854795  0.85196961  0.07890958  1
  O  O609  1  0.08753061  0.85135585  0.32672726  1
  O  O610  1  0.08883306  0.85182667  0.57847994  1
  O  O611  1  0.08599356  0.85086093  0.82740037  1
  O  O612  1  0.58586702  0.18508692  0.07717887  1
  O  O613  1  0.58693827  0.18364934  0.32810904  1
  O  O614  1  0.58637940  0.18458739  0.57774279  1
  O  O615  1  0.58680896  0.18473331  0.82613777  1
  O  O616  1  0.58772723  0.51899862  0.07791023  1
  O  O617  1  0.58830975  0.51783582  0.32903511  1
  O  O618  1  0.58897188  0.51870153  0.57739422  1
  O  O619  1  0.58898253  0.51936346  0.82655963  1
  O  O620  1  0.58682034  0.85063881  0.07758241  1
  O  O621  1  0.58616849  0.85271705  0.32777780  1
  O  O622  1  0.58746093  0.85185845  0.57679656  1
  O  O623  1  0.58958777  0.85093019  0.82735487  1
  O  O624  1  0.33929897  0.18504126  0.04763071  1
  O  O625  1  0.33708630  0.18406487  0.29629621  1
  O  O626  1  0.33857548  0.18376827  0.54791566  1
  O  O627  1  0.33903588  0.18603967  0.79778911  1
  O  O628  1  0.33691523  0.51891986  0.04781524  1
  O  O629  1  0.33574357  0.51927602  0.29780032  1
  O  O630  1  0.33735208  0.51940732  0.54775929  1
  O  O631  1  0.33546707  0.51889940  0.79721564  1
  O  O632  1  0.33797155  0.85109483  0.04840324  1
  O  O633  1  0.33777288  0.85164910  0.29735740  1
  O  O634  1  0.33921837  0.85137305  0.54724314  1
  O  O635  1  0.33582475  0.85041316  0.79699937  1
  O  O636  1  0.83874723  0.18451209  0.04675339  1
  O  O637  1  0.83726654  0.18393009  0.29728762  1
  O  O638  1  0.83756481  0.18477337  0.54650244  1
  O  O639  1  0.83645759  0.18372160  0.79754511  1
  O  O640  1  0.83883661  0.51890912  0.04795422  1
  O  O641  1  0.83866484  0.52004691  0.29692066  1
  O  O642  1  0.83683614  0.51761697  0.54791914  1
  O  O643  1  0.83677374  0.51860016  0.79699288  1
  O  O644  1  0.83721776  0.85097458  0.04706620  1
  O  O645  1  0.83873271  0.85088076  0.29787695  1
  O  O646  1  0.83648887  0.85201385  0.54745007  1
  O  O647  1  0.83726976  0.85243130  0.79847173  1
  O  O648  1  0.16328363  0.14754489  0.20174474  1
  O  O649  1  0.16439131  0.14826106  0.45245827  1
  O  O650  1  0.16095867  0.14730596  0.70199093  1
  O  O651  1  0.16236510  0.14825335  0.95220301  1
  O  O652  1  0.16246013  0.48177438  0.20282847  1
  O  O653  1  0.16216951  0.48131901  0.45304814  1
  O  O654  1  0.16274753  0.48225812  0.70216318  1
  O  O655  1  0.16261745  0.48150533  0.95216074  1
  O  O656  1  0.16230944  0.81590978  0.20278023  1
  O  O657  1  0.16256812  0.81549751  0.45191617  1
  O  O658  1  0.16157255  0.81531479  0.70231745  1
  O  O659  1  0.16085429  0.81516929  0.95215658  1
  O  O660  1  0.66404613  0.14754135  0.20240421  1
  O  O661  1  0.66235924  0.14725340  0.45158971  1
  O  O662  1  0.66429834  0.14835604  0.70264663  1
  O  O663  1  0.66428942  0.14731780  0.95262678  1
  O  O664  1  0.66098266  0.48171811  0.20211990  1
  O  O665  1  0.66396039  0.48308675  0.45238602  1
  O  O666  1  0.66253769  0.48113068  0.70312871  1
  O  O667  1  0.66345259  0.48181844  0.95309597  1
  O  O668  1  0.66343601  0.81552383  0.20151762  1
  O  O669  1  0.66262956  0.81519309  0.45245011  1
  O  O670  1  0.66155031  0.81568366  0.70377089  1
  O  O671  1  0.66293827  0.81607719  0.95262909  1
