# generated using pymatgen
data_Na2MnFe(PO4)2
_symmetry_space_group_name_H-M   'P 1'
_cell_length_a   21.08165635
_cell_length_b   18.93357476
_cell_length_c   20.04078368
_cell_angle_alpha   90.00030545
_cell_angle_beta   90.00077552
_cell_angle_gamma   89.99893858
_symmetry_Int_Tables_number   1
_chemical_formula_structural   Na2MnFe(PO4)2
_chemical_formula_sum   'Na96 Mn48 Fe48 P96 O384'
_cell_volume   7999.30118152
_cell_formula_units_Z   48
loop_
 _symmetry_equiv_pos_site_id
 _symmetry_equiv_pos_as_xyz
  1  'x, y, z'
loop_
 _atom_site_type_symbol
 _atom_site_label
 _atom_site_symmetry_multiplicity
 _atom_site_fract_x
 _atom_site_fract_y
 _atom_site_fract_z
 _atom_site_occupancy
  Na  Na0  1  -0.00365727  -0.00107673  -0.00020249  1
  Na  Na1  1  -0.00097261  0.00050775  0.24996773  1
  Na  Na2  1  0.00045975  0.00103359  0.49984276  1
  Na  Na3  1  -0.00155725  0.00024508  0.74983190  1
  Na  Na4  1  0.00054308  0.33331842  -0.00118996  1
  Na  Na5  1  -0.00128889  0.33317804  0.25051816  1
  Na  Na6  1  -0.00056379  0.33338090  0.50065234  1
  Na  Na7  1  0.00030399  0.33268024  0.75005845  1
  Na  Na8  1  0.00086491  0.66706059  -0.00106422  1
  Na  Na9  1  -0.00224781  0.66595469  0.25049834  1
  Na  Na10  1  -0.00079295  0.66671396  0.50110210  1
  Na  Na11  1  0.00195587  0.66754513  0.74962352  1
  Na  Na12  1  0.49801196  -0.00001349  -0.00148451  1
  Na  Na13  1  0.49931328  0.00030298  0.25002591  1
  Na  Na14  1  0.49714168  -0.00137096  0.50148011  1
  Na  Na15  1  0.49861182  0.00014361  0.74983656  1
  Na  Na16  1  0.49943877  0.33296265  -0.00111793  1
  Na  Na17  1  0.49992289  0.33306773  0.24998533  1
  Na  Na18  1  0.49909395  0.33267036  0.50112677  1
  Na  Na19  1  0.49844707  0.33287385  0.75015821  1
  Na  Na20  1  0.49931024  0.66630955  0.00128079  1
  Na  Na21  1  0.50081889  0.66651157  0.25029633  1
  Na  Na22  1  0.50278046  0.66726183  0.49912206  1
  Na  Na23  1  0.50031118  0.66654640  0.74982283  1
  Na  Na24  1  0.25149031  0.00040625  0.12645617  1
  Na  Na25  1  0.25167978  0.00022933  0.37525121  1
  Na  Na26  1  0.25174028  0.00074315  0.62400877  1
  Na  Na27  1  0.25208790  0.00104564  0.87405228  1
  Na  Na28  1  0.24948975  0.33321563  0.12578563  1
  Na  Na29  1  0.24915348  0.33326272  0.37577315  1
  Na  Na30  1  0.25026408  0.33320222  0.62357793  1
  Na  Na31  1  0.24968253  0.33287225  0.87453018  1
  Na  Na32  1  0.24970711  0.66689372  0.12546615  1
  Na  Na33  1  0.25122173  0.66771945  0.37614251  1
  Na  Na34  1  0.24724400  0.66562885  0.62439091  1
  Na  Na35  1  0.24730777  0.66602097  0.87444071  1
  Na  Na36  1  0.75166919  0.00051904  0.12443013  1
  Na  Na37  1  0.75177496  0.00102313  0.37400375  1
  Na  Na38  1  0.75095133  0.00024519  0.62514130  1
  Na  Na39  1  0.75202153  0.00066008  0.87586709  1
  Na  Na40  1  0.75204170  0.33424822  0.12597623  1
  Na  Na41  1  0.75107797  0.33325867  0.37463282  1
  Na  Na42  1  0.75229913  0.33421664  0.62490189  1
  Na  Na43  1  0.74998070  0.33244879  0.87461775  1
  Na  Na44  1  0.75089867  0.66646181  0.12614349  1
  Na  Na45  1  0.74937379  0.66634850  0.37497598  1
  Na  Na46  1  0.74908016  0.66675179  0.62389701  1
  Na  Na47  1  0.75171424  0.66743031  0.87516190  1
  Na  Na48  1  -0.00110229  0.16666794  -0.00105021  1
  Na  Na49  1  -0.00150836  0.16686180  0.24966948  1
  Na  Na50  1  -0.00034188  0.16655815  0.50072173  1
  Na  Na51  1  0.00065514  0.16610446  0.75046102  1
  Na  Na52  1  -0.00008852  0.50010406  -0.00092881  1
  Na  Na53  1  -0.00213338  0.50079145  0.25020164  1
  Na  Na54  1  -0.00020800  0.49956681  0.50100481  1
  Na  Na55  1  0.00075111  0.49947578  0.75005284  1
  Na  Na56  1  -0.00060105  0.83311045  -0.00031651  1
  Na  Na57  1  -0.00181279  0.83358277  0.25081973  1
  Na  Na58  1  -0.00008113  0.83256846  0.49983812  1
  Na  Na59  1  -0.00019358  0.83277998  0.74913699  1
  Na  Na60  1  0.49936241  0.16627452  -0.00111599  1
  Na  Na61  1  0.49973531  0.16638600  0.24979062  1
  Na  Na62  1  0.49727289  0.16775145  0.50139090  1
  Na  Na63  1  0.49785505  0.16722016  0.74939351  1
  Na  Na64  1  0.49894212  0.50025093  0.00011343  1
  Na  Na65  1  0.50161912  0.50044065  0.25014268  1
  Na  Na66  1  0.50199797  0.49982285  0.50028830  1
  Na  Na67  1  0.49798293  0.50058829  0.74999447  1
  Na  Na68  1  0.49899023  0.83366211  -0.00013208  1
  Na  Na69  1  0.49756377  0.83458501  0.25012792  1
  Na  Na70  1  0.50087231  0.83297928  0.50020132  1
  Na  Na71  1  0.50130500  0.83310829  0.75029477  1
  Na  Na72  1  0.24965039  0.16659982  0.12573391  1
  Na  Na73  1  0.25124677  0.16595089  0.37594323  1
  Na  Na74  1  0.25073412  0.16662918  0.62384865  1
  Na  Na75  1  0.24974196  0.16709654  0.87400781  1
  Na  Na76  1  0.24889779  0.50065616  0.12590392  1
  Na  Na77  1  0.25062628  0.49964785  0.37596511  1
  Na  Na78  1  0.24957588  0.50003765  0.62348253  1
  Na  Na79  1  0.24921995  0.50018175  0.87515520  1
  Na  Na80  1  0.25237624  0.83229782  0.12609617  1
  Na  Na81  1  0.25000400  0.83335822  0.37539590  1
  Na  Na82  1  0.24944282  0.83285812  0.62433993  1
  Na  Na83  1  0.24867995  0.83415975  0.87403816  1
  Na  Na84  1  0.75133379  0.16593671  0.12504143  1
  Na  Na85  1  0.75162057  0.16631600  0.37424421  1
  Na  Na86  1  0.75200293  0.16626038  0.62525032  1
  Na  Na87  1  0.75155964  0.16616489  0.87510242  1
  Na  Na88  1  0.75169613  0.49961640  0.12607979  1
  Na  Na89  1  0.75040998  0.49989749  0.37444780  1
  Na  Na90  1  0.74954228  0.50030862  0.62422793  1
  Na  Na91  1  0.75162568  0.49969187  0.87515425  1
  Na  Na92  1  0.75261018  0.83215633  0.12528950  1
  Na  Na93  1  0.75035359  0.83301425  0.37475150  1
  Na  Na94  1  0.75020696  0.83306314  0.62459345  1
  Na  Na95  1  0.74993274  0.83383091  0.87541609  1
  Mn  Mn96  1  0.89236867  0.91632080  0.37761622  1
  Mn  Mn97  1  0.60841782  0.41586475  0.12266597  1
  Mn  Mn98  1  0.35842925  0.75012908  0.50245494  1
  Mn  Mn99  1  0.39169343  0.24979940  0.12708278  1
  Mn  Mn100  1  0.89237765  0.24952027  0.87682206  1
  Mn  Mn101  1  0.60744926  0.08373647  0.87254635  1
  Mn  Mn102  1  0.10734619  0.75028575  0.12357758  1
  Mn  Mn103  1  0.35848466  0.08321425  0.25293971  1
  Mn  Mn104  1  0.60753260  0.08317448  0.62310492  1
  Mn  Mn105  1  0.35681328  0.75056971  0.00186192  1
  Mn  Mn106  1  0.14270439  0.91637933  0.24803275  1
  Mn  Mn107  1  0.60756650  0.08344156  0.37373024  1
  Mn  Mn108  1  0.85888433  0.74995776  0.00263767  1
  Mn  Mn109  1  0.10681410  0.41674369  0.12324719  1
  Mn  Mn110  1  0.60794828  0.41685641  0.62336053  1
  Mn  Mn111  1  0.64221767  0.91676285  0.24750596  1
  Mn  Mn112  1  0.64242816  0.24986893  0.24789530  1
  Mn  Mn113  1  0.89221436  0.58277859  0.62768727  1
  Mn  Mn114  1  0.60795802  0.74959823  0.87301429  1
  Mn  Mn115  1  0.64272259  0.91674167  0.99836280  1
  Mn  Mn116  1  0.64216833  0.58331038  0.74836590  1
  Mn  Mn117  1  0.89232226  0.25036986  0.37775182  1
  Mn  Mn118  1  0.14189109  0.24999993  0.24821060  1
  Mn  Mn119  1  0.89296556  0.58380956  0.87649983  1
  Mn  Mn120  1  0.60762489  0.75113267  0.12322425  1
  Mn  Mn121  1  0.35822579  0.41722749  0.25318917  1
  Mn  Mn122  1  0.64279561  0.25012027  0.49828804  1
  Mn  Mn123  1  0.14265832  0.91693241  0.49787170  1
  Mn  Mn124  1  0.39176279  0.91621655  0.87710918  1
  Mn  Mn125  1  0.14162093  0.58334714  0.49705213  1
  Mn  Mn126  1  0.14181166  0.91731297  0.74698080  1
  Mn  Mn127  1  0.60712859  0.41654078  0.87247327  1
  Mn  Mn128  1  0.35683300  0.41648652  0.00258462  1
  Mn  Mn129  1  0.64245945  0.58317332  0.99782936  1
  Mn  Mn130  1  0.64257271  0.25001430  0.99782219  1
  Mn  Mn131  1  0.35822933  0.41665329  0.50181409  1
  Mn  Mn132  1  0.39284634  0.58378048  0.62713981  1
  Mn  Mn133  1  0.89205251  0.91715223  0.62738517  1
  Mn  Mn134  1  0.35728998  0.74921351  0.75188575  1
  Mn  Mn135  1  0.14234696  0.24959020  0.49792186  1
  Mn  Mn136  1  0.10765689  0.08216030  0.87291515  1
  Mn  Mn137  1  0.39157843  0.58371938  0.12779052  1
  Mn  Mn138  1  0.85856448  0.41633102  0.00243452  1
  Mn  Mn139  1  0.10864335  0.41683836  0.87185856  1
  Mn  Mn140  1  0.14170605  0.91718177  0.99816367  1
  Mn  Mn141  1  0.14188147  0.58367125  0.24901210  1
  Mn  Mn142  1  0.64240341  0.91735761  0.49759734  1
  Mn  Mn143  1  0.10688470  0.08318916  0.12236837  1
  Fe  Fe144  1  0.39112790  0.58327127  0.87666303  1
  Fe  Fe145  1  0.35660581  0.08387615  0.75112622  1
  Fe  Fe146  1  0.14166094  0.58330901  0.99833238  1
  Fe  Fe147  1  0.64324512  0.91720375  0.74886684  1
  Fe  Fe148  1  0.10723658  0.41611941  0.62350440  1
  Fe  Fe149  1  0.64397629  0.58329497  0.24842981  1
  Fe  Fe150  1  0.10640456  0.74968349  0.37326412  1
  Fe  Fe151  1  0.35792913  0.74941130  0.25278195  1
  Fe  Fe152  1  0.39302612  0.91639533  0.37725702  1
  Fe  Fe153  1  0.39285183  0.25043123  0.37655481  1
  Fe  Fe154  1  0.64341086  0.58295099  0.49772340  1
  Fe  Fe155  1  0.85737885  0.75016549  0.75109611  1
  Fe  Fe156  1  0.14329183  0.25017914  0.74759386  1
  Fe  Fe157  1  0.85658628  0.74996050  0.50168535  1
  Fe  Fe158  1  0.89207549  0.58341724  0.37710873  1
  Fe  Fe159  1  0.10660217  0.75045278  0.62297960  1
  Fe  Fe160  1  0.60732518  0.08315135  0.12312767  1
  Fe  Fe161  1  0.39235058  0.91692534  0.12649742  1
  Fe  Fe162  1  0.10741609  0.08319820  0.37332979  1
  Fe  Fe163  1  0.10622676  0.41703897  0.37340040  1
  Fe  Fe164  1  0.10718536  0.75081726  0.87295291  1
  Fe  Fe165  1  0.89264222  0.25011409  0.12656799  1
  Fe  Fe166  1  0.39455033  0.58323665  0.37665003  1
  Fe  Fe167  1  0.85855821  0.08354383  0.50193267  1
  Fe  Fe168  1  0.60810263  0.41645926  0.37389397  1
  Fe  Fe169  1  0.10727975  0.08331656  0.62331116  1
  Fe  Fe170  1  0.39168840  0.25061207  0.87668327  1
  Fe  Fe171  1  0.64294077  0.24960845  0.74823541  1
  Fe  Fe172  1  0.35697627  0.08365400  0.00174490  1
  Fe  Fe173  1  0.35746385  0.08326599  0.50175984  1
  Fe  Fe174  1  0.39310476  0.91605947  0.62741807  1
  Fe  Fe175  1  0.85752027  0.41671358  0.50205859  1
  Fe  Fe176  1  0.14286346  0.58240037  0.74780892  1
  Fe  Fe177  1  0.85743630  0.08375122  0.00238080  1
  Fe  Fe178  1  0.14216301  0.24961271  0.99853848  1
  Fe  Fe179  1  0.89258039  0.58333120  0.12690008  1
  Fe  Fe180  1  0.85728682  0.08325040  0.25160248  1
  Fe  Fe181  1  0.35652763  0.41665180  0.75104420  1
  Fe  Fe182  1  0.89201418  0.91592719  0.87594596  1
  Fe  Fe183  1  0.89220620  0.91644410  0.12748652  1
  Fe  Fe184  1  0.85766275  0.41667226  0.75137869  1
  Fe  Fe185  1  0.85739777  0.74971504  0.25250941  1
  Fe  Fe186  1  0.85764705  0.41682503  0.25248220  1
  Fe  Fe187  1  0.60838110  0.75047196  0.62374715  1
  Fe  Fe188  1  0.89317339  0.24998753  0.62715571  1
  Fe  Fe189  1  0.39215877  0.25009930  0.62774113  1
  Fe  Fe190  1  0.60753305  0.75008588  0.37278122  1
  Fe  Fe191  1  0.85741118  0.08315803  0.75164275  1
  P  P192  1  0.05217628  0.24993687  0.10938980  1
  P  P193  1  0.05332571  0.24989581  0.36052718  1
  P  P194  1  0.05402554  0.24974293  0.61153608  1
  P  P195  1  0.05557753  0.24938332  0.85991531  1
  P  P196  1  0.05218672  0.58356325  0.10987409  1
  P  P197  1  0.05141563  0.58346420  0.36058817  1
  P  P198  1  0.05477787  0.58282418  0.61142798  1
  P  P199  1  0.05558504  0.58419572  0.85997153  1
  P  P200  1  0.05133634  0.91664421  0.11035127  1
  P  P201  1  0.05367702  0.91660406  0.36034058  1
  P  P202  1  0.05317593  0.91722649  0.60979101  1
  P  P203  1  0.05171138  0.91626523  0.85962910  1
  P  P204  1  0.55318668  0.24875115  0.10961328  1
  P  P205  1  0.55239738  0.25041819  0.36066813  1
  P  P206  1  0.55336607  0.24983405  0.61160120  1
  P  P207  1  0.55234960  0.24985819  0.85899073  1
  P  P208  1  0.55464854  0.58350523  0.11131880  1
  P  P209  1  0.55561173  0.58312855  0.36083877  1
  P  P210  1  0.55494127  0.58424876  0.60939699  1
  P  P211  1  0.55123891  0.58305209  0.86012822  1
  P  P212  1  0.55188593  0.91780802  0.10988204  1
  P  P213  1  0.55238358  0.91645473  0.36031433  1
  P  P214  1  0.55407208  0.91627346  0.61163684  1
  P  P215  1  0.55403809  0.91706068  0.85932726  1
  P  P216  1  0.44627644  0.08274410  0.13865555  1
  P  P217  1  0.44622669  0.08335155  0.39119519  1
  P  P218  1  0.44434421  0.08311379  0.63944714  1
  P  P219  1  0.44386567  0.08458543  0.88874089  1
  P  P220  1  0.44674126  0.41661294  0.14027658  1
  P  P221  1  0.44865536  0.41723884  0.39008218  1
  P  P222  1  0.44587250  0.41633973  0.64069799  1
  P  P223  1  0.44410141  0.41674034  0.88848541  1
  P  P224  1  0.44549757  0.75085986  0.14077604  1
  P  P225  1  0.44721893  0.74953480  0.38891723  1
  P  P226  1  0.44840237  0.75051929  0.63997489  1
  P  P227  1  0.44626060  0.74885677  0.89008264  1
  P  P228  1  0.94454640  0.08362260  0.13921163  1
  P  P229  1  0.94639968  0.08337770  0.38954774  1
  P  P230  1  0.94613415  0.08439700  0.63962316  1
  P  P231  1  0.94436727  0.08226250  0.88913224  1
  P  P232  1  0.94579837  0.41656794  0.14058890  1
  P  P233  1  0.94561855  0.41766161  0.38998927  1
  P  P234  1  0.94624933  0.41571100  0.63959357  1
  P  P235  1  0.94599458  0.41648390  0.88839945  1
  P  P236  1  0.94593343  0.74969863  0.14095499  1
  P  P237  1  0.94545145  0.74899144  0.38993517  1
  P  P238  1  0.94565837  0.74984486  0.63917215  1
  P  P239  1  0.94650850  0.75065836  0.88811378  1
  P  P240  1  0.19557091  0.08319848  0.23622735  1
  P  P241  1  0.19625273  0.08320777  0.48554083  1
  P  P242  1  0.19708146  0.08408193  0.73395496  1
  P  P243  1  0.19770414  0.08357090  0.98496989  1
  P  P244  1  0.19528983  0.41710160  0.23660157  1
  P  P245  1  0.19454358  0.41637599  0.48528642  1
  P  P246  1  0.19729344  0.41642086  0.73381315  1
  P  P247  1  0.19574379  0.41636914  0.98543369  1
  P  P248  1  0.19686334  0.74974612  0.23663282  1
  P  P249  1  0.19466531  0.75029334  0.48523125  1
  P  P250  1  0.19442848  0.74942938  0.73505848  1
  P  P251  1  0.19525628  0.74997160  0.98451654  1
  P  P252  1  0.69711352  0.08319032  0.23430173  1
  P  P253  1  0.69884819  0.08379090  0.48509882  1
  P  P254  1  0.69789743  0.08332416  0.73539864  1
  P  P255  1  0.69688073  0.08328489  0.98596934  1
  P  P256  1  0.69693296  0.41723938  0.23670349  1
  P  P257  1  0.69768095  0.41685131  0.48465964  1
  P  P258  1  0.69805570  0.41585014  0.73515920  1
  P  P259  1  0.69727580  0.41654113  0.98465441  1
  P  P260  1  0.69680477  0.74948145  0.23647628  1
  P  P261  1  0.69582750  0.74968641  0.48539441  1
  P  P262  1  0.69755552  0.75082267  0.73476828  1
  P  P263  1  0.69732271  0.75003865  0.98530984  1
  P  P264  1  0.30253114  0.24921557  0.01397956  1
  P  P265  1  0.30380871  0.25009881  0.26641334  1
  P  P266  1  0.30579052  0.24950871  0.51422982  1
  P  P267  1  0.30369141  0.25027464  0.76358542  1
  P  P268  1  0.30212687  0.58362009  0.01420944  1
  P  P269  1  0.30407261  0.58415416  0.26677901  1
  P  P270  1  0.30485635  0.58349537  0.51380768  1
  P  P271  1  0.30223955  0.58244751  0.76470126  1
  P  P272  1  0.30338569  0.91767646  0.01571954  1
  P  P273  1  0.30569414  0.91569559  0.26515081  1
  P  P274  1  0.30581852  0.91700060  0.51457326  1
  P  P275  1  0.30418243  0.91697370  0.76315201  1
  P  P276  1  0.80427597  0.24941892  0.01567371  1
  P  P277  1  0.80505210  0.24978585  0.26376392  1
  P  P278  1  0.80477606  0.25024376  0.51564356  1
  P  P279  1  0.80393740  0.24994780  0.76354984  1
  P  P280  1  0.80443028  0.58334981  0.01601838  1
  P  P281  1  0.80483847  0.58341057  0.26480406  1
  P  P282  1  0.80380618  0.58332002  0.51348259  1
  P  P283  1  0.80352530  0.58355548  0.76453715  1
  P  P284  1  0.80561263  0.91721819  0.01458694  1
  P  P285  1  0.80475200  0.91671750  0.26388204  1
  P  P286  1  0.80367568  0.91657337  0.51475194  1
  P  P287  1  0.80300236  0.91649020  0.76519304  1
  O  O288  1  0.05608113  0.24973452  0.18611084  1
  O  O289  1  0.05607355  0.24969264  0.43735531  1
  O  O290  1  0.05885068  0.24973229  0.68821925  1
  O  O291  1  0.05970642  0.24942763  0.93671247  1
  O  O292  1  0.05598639  0.58350176  0.18659487  1
  O  O293  1  0.05500216  0.58349653  0.43730581  1
  O  O294  1  0.05873113  0.58249482  0.68817654  1
  O  O295  1  0.05900800  0.58306370  0.93681352  1
  O  O296  1  0.05591680  0.91691116  0.18699028  1
  O  O297  1  0.05662849  0.91682749  0.43709717  1
  O  O298  1  0.05562718  0.91726196  0.68658506  1
  O  O299  1  0.05531400  0.91706514  0.93633122  1
  O  O300  1  0.55656921  0.24935947  0.18643985  1
  O  O301  1  0.55606664  0.24994876  0.43740131  1
  O  O302  1  0.55910371  0.24969723  0.68819687  1
  O  O303  1  0.55677476  0.24963946  0.93569205  1
  O  O304  1  0.55977202  0.58348549  0.18806921  1
  O  O305  1  0.56008169  0.58299269  0.43762126  1
  O  O306  1  0.55742624  0.58324460  0.68623545  1
  O  O307  1  0.55538150  0.58298546  0.93682008  1
  O  O308  1  0.55577412  0.91727792  0.18662877  1
  O  O309  1  0.55626214  0.91680402  0.43705832  1
  O  O310  1  0.55937135  0.91722983  0.68826292  1
  O  O311  1  0.55735693  0.91729419  0.93611181  1
  O  O312  1  0.44148763  0.08350169  0.06198444  1
  O  O313  1  0.44417465  0.08349528  0.31426955  1
  O  O314  1  0.44086978  0.08329755  0.56268144  1
  O  O315  1  0.43972293  0.08398491  0.81196566  1
  O  O316  1  0.44301925  0.41659825  0.06345903  1
  O  O317  1  0.44517165  0.41739805  0.31339072  1
  O  O318  1  0.44342271  0.41689481  0.56389160  1
  O  O319  1  0.43999977  0.41681510  0.81174463  1
  O  O320  1  0.44228371  0.74978073  0.06398236  1
  O  O321  1  0.44261524  0.74946349  0.31228082  1
  O  O322  1  0.44480353  0.74996918  0.56326017  1
  O  O323  1  0.44324195  0.74942839  0.81330135  1
  O  O324  1  0.94122714  0.08365503  0.06234698  1
  O  O325  1  0.94133511  0.08338051  0.31289870  1
  O  O326  1  0.94168178  0.08364468  0.56286254  1
  O  O327  1  0.94038773  0.08340426  0.81227415  1
  O  O328  1  0.94402038  0.41652396  0.06371081  1
  O  O329  1  0.94090177  0.41703603  0.31326353  1
  O  O330  1  0.94144709  0.41667362  0.56288256  1
  O  O331  1  0.94141590  0.41628372  0.81164858  1
  O  O332  1  0.94406140  0.74965341  0.06407952  1
  O  O333  1  0.94067870  0.74963917  0.31322598  1
  O  O334  1  0.94043318  0.74975720  0.56252606  1
  O  O335  1  0.94158863  0.75001006  0.81143147  1
  O  O336  1  0.19384251  0.08284667  0.06171129  1
  O  O337  1  0.19104198  0.08300818  0.31299008  1
  O  O338  1  0.19115796  0.08327299  0.56219827  1
  O  O339  1  0.19338355  0.08303450  0.81065348  1
  O  O340  1  0.19298395  0.41647235  0.06222640  1
  O  O341  1  0.19029877  0.41721565  0.31335049  1
  O  O342  1  0.19013960  0.41640249  0.56202772  1
  O  O343  1  0.19418441  0.41633152  0.81063913  1
  O  O344  1  0.19290098  0.75064112  0.06139795  1
  O  O345  1  0.19111353  0.74981514  0.31325509  1
  O  O346  1  0.18976363  0.75014394  0.56199351  1
  O  O347  1  0.19060253  0.75090886  0.81185621  1
  O  O348  1  0.69172822  0.08306071  0.06260592  1
  O  O349  1  0.69298563  0.08321344  0.31103397  1
  O  O350  1  0.69421476  0.08354420  0.56174416  1
  O  O351  1  0.69425352  0.08353391  0.81207742  1
  O  O352  1  0.69420778  0.41660586  0.06150533  1
  O  O353  1  0.69176512  0.41621929  0.31334763  1
  O  O354  1  0.69372895  0.41634255  0.56135563  1
  O  O355  1  0.69407723  0.41621426  0.81183134  1
  O  O356  1  0.69383781  0.75004986  0.06210568  1
  O  O357  1  0.69160141  0.75052143  0.31316629  1
  O  O358  1  0.69145862  0.75055446  0.56212543  1
  O  O359  1  0.69397098  0.75011907  0.81150332  1
  O  O360  1  0.30668571  0.25015646  0.18956520  1
  O  O361  1  0.31004554  0.25058501  0.43748111  1
  O  O362  1  0.30801582  0.25030057  0.68681221  1
  O  O363  1  0.30703039  0.24996033  0.93729168  1
  O  O364  1  0.30648319  0.58353846  0.18989305  1
  O  O365  1  0.31035016  0.58357354  0.43718752  1
  O  O366  1  0.30613267  0.58351246  0.68797782  1
  O  O367  1  0.30687920  0.58357653  0.93752381  1
  O  O368  1  0.30949788  0.91660085  0.18837123  1
  O  O369  1  0.30987780  0.91588760  0.43774604  1
  O  O370  1  0.30832607  0.91575602  0.68639628  1
  O  O371  1  0.30609156  0.91674405  0.93885903  1
  O  O372  1  0.80870090  0.25015125  0.18705032  1
  O  O373  1  0.80720839  0.25000551  0.43883123  1
  O  O374  1  0.80869015  0.25006783  0.68687647  1
  O  O375  1  0.80700639  0.25001512  0.93886254  1
  O  O376  1  0.80912675  0.58338554  0.18811795  1
  O  O377  1  0.80811213  0.58331143  0.43680289  1
  O  O378  1  0.80588658  0.58361540  0.68765681  1
  O  O379  1  0.80791569  0.58363554  0.93922464  1
  O  O380  1  0.80843975  0.91638718  0.18708594  1
  O  O381  1  0.80646331  0.91661534  0.43796913  1
  O  O382  1  0.80639501  0.91636034  0.68843694  1
  O  O383  1  0.80910940  0.91614439  0.93778347  1
  O  O384  1  0.23238409  0.24958459  0.03846620  1
  O  O385  1  0.23412630  0.24972181  0.29148460  1
  O  O386  1  0.23554043  0.25002481  0.53787599  1
  O  O387  1  0.23323350  0.25017361  0.78727751  1
  O  O388  1  0.23183423  0.58367327  0.03822775  1
  O  O389  1  0.23441930  0.58366288  0.29216490  1
  O  O390  1  0.23451423  0.58325905  0.53682572  1
  O  O391  1  0.23200515  0.58292132  0.78882487  1
  O  O392  1  0.23385413  0.91658097  0.04144881  1
  O  O393  1  0.23567205  0.91657812  0.28948269  1
  O  O394  1  0.23567367  0.91659611  0.53844895  1
  O  O395  1  0.23419746  0.91736902  0.78758157  1
  O  O396  1  0.73469668  0.25006112  0.04112514  1
  O  O397  1  0.73519923  0.24975311  0.28868703  1
  O  O398  1  0.73513095  0.25034988  0.54111094  1
  O  O399  1  0.73369153  0.24945215  0.78778552  1
  O  O400  1  0.73475355  0.58309014  0.04102630  1
  O  O401  1  0.73445854  0.58333123  0.28865654  1
  O  O402  1  0.73349236  0.58325226  0.53745405  1
  O  O403  1  0.73409338  0.58348947  0.79052822  1
  O  O404  1  0.73572725  0.91631137  0.03937250  1
  O  O405  1  0.73490871  0.91695843  0.28871459  1
  O  O406  1  0.73411897  0.91673379  0.54027270  1
  O  O407  1  0.73299312  0.91703701  0.79008589  1
  O  O408  1  0.26577112  0.08346189  0.21261222  1
  O  O409  1  0.26679007  0.08322110  0.46245840  1
  O  O410  1  0.26727187  0.08394539  0.70973318  1
  O  O411  1  0.26756557  0.08364602  0.95997487  1
  O  O412  1  0.26538882  0.41716312  0.21282582  1
  O  O413  1  0.26482888  0.41632434  0.46184022  1
  O  O414  1  0.26727503  0.41639401  0.70892999  1
  O  O415  1  0.26524115  0.41643421  0.95974812  1
  O  O416  1  0.26727076  0.74945855  0.21342333  1
  O  O417  1  0.26504999  0.75051962  0.46225329  1
  O  O418  1  0.26446104  0.74939276  0.71060238  1
  O  O419  1  0.26480372  0.75041995  0.95880453  1
  O  O420  1  0.76739887  0.08315347  0.21054646  1
  O  O421  1  0.76906069  0.08387833  0.46107464  1
  O  O422  1  0.76807214  0.08314063  0.71084604  1
  O  O423  1  0.76729105  0.08361751  0.96256042  1
  O  O424  1  0.76745313  0.41715946  0.21347026  1
  O  O425  1  0.76792171  0.41657104  0.46055657  1
  O  O426  1  0.76812153  0.41677965  0.71046876  1
  O  O427  1  0.76696514  0.41611955  0.95967687  1
  O  O428  1  0.76726480  0.74933861  0.21318763  1
  O  O429  1  0.76627777  0.74986164  0.46170884  1
  O  O430  1  0.76768368  0.75008652  0.71013092  1
  O  O431  1  0.76710720  0.75048699  0.96058942  1
  O  O432  1  0.01446490  0.08360824  0.16394430  1
  O  O433  1  0.01684578  0.08340946  0.41301990  1
  O  O434  1  0.01647974  0.08353438  0.66341029  1
  O  O435  1  0.01443562  0.08294502  0.91330069  1
  O  O436  1  0.01525521  0.41674489  0.16663013  1
  O  O437  1  0.01600281  0.41685623  0.41365230  1
  O  O438  1  0.01668708  0.41596337  0.66314651  1
  O  O439  1  0.01610205  0.41668614  0.91222664  1
  O  O440  1  0.01542489  0.74991917  0.16692033  1
  O  O441  1  0.01588419  0.74960985  0.41342016  1
  O  O442  1  0.01623493  0.75008751  0.66210797  1
  O  O443  1  0.01672745  0.75033205  0.91212179  1
  O  O444  1  0.51641636  0.08305816  0.16299445  1
  O  O445  1  0.51568649  0.08312277  0.41730810  1
  O  O446  1  0.51435489  0.08342924  0.66401110  1
  O  O447  1  0.51402502  0.08347106  0.91263935  1
  O  O448  1  0.51651872  0.41647809  0.16501248  1
  O  O449  1  0.51862570  0.41678510  0.41517136  1
  O  O450  1  0.51557332  0.41675641  0.66597300  1
  O  O451  1  0.51403658  0.41643638  0.91312172  1
  O  O452  1  0.51532421  0.75060716  0.16570547  1
  O  O453  1  0.51762402  0.74961303  0.41273382  1
  O  O454  1  0.51839030  0.75004580  0.66471492  1
  O  O455  1  0.51582549  0.74962106  0.91564275  1
  O  O456  1  0.48352789  0.24934818  0.08443916  1
  O  O457  1  0.48236336  0.25011393  0.33587300  1
  O  O458  1  0.48272415  0.24994032  0.58899127  1
  O  O459  1  0.48198674  0.25012246  0.83538474  1
  O  O460  1  0.48439700  0.58359841  0.08785057  1
  O  O461  1  0.48517639  0.58350510  0.33710541  1
  O  O462  1  0.48527784  0.58361555  0.58404097  1
  O  O463  1  0.48121755  0.58321469  0.83552994  1
  O  O464  1  0.48192689  0.91702293  0.08513931  1
  O  O465  1  0.48224892  0.91698522  0.33606256  1
  O  O466  1  0.48365274  0.91626461  0.58818518  1
  O  O467  1  0.48409284  0.91687458  0.83491327  1
  O  O468  1  0.98206410  0.25003954  0.08507024  1
  O  O469  1  0.98371017  0.24996772  0.33520175  1
  O  O470  1  0.98373437  0.24993333  0.58760893  1
  O  O471  1  0.98540671  0.24927058  0.83621862  1
  O  O472  1  0.98209175  0.58353762  0.08538730  1
  O  O473  1  0.98139750  0.58349000  0.33595981  1
  O  O474  1  0.98469900  0.58310443  0.58713400  1
  O  O475  1  0.98567021  0.58353683  0.83535939  1
  O  O476  1  0.98113995  0.91625704  0.08640697  1
  O  O477  1  0.98395731  0.91675300  0.33523825  1
  O  O478  1  0.98364163  0.91703288  0.58414866  1
  O  O479  1  0.98180156  0.91646984  0.83460555  1
  O  O480  1  0.08616122  0.31497845  0.07676789  1
  O  O481  1  0.08719017  0.31526061  0.32838831  1
  O  O482  1  0.08741643  0.31473041  0.57818780  1
  O  O483  1  0.08911612  0.31443099  0.82659296  1
  O  O484  1  0.08618839  0.64858073  0.07721377  1
  O  O485  1  0.08525370  0.64855908  0.32783342  1
  O  O486  1  0.08829983  0.64800442  0.57854694  1
  O  O487  1  0.08907438  0.64952553  0.82765528  1
  O  O488  1  0.08460056  0.98170373  0.07689761  1
  O  O489  1  0.08774281  0.98166289  0.32786966  1
  O  O490  1  0.08737563  0.98249529  0.57777919  1
  O  O491  1  0.08565088  0.98130946  0.82671643  1
  O  O492  1  0.58743048  0.31379357  0.07715574  1
  O  O493  1  0.58631015  0.31546679  0.32805656  1
  O  O494  1  0.58636182  0.31493141  0.57803315  1
  O  O495  1  0.58631400  0.31478410  0.82608587  1
  O  O496  1  0.58785632  0.64873169  0.07817354  1
  O  O497  1  0.58917869  0.64816970  0.32765696  1
  O  O498  1  0.58903191  0.64956421  0.57756306  1
  O  O499  1  0.58538248  0.64804808  0.82751617  1
  O  O500  1  0.58552641  0.98298206  0.07720094  1
  O  O501  1  0.58624057  0.98151695  0.32760448  1
  O  O502  1  0.58695010  0.98133851  0.57760904  1
  O  O503  1  0.58793996  0.98206957  0.82643757  1
  O  O504  1  0.41287362  0.01754852  0.17169705  1
  O  O505  1  0.41152929  0.01824575  0.42296526  1
  O  O506  1  0.41070320  0.01789599  0.67220950  1
  O  O507  1  0.40966478  0.01994454  0.92205418  1
  O  O508  1  0.41265394  0.35154881  0.17269151  1
  O  O509  1  0.41430852  0.35229513  0.42248315  1
  O  O510  1  0.41153250  0.35129413  0.67287109  1
  O  O511  1  0.41048961  0.35133765  0.92122704  1
  O  O512  1  0.41122487  0.68606293  0.17384452  1
  O  O513  1  0.41410520  0.68443876  0.42243650  1
  O  O514  1  0.41427823  0.68547521  0.67258899  1
  O  O515  1  0.41220361  0.68367477  0.92228215  1
  O  O516  1  0.91071742  0.01853981  0.17210617  1
  O  O517  1  0.91303439  0.01843367  0.42310270  1
  O  O518  1  0.91210410  0.01961409  0.67287629  1
  O  O519  1  0.91093435  0.01691002  0.92146713  1
  O  O520  1  0.91142329  0.35144963  0.17270969  1
  O  O521  1  0.91195961  0.35279785  0.42344700  1
  O  O522  1  0.91292691  0.35058953  0.67270907  1
  O  O523  1  0.91283192  0.35133371  0.92161464  1
  O  O524  1  0.91162989  0.68449713  0.17302141  1
  O  O525  1  0.91221299  0.68392461  0.42323349  1
  O  O526  1  0.91265991  0.68486479  0.67294294  1
  O  O527  1  0.91322836  0.68572901  0.92178546  1
  O  O528  1  0.16239897  0.01814078  0.20272708  1
  O  O529  1  0.16306170  0.01825633  0.45193508  1
  O  O530  1  0.16313259  0.01925672  0.70067943  1
  O  O531  1  0.16402486  0.01834145  0.95200079  1
  O  O532  1  0.16195683  0.35197074  0.20336264  1
  O  O533  1  0.16097872  0.35137393  0.45221928  1
  O  O534  1  0.16312801  0.35143230  0.70120712  1
  O  O535  1  0.16168892  0.35120994  0.95301379  1
  O  O536  1  0.16348685  0.68476513  0.20320647  1
  O  O537  1  0.16128402  0.68533860  0.45164077  1
  O  O538  1  0.16071172  0.68412026  0.70273944  1
  O  O539  1  0.16094980  0.68477410  0.95267344  1
  O  O540  1  0.66338542  0.01819769  0.20119112  1
  O  O541  1  0.66524523  0.01876792  0.45197994  1
  O  O542  1  0.66419815  0.01816236  0.70268479  1
  O  O543  1  0.66388099  0.01819302  0.95244936  1
  O  O544  1  0.66390938  0.35225270  0.20282784  1
  O  O545  1  0.66381263  0.35182797  0.45165144  1
  O  O546  1  0.66471736  0.35060252  0.70226483  1
  O  O547  1  0.66289596  0.35158022  0.95235742  1
  O  O548  1  0.66357691  0.68430055  0.20358797  1
  O  O549  1  0.66256426  0.68444678  0.45247376  1
  O  O550  1  0.66316929  0.68606691  0.70188457  1
  O  O551  1  0.66372357  0.68484750  0.95255145  1
  O  O552  1  0.33611903  0.31408577  0.04749042  1
  O  O553  1  0.33800768  0.31511401  0.29894117  1
  O  O554  1  0.33956136  0.31425760  0.54780703  1
  O  O555  1  0.33685803  0.31539492  0.79695602  1
  O  O556  1  0.33555791  0.64868517  0.04740836  1
  O  O557  1  0.33844850  0.64925791  0.29883501  1
  O  O558  1  0.33770335  0.64860530  0.54757990  1
  O  O559  1  0.33616317  0.64720564  0.79812582  1
  O  O560  1  0.33726207  0.98320429  0.04762958  1
  O  O561  1  0.33987675  0.98047322  0.29834779  1
  O  O562  1  0.33919163  0.98233391  0.54709675  1
  O  O563  1  0.33789223  0.98225981  0.79547430  1
  O  O564  1  0.83908877  0.31410920  0.04816868  1
  O  O565  1  0.83879868  0.31478047  0.29688360  1
  O  O566  1  0.83917728  0.31545053  0.54765284  1
  O  O567  1  0.83716672  0.31509812  0.79682945  1
  O  O568  1  0.83855683  0.64834469  0.04870330  1
  O  O569  1  0.83810993  0.64847138  0.29830897  1
  O  O570  1  0.83708187  0.64839791  0.54675544  1
  O  O571  1  0.83781435  0.64877581  0.79653031  1
  O  O572  1  0.83891380  0.98279366  0.04692904  1
  O  O573  1  0.83860759  0.98199347  0.29633931  1
  O  O574  1  0.83804632  0.98160245  0.54698495  1
  O  O575  1  0.83743102  0.98138711  0.79756791  1
  O  O576  1  0.41260604  0.14756877  0.17225264  1
  O  O577  1  0.41174681  0.14845992  0.42312252  1
  O  O578  1  0.41031695  0.14808287  0.67239350  1
  O  O579  1  0.41087560  0.15009774  0.92170234  1
  O  O580  1  0.41281318  0.48170660  0.17285532  1
  O  O581  1  0.41500081  0.48246781  0.42283175  1
  O  O582  1  0.41132039  0.48127243  0.67302921  1
  O  O583  1  0.41057715  0.48193946  0.92151882  1
  O  O584  1  0.41152854  0.81621290  0.17269479  1
  O  O585  1  0.41395191  0.81466750  0.42221410  1
  O  O586  1  0.41441079  0.81545641  0.67262558  1
  O  O587  1  0.41184529  0.81399649  0.92227189  1
  O  O588  1  0.91081524  0.14873673  0.17207423  1
  O  O589  1  0.91303889  0.14829359  0.42312287  1
  O  O590  1  0.91305090  0.14959673  0.67282918  1
  O  O591  1  0.91040664  0.14703797  0.92250345  1
  O  O592  1  0.91126762  0.48164865  0.17266327  1
  O  O593  1  0.91251324  0.48281003  0.42328911  1
  O  O594  1  0.91278039  0.48064878  0.67316869  1
  O  O595  1  0.91254873  0.48152000  0.92143598  1
  O  O596  1  0.91120380  0.81463006  0.17305096  1
  O  O597  1  0.91184031  0.81392176  0.42339030  1
  O  O598  1  0.91236103  0.81480671  0.67269822  1
  O  O599  1  0.91326029  0.81582003  0.92121629  1
  O  O600  1  0.08608643  0.18500672  0.07629333  1
  O  O601  1  0.08730261  0.18477194  0.32808634  1
  O  O602  1  0.08722396  0.18452403  0.57820123  1
  O  O603  1  0.08921948  0.18443464  0.82680567  1
  O  O604  1  0.08610828  0.51857857  0.07697788  1
  O  O605  1  0.08516319  0.51836600  0.32791071  1
  O  O606  1  0.08799686  0.51761254  0.57830363  1
  O  O607  1  0.08975588  0.51940154  0.82662769  1
  O  O608  1  0.08510173  0.85160164  0.07764708  1
  O  O609  1  0.08736901  0.85113145  0.32804290  1
  O  O610  1  0.08751141  0.85214367  0.57772444  1
  O  O611  1  0.08580989  0.85130509  0.82717704  1
  O  O612  1  0.58696007  0.18338324  0.07738815  1
  O  O613  1  0.58622630  0.18529950  0.32790526  1
  O  O614  1  0.58621458  0.18484614  0.57767007  1
  O  O615  1  0.58594031  0.18477995  0.82587663  1
  O  O616  1  0.58780255  0.51837006  0.07795323  1
  O  O617  1  0.58882509  0.51794721  0.32763741  1
  O  O618  1  0.58967792  0.51938947  0.57691762  1
  O  O619  1  0.58506502  0.51806867  0.82714593  1
  O  O620  1  0.58604632  0.85276663  0.07734203  1
  O  O621  1  0.58593294  0.85134836  0.32741994  1
  O  O622  1  0.58732066  0.85112478  0.57848569  1
  O  O623  1  0.58833750  0.85207258  0.82692735  1
  O  O624  1  0.33592668  0.18394074  0.04690026  1
  O  O625  1  0.33842639  0.18518122  0.29860415  1
  O  O626  1  0.33884292  0.18416001  0.54716584  1
  O  O627  1  0.33702224  0.18521689  0.79686729  1
  O  O628  1  0.33551415  0.51863219  0.04765130  1
  O  O629  1  0.33887466  0.51934623  0.29919078  1
  O  O630  1  0.33802611  0.51839555  0.54712766  1
  O  O631  1  0.33560348  0.51709069  0.79727610  1
  O  O632  1  0.33849088  0.85309581  0.04812990  1
  O  O633  1  0.33900096  0.85034781  0.29800897  1
  O  O634  1  0.33966882  0.85224873  0.54814386  1
  O  O635  1  0.33744187  0.85195397  0.79671835  1
  O  O636  1  0.83837474  0.18418594  0.04775731  1
  O  O637  1  0.83865491  0.18443540  0.29637361  1
  O  O638  1  0.83928838  0.18530642  0.54797578  1
  O  O639  1  0.83756028  0.18489919  0.79663095  1
  O  O640  1  0.83883771  0.51839735  0.04841360  1
  O  O641  1  0.83836608  0.51841750  0.29817242  1
  O  O642  1  0.83724463  0.51822600  0.54673517  1
  O  O643  1  0.83806169  0.51848134  0.79639929  1
  O  O644  1  0.84010230  0.85273153  0.04788391  1
  O  O645  1  0.83839818  0.85163900  0.29689959  1
  O  O646  1  0.83763230  0.85127221  0.54693409  1
  O  O647  1  0.83677812  0.85124834  0.79784634  1
  O  O648  1  0.16206770  0.14821302  0.20305948  1
  O  O649  1  0.16292199  0.14818975  0.45205885  1
  O  O650  1  0.16332336  0.14919890  0.70130529  1
  O  O651  1  0.16353647  0.14849742  0.95252627  1
  O  O652  1  0.16182839  0.48217975  0.20343365  1
  O  O653  1  0.16098833  0.48129463  0.45186164  1
  O  O654  1  0.16312776  0.48145659  0.70141428  1
  O  O655  1  0.16153876  0.48152379  0.95312546  1
  O  O656  1  0.16397322  0.81481731  0.20277796  1
  O  O657  1  0.16122554  0.81521649  0.45188690  1
  O  O658  1  0.16061823  0.81429609  0.70155176  1
  O  O659  1  0.16064083  0.81487873  0.95196660  1
  O  O660  1  0.66330926  0.14818215  0.20139293  1
  O  O661  1  0.66522479  0.14891583  0.45227809  1
  O  O662  1  0.66419563  0.14833311  0.70237754  1
  O  O663  1  0.66358318  0.14826014  0.95242660  1
  O  O664  1  0.66397019  0.48249209  0.20356523  1
  O  O665  1  0.66390172  0.48187800  0.45186103  1
  O  O666  1  0.66389949  0.48083760  0.70254265  1
  O  O667  1  0.66338147  0.48167268  0.95214703  1
  O  O668  1  0.66388976  0.81456111  0.20261812  1
  O  O669  1  0.66231684  0.81456545  0.45172918  1
  O  O670  1  0.66403769  0.81617836  0.70219390  1
  O  O671  1  0.66307126  0.81496113  0.95289988  1
