# generated using pymatgen
data_Na2MnFe(PO4)2
_symmetry_space_group_name_H-M   'P 1'
_cell_length_a   21.08095212
_cell_length_b   18.93229517
_cell_length_c   20.04019555
_cell_angle_alpha   89.99922953
_cell_angle_beta   90.00055896
_cell_angle_gamma   89.99941552
_symmetry_Int_Tables_number   1
_chemical_formula_structural   Na2MnFe(PO4)2
_chemical_formula_sum   'Na96 Mn48 Fe48 P96 O384'
_cell_volume   7998.25863647
_cell_formula_units_Z   48
loop_
 _symmetry_equiv_pos_site_id
 _symmetry_equiv_pos_as_xyz
  1  'x, y, z'
loop_
 _atom_site_type_symbol
 _atom_site_label
 _atom_site_symmetry_multiplicity
 _atom_site_fract_x
 _atom_site_fract_y
 _atom_site_fract_z
 _atom_site_occupancy
  Na  Na0  1  0.00115758  -0.00049201  0.00003164  1
  Na  Na1  1  0.00109323  0.00061682  0.25022630  1
  Na  Na2  1  -0.00213424  -0.00041447  0.50000948  1
  Na  Na3  1  0.00008084  -0.00004636  0.74928528  1
  Na  Na4  1  0.00305174  0.33448875  0.00020294  1
  Na  Na5  1  -0.00015730  0.33282006  0.24997476  1
  Na  Na6  1  0.00009675  0.33366639  0.49988584  1
  Na  Na7  1  0.00040324  0.33353150  0.75099739  1
  Na  Na8  1  0.00001765  0.66698892  0.00070914  1
  Na  Na9  1  -0.00131846  0.66654983  0.24999155  1
  Na  Na10  1  -0.00001394  0.66703825  0.49931740  1
  Na  Na11  1  0.00055702  0.66728855  0.74949675  1
  Na  Na12  1  0.49764860  -0.00018420  0.00045453  1
  Na  Na13  1  0.49621065  -0.00116208  0.25112460  1
  Na  Na14  1  0.49981059  0.00000889  0.49906998  1
  Na  Na15  1  0.50061748  0.00061343  0.74909569  1
  Na  Na16  1  0.49956036  0.33289012  0.00008595  1
  Na  Na17  1  0.49910217  0.33248066  0.25065870  1
  Na  Na18  1  0.50373285  0.33489867  0.49922817  1
  Na  Na19  1  0.50039099  0.33292548  0.75045961  1
  Na  Na20  1  0.49908429  0.66726464  -0.00034955  1
  Na  Na21  1  0.49817200  0.66678137  0.24990654  1
  Na  Na22  1  0.49908193  0.66676228  0.49951204  1
  Na  Na23  1  0.49942830  0.66683510  0.75101339  1
  Na  Na24  1  0.24991902  -0.00013454  0.12428528  1
  Na  Na25  1  0.25162019  0.00060790  0.37536616  1
  Na  Na26  1  0.24890680  -0.00034327  0.62490796  1
  Na  Na27  1  0.24856636  -0.00028158  0.87559472  1
  Na  Na28  1  0.24875845  0.33293320  0.12394218  1
  Na  Na29  1  0.24927453  0.33297855  0.37529568  1
  Na  Na30  1  0.25074443  0.33378975  0.62550488  1
  Na  Na31  1  0.24944700  0.33324343  0.87534726  1
  Na  Na32  1  0.25185988  0.66751445  0.12534154  1
  Na  Na33  1  0.25391814  0.66756807  0.37543492  1
  Na  Na34  1  0.25296271  0.66733410  0.62555017  1
  Na  Na35  1  0.25133683  0.66735267  0.87315623  1
  Na  Na36  1  0.75189111  0.00009530  0.12391984  1
  Na  Na37  1  0.75283428  0.00066186  0.37579231  1
  Na  Na38  1  0.75111190  -0.00011752  0.62457388  1
  Na  Na39  1  0.75174999  0.00014855  0.87485467  1
  Na  Na40  1  0.75037643  0.33367558  0.12577444  1
  Na  Na41  1  0.74944607  0.33329901  0.37571099  1
  Na  Na42  1  0.74799351  0.33299024  0.62406087  1
  Na  Na43  1  0.74836491  0.33303720  0.87482540  1
  Na  Na44  1  0.75046918  0.66753427  0.12587311  1
  Na  Na45  1  0.74809982  0.66732513  0.37540548  1
  Na  Na46  1  0.74712457  0.66618877  0.62494200  1
  Na  Na47  1  0.74933560  0.66667666  0.87433959  1
  Na  Na48  1  0.00380079  0.16520439  -0.00005547  1
  Na  Na49  1  0.00003978  0.16699529  0.24999098  1
  Na  Na50  1  -0.00170124  0.16681007  0.49966551  1
  Na  Na51  1  0.00046778  0.16616179  0.75014963  1
  Na  Na52  1  0.00171188  0.49906232  -0.00045197  1
  Na  Na53  1  0.00029818  0.49943028  0.25050152  1
  Na  Na54  1  0.00075516  0.49898094  0.49933723  1
  Na  Na55  1  0.00016145  0.49984546  0.75023582  1
  Na  Na56  1  -0.00030133  0.83336753  0.00169886  1
  Na  Na57  1  -0.00114724  0.83383656  0.24947281  1
  Na  Na58  1  -0.00173725  0.83444028  0.50008450  1
  Na  Na59  1  -0.00049556  0.83360756  0.74958246  1
  Na  Na60  1  0.49871565  0.16703379  0.00024796  1
  Na  Na61  1  0.49779287  0.16726788  0.25122640  1
  Na  Na62  1  0.50052764  0.16603343  0.49888545  1
  Na  Na63  1  0.50045057  0.16667302  0.75005702  1
  Na  Na64  1  0.50182070  0.49850222  -0.00019425  1
  Na  Na65  1  0.49802408  0.50064236  0.25039000  1
  Na  Na66  1  0.50044967  0.49972788  0.49947668  1
  Na  Na67  1  0.50017567  0.50015104  0.75132861  1
  Na  Na68  1  0.49611951  0.83451143  0.00011258  1
  Na  Na69  1  0.49797792  0.83392214  0.25002091  1
  Na  Na70  1  0.50202313  0.83233019  0.49953955  1
  Na  Na71  1  0.49943529  0.83356053  0.74924546  1
  Na  Na72  1  0.24846357  0.16754249  0.12444089  1
  Na  Na73  1  0.25064983  0.16592959  0.37497727  1
  Na  Na74  1  0.24907357  0.16643934  0.62638413  1
  Na  Na75  1  0.24962458  0.16640070  0.87491942  1
  Na  Na76  1  0.24979098  0.49971001  0.12461823  1
  Na  Na77  1  0.25202733  0.49925070  0.37627120  1
  Na  Na78  1  0.25129848  0.49956381  0.62459195  1
  Na  Na79  1  0.24896360  0.50003541  0.87414033  1
  Na  Na80  1  0.25162086  0.83317356  0.12434442  1
  Na  Na81  1  0.25224348  0.83345015  0.37472066  1
  Na  Na82  1  0.25220199  0.83312096  0.62507474  1
  Na  Na83  1  0.25117396  0.83319966  0.87486931  1
  Na  Na84  1  0.75041725  0.16695534  0.12523403  1
  Na  Na85  1  0.75243663  0.16540979  0.37521529  1
  Na  Na86  1  0.74974785  0.16670112  0.62417123  1
  Na  Na87  1  0.74971887  0.16644615  0.87480925  1
  Na  Na88  1  0.74942710  0.49950519  0.12520362  1
  Na  Na89  1  0.74869776  0.49970015  0.37564789  1
  Na  Na90  1  0.74798156  0.49956719  0.62516257  1
  Na  Na91  1  0.74756472  0.50012743  0.87502017  1
  Na  Na92  1  0.75242288  0.83274541  0.12523489  1
  Na  Na93  1  0.74965534  0.83339975  0.37598936  1
  Na  Na94  1  0.74885084  0.83406690  0.62423389  1
  Na  Na95  1  0.75211445  0.83314281  0.87434291  1
  Mn  Mn96  1  0.39187509  0.58275948  0.12720035  1
  Mn  Mn97  1  0.35720819  0.08331947  0.00233726  1
  Mn  Mn98  1  0.64201189  0.24914990  0.74779911  1
  Mn  Mn99  1  0.14198903  0.24963480  0.49815857  1
  Mn  Mn100  1  0.64186431  0.91655607  0.99781734  1
  Mn  Mn101  1  0.89182383  0.25043817  0.62737919  1
  Mn  Mn102  1  0.14354544  0.58395981  0.49807977  1
  Mn  Mn103  1  0.60761710  0.08290601  0.37198107  1
  Mn  Mn104  1  0.14252262  0.91622000  0.49776114  1
  Mn  Mn105  1  0.85866760  0.08383929  0.00205581  1
  Mn  Mn106  1  0.35764940  0.08344087  0.75190078  1
  Mn  Mn107  1  0.10835281  0.75013925  0.37291670  1
  Mn  Mn108  1  0.10824072  0.74953058  0.12336763  1
  Mn  Mn109  1  0.60769972  0.08294328  0.87325409  1
  Mn  Mn110  1  0.14195130  0.58373635  0.99748776  1
  Mn  Mn111  1  0.64251750  0.91713907  0.74823873  1
  Mn  Mn112  1  0.39172416  0.25014187  0.37776172  1
  Mn  Mn113  1  0.35736293  0.41695869  0.00210430  1
  Mn  Mn114  1  0.64149280  0.58347168  0.74750035  1
  Mn  Mn115  1  0.64295120  0.24908261  0.24783093  1
  Mn  Mn116  1  0.64186725  0.58356104  0.24759783  1
  Mn  Mn117  1  0.39319664  0.91678090  0.62736690  1
  Mn  Mn118  1  0.60736268  0.75078646  0.87351322  1
  Mn  Mn119  1  0.60723329  0.08312506  0.12378404  1
  Mn  Mn120  1  0.85743166  0.41695067  0.00175555  1
  Mn  Mn121  1  0.10745558  0.08308936  0.37313227  1
  Mn  Mn122  1  0.89137877  0.58333390  0.37783372  1
  Mn  Mn123  1  0.64249371  0.91729175  0.24798035  1
  Mn  Mn124  1  0.89279034  0.91710230  0.12760688  1
  Mn  Mn125  1  0.14287568  0.58387170  0.74694529  1
  Mn  Mn126  1  0.89147526  0.58321246  0.62669676  1
  Mn  Mn127  1  0.14252834  0.24968198  0.74766681  1
  Mn  Mn128  1  0.60739360  0.41609278  0.12353410  1
  Mn  Mn129  1  0.89311723  0.25008696  0.12633746  1
  Mn  Mn130  1  0.85784315  0.74959738  0.75219603  1
  Mn  Mn131  1  0.89168606  0.58243917  0.12705394  1
  Mn  Mn132  1  0.10790716  0.41668720  0.37248732  1
  Mn  Mn133  1  0.14259474  0.91629046  0.99730643  1
  Mn  Mn134  1  0.39235881  0.58301116  0.87779678  1
  Mn  Mn135  1  0.89283981  0.24980361  0.87781009  1
  Mn  Mn136  1  0.35875958  0.41608851  0.50309112  1
  Mn  Mn137  1  0.10838590  0.74994120  0.62204481  1
  Mn  Mn138  1  0.89227229  0.58406478  0.87745199  1
  Mn  Mn139  1  0.85642499  0.41690501  0.50248663  1
  Mn  Mn140  1  0.60726595  0.75079284  0.12265309  1
  Mn  Mn141  1  0.39352547  0.25050507  0.62692145  1
  Mn  Mn142  1  0.14322581  0.58356338  0.24818719  1
  Mn  Mn143  1  0.85624423  0.74968582  0.50214401  1
  Fe  Fe144  1  0.60728433  0.41667454  0.62381092  1
  Fe  Fe145  1  0.85780066  0.74943307  0.00115813  1
  Fe  Fe146  1  0.64062093  0.58361937  0.49795634  1
  Fe  Fe147  1  0.85704966  0.41626921  0.75167747  1
  Fe  Fe148  1  0.60670881  0.75015943  0.62333936  1
  Fe  Fe149  1  0.60846185  0.08313699  0.62244325  1
  Fe  Fe150  1  0.39157897  0.91772089  0.87587777  1
  Fe  Fe151  1  0.85793371  0.41652274  0.25208757  1
  Fe  Fe152  1  0.85726696  0.75007927  0.25276848  1
  Fe  Fe153  1  0.10831220  0.08363424  0.12392103  1
  Fe  Fe154  1  0.85901127  0.08334044  0.25162832  1
  Fe  Fe155  1  0.64233465  0.58347885  0.99901555  1
  Fe  Fe156  1  0.10791700  0.41661271  0.12404709  1
  Fe  Fe157  1  0.89265564  0.91689457  0.37643525  1
  Fe  Fe158  1  0.85685578  0.08326203  0.50216423  1
  Fe  Fe159  1  0.14306923  0.25032958  0.99789940  1
  Fe  Fe160  1  0.39313677  0.58334754  0.37692803  1
  Fe  Fe161  1  0.35620280  0.08386533  0.25137490  1
  Fe  Fe162  1  0.39150109  0.91757978  0.12761624  1
  Fe  Fe163  1  0.35809717  0.41647242  0.75182654  1
  Fe  Fe164  1  0.85773557  0.08402888  0.75170734  1
  Fe  Fe165  1  0.60710198  0.41609112  0.87352738  1
  Fe  Fe166  1  0.39237754  0.91637299  0.37728355  1
  Fe  Fe167  1  0.64310196  0.91710044  0.49780218  1
  Fe  Fe168  1  0.10725122  0.08243496  0.87239678  1
  Fe  Fe169  1  0.60594900  0.75007737  0.37281526  1
  Fe  Fe170  1  0.14351892  0.91676126  0.24909234  1
  Fe  Fe171  1  0.64291082  0.24929772  0.49771886  1
  Fe  Fe172  1  0.89381692  0.91631804  0.87618174  1
  Fe  Fe173  1  0.10638122  0.08352989  0.62295607  1
  Fe  Fe174  1  0.35774698  0.75004583  0.25195831  1
  Fe  Fe175  1  0.35875493  0.75074423  0.50229980  1
  Fe  Fe176  1  0.14248853  0.24972113  0.24829582  1
  Fe  Fe177  1  0.35789029  0.75045088  0.75179124  1
  Fe  Fe178  1  0.39383905  0.58281796  0.62656836  1
  Fe  Fe179  1  0.64146801  0.25000951  0.99893374  1
  Fe  Fe180  1  0.35740776  0.08332829  0.50259157  1
  Fe  Fe181  1  0.35687966  0.41621613  0.25151386  1
  Fe  Fe182  1  0.14251051  0.91607533  0.74832006  1
  Fe  Fe183  1  0.39147620  0.24971637  0.12692319  1
  Fe  Fe184  1  0.10777865  0.75024667  0.87341396  1
  Fe  Fe185  1  0.10755393  0.41644599  0.62402529  1
  Fe  Fe186  1  0.60687638  0.41717654  0.37266403  1
  Fe  Fe187  1  0.89250223  0.91645083  0.62692434  1
  Fe  Fe188  1  0.35705213  0.74975290  0.00144412  1
  Fe  Fe189  1  0.10751595  0.41722361  0.87208216  1
  Fe  Fe190  1  0.89262109  0.24981215  0.37628325  1
  Fe  Fe191  1  0.39282125  0.24965629  0.87686407  1
  P  P192  1  0.05613424  0.25000418  0.11078306  1
  P  P193  1  0.05284708  0.24960117  0.35952302  1
  P  P194  1  0.05323755  0.24990568  0.61030023  1
  P  P195  1  0.05514785  0.24985977  0.86128448  1
  P  P196  1  0.05347389  0.58246904  0.11033545  1
  P  P197  1  0.05335308  0.58362818  0.35989610  1
  P  P198  1  0.05330599  0.58242434  0.60944578  1
  P  P199  1  0.05382839  0.58415922  0.85966775  1
  P  P200  1  0.05565443  0.91731704  0.11172696  1
  P  P201  1  0.05281259  0.91663320  0.35954070  1
  P  P202  1  0.05337054  0.91745340  0.61090995  1
  P  P203  1  0.05342190  0.91586794  0.85952318  1
  P  P204  1  0.55187007  0.24941844  0.11022686  1
  P  P205  1  0.55467153  0.25030593  0.36094261  1
  P  P206  1  0.55469200  0.24967381  0.60911103  1
  P  P207  1  0.55341870  0.25021325  0.86137126  1
  P  P208  1  0.55331546  0.58357459  0.10943360  1
  P  P209  1  0.55312933  0.58377813  0.36089794  1
  P  P210  1  0.55254293  0.58346856  0.60982988  1
  P  P211  1  0.55481077  0.58300747  0.86178022  1
  P  P212  1  0.55116200  0.91708581  0.11036012  1
  P  P213  1  0.55301937  0.91604993  0.36097822  1
  P  P214  1  0.55454146  0.91692230  0.60921747  1
  P  P215  1  0.55129137  0.91679665  0.85985798  1
  P  P216  1  0.44521165  0.08384861  0.14107742  1
  P  P217  1  0.44402028  0.08268836  0.38934098  1
  P  P218  1  0.44771877  0.08358343  0.63866550  1
  P  P219  1  0.44610381  0.08351942  0.88980275  1
  P  P220  1  0.44567584  0.41542482  0.14075966  1
  P  P221  1  0.44629700  0.41702597  0.38873486  1
  P  P222  1  0.44816626  0.41717111  0.64072037  1
  P  P223  1  0.44655331  0.41558863  0.88911243  1
  P  P224  1  0.44434963  0.75075004  0.13946948  1
  P  P225  1  0.44529285  0.75021706  0.38916086  1
  P  P226  1  0.44643941  0.74940172  0.63935411  1
  P  P227  1  0.44432650  0.75131533  0.88932437  1
  P  P228  1  0.94830806  0.08369396  0.14028725  1
  P  P229  1  0.94457482  0.08332450  0.38947421  1
  P  P230  1  0.94538032  0.08286525  0.63926195  1
  P  P231  1  0.94732497  0.08237623  0.88869430  1
  P  P232  1  0.94760375  0.41631472  0.14033162  1
  P  P233  1  0.94511989  0.41557627  0.38919697  1
  P  P234  1  0.94704616  0.41665203  0.64069528  1
  P  P235  1  0.94704779  0.41676440  0.88900172  1
  P  P236  1  0.94483749  0.74955896  0.13983508  1
  P  P237  1  0.94538347  0.75105371  0.38924230  1
  P  P238  1  0.94652158  0.75047856  0.63949639  1
  P  P239  1  0.94786946  0.75091723  0.89051272  1
  P  P240  1  0.19706742  0.08306300  0.23502703  1
  P  P241  1  0.19664149  0.08312282  0.48618052  1
  P  P242  1  0.19449514  0.08193785  0.73549717  1
  P  P243  1  0.19454515  0.08413598  0.98552161  1
  P  P244  1  0.19749611  0.41607239  0.23474659  1
  P  P245  1  0.19593052  0.41656862  0.48632713  1
  P  P246  1  0.19678794  0.41667545  0.73522329  1
  P  P247  1  0.19461775  0.41618483  0.98520323  1
  P  P248  1  0.19872285  0.75091824  0.23549812  1
  P  P249  1  0.19926286  0.75019580  0.48488669  1
  P  P250  1  0.19713471  0.75113883  0.73586625  1
  P  P251  1  0.19751984  0.74991325  0.98403583  1
  P  P252  1  0.69909271  0.08280827  0.23500422  1
  P  P253  1  0.69639658  0.08284068  0.48571948  1
  P  P254  1  0.69764218  0.08305435  0.73420810  1
  P  P255  1  0.69672124  0.08385789  0.98522154  1
  P  P256  1  0.69683844  0.41644050  0.23649127  1
  P  P257  1  0.69327973  0.41679896  0.48569963  1
  P  P258  1  0.69564103  0.41612473  0.73550193  1
  P  P259  1  0.69527928  0.41633190  0.98488622  1
  P  P260  1  0.69634030  0.75075129  0.23630729  1
  P  P261  1  0.69317457  0.75030930  0.48574147  1
  P  P262  1  0.69576267  0.75060310  0.73426684  1
  P  P263  1  0.69793453  0.74986791  0.98509556  1
  P  P264  1  0.30375034  0.25003621  0.01423188  1
  P  P265  1  0.30283201  0.25015543  0.26373712  1
  P  P266  1  0.30331517  0.24890579  0.51579627  1
  P  P267  1  0.30454482  0.25074698  0.76555416  1
  P  P268  1  0.30300745  0.58393659  0.01463401  1
  P  P269  1  0.30456653  0.58274804  0.26575185  1
  P  P270  1  0.30646038  0.58415644  0.51494545  1
  P  P271  1  0.30579463  0.58281968  0.76322193  1
  P  P272  1  0.30506755  0.91615162  0.01413251  1
  P  P273  1  0.30419655  0.91727953  0.26438186  1
  P  P274  1  0.30520056  0.91691282  0.51417850  1
  P  P275  1  0.30280154  0.91676743  0.76519543  1
  P  P276  1  0.80179566  0.25037067  0.01493576  1
  P  P277  1  0.80477664  0.25003493  0.26542054  1
  P  P278  1  0.80324500  0.24948762  0.51350101  1
  P  P279  1  0.80360003  0.25010320  0.76482750  1
  P  P280  1  0.80176377  0.58381234  0.01481552  1
  P  P281  1  0.80312249  0.58323047  0.26542439  1
  P  P282  1  0.80022838  0.58343496  0.51513650  1
  P  P283  1  0.80297990  0.58204558  0.76492972  1
  P  P284  1  0.80533077  0.91584987  0.01347760  1
  P  P285  1  0.80434062  0.91681519  0.26578116  1
  P  P286  1  0.80419903  0.91709093  0.51426015  1
  P  P287  1  0.80563448  0.91762096  0.76421635  1
  O  O288  1  0.05954118  0.24996076  0.18765914  1
  O  O289  1  0.05659827  0.24958220  0.43625326  1
  O  O290  1  0.05634234  0.24981534  0.68708087  1
  O  O291  1  0.05870840  0.25002563  0.93807066  1
  O  O292  1  0.05678311  0.58338126  0.18709116  1
  O  O293  1  0.05732971  0.58377367  0.43664191  1
  O  O294  1  0.05669378  0.58338136  0.68624563  1
  O  O295  1  0.05645696  0.58404096  0.93646058  1
  O  O296  1  0.05996890  0.91659697  0.18845316  1
  O  O297  1  0.05660778  0.91660645  0.43631853  1
  O  O298  1  0.05828652  0.91637002  0.68752661  1
  O  O299  1  0.05670106  0.91571795  0.93629315  1
  O  O300  1  0.55628175  0.24933575  0.18693839  1
  O  O301  1  0.55931793  0.24925696  0.43764962  1
  O  O302  1  0.55676931  0.24919437  0.68600650  1
  O  O303  1  0.55782106  0.24966477  0.93805881  1
  O  O304  1  0.55616405  0.58386177  0.18631204  1
  O  O305  1  0.55717417  0.58366574  0.43762772  1
  O  O306  1  0.55556095  0.58364758  0.68663774  1
  O  O307  1  0.55895046  0.58375809  0.93852019  1
  O  O308  1  0.55569348  0.91689503  0.18703544  1
  O  O309  1  0.55838546  0.91709892  0.43754820  1
  O  O310  1  0.55708117  0.91732178  0.68604846  1
  O  O311  1  0.55509051  0.91663545  0.93657947  1
  O  O312  1  0.44262879  0.08395772  0.06422951  1
  O  O313  1  0.43923200  0.08365800  0.31262091  1
  O  O314  1  0.44252056  0.08346225  0.56203930  1
  O  O315  1  0.44366433  0.08351407  0.81301246  1
  O  O316  1  0.44288791  0.41611498  0.06393623  1
  O  O317  1  0.44109376  0.41599455  0.31214307  1
  O  O318  1  0.44483863  0.41636809  0.56395330  1
  O  O319  1  0.44216337  0.41630075  0.81243045  1
  O  O320  1  0.44046878  0.74986390  0.06268364  1
  O  O321  1  0.44086414  0.75054901  0.31239011  1
  O  O322  1  0.44248268  0.75046730  0.56259129  1
  O  O323  1  0.44076932  0.75058024  0.81242230  1
  O  O324  1  0.94453946  0.08343602  0.06353274  1
  O  O325  1  0.94156660  0.08334464  0.31260851  1
  O  O326  1  0.94057138  0.08361067  0.56250096  1
  O  O327  1  0.94249091  0.08355917  0.81205216  1
  O  O328  1  0.94368079  0.41654753  0.06357572  1
  O  O329  1  0.94110935  0.41645733  0.31242308  1
  O  O330  1  0.94258375  0.41650198  0.56394781  1
  O  O331  1  0.94151276  0.41653281  0.81242147  1
  O  O332  1  0.94066338  0.74938580  0.06303355  1
  O  O333  1  0.94129493  0.75013681  0.31244936  1
  O  O334  1  0.94266420  0.74993842  0.56275475  1
  O  O335  1  0.94397827  0.74992390  0.81379592  1
  O  O336  1  0.19119954  0.08329910  0.06231542  1
  O  O337  1  0.19382808  0.08297669  0.31178658  1
  O  O338  1  0.19123608  0.08319652  0.56281983  1
  O  O339  1  0.19052226  0.08259894  0.81234162  1
  O  O340  1  0.19088660  0.41701764  0.06198646  1
  O  O341  1  0.19417110  0.41660855  0.31153816  1
  O  O342  1  0.19125028  0.41657541  0.56305925  1
  O  O343  1  0.19157068  0.41683751  0.81193917  1
  O  O344  1  0.19358239  0.74987886  0.06076592  1
  O  O345  1  0.19501383  0.75044392  0.31216972  1
  O  O346  1  0.19496386  0.75018803  0.56162171  1
  O  O347  1  0.19195800  0.75058721  0.81246684  1
  O  O348  1  0.69342382  0.08313904  0.06197991  1
  O  O349  1  0.69460810  0.08255725  0.31168477  1
  O  O350  1  0.69203408  0.08290759  0.56243060  1
  O  O351  1  0.69341540  0.08283384  0.81092323  1
  O  O352  1  0.69274210  0.41607183  0.06174191  1
  O  O353  1  0.69142230  0.41669880  0.31314215  1
  O  O354  1  0.68957933  0.41699484  0.56258233  1
  O  O355  1  0.69073610  0.41614262  0.81218287  1
  O  O356  1  0.69419438  0.75090883  0.06184991  1
  O  O357  1  0.69051710  0.75084387  0.31293091  1
  O  O358  1  0.68948973  0.75001227  0.56255953  1
  O  O359  1  0.69267382  0.75078575  0.81105943  1
  O  O360  1  0.30699365  0.25026094  0.18702780  1
  O  O361  1  0.30602656  0.24975976  0.43893977  1
  O  O362  1  0.30790117  0.25010082  0.68878108  1
  O  O363  1  0.30877379  0.24990911  0.93757870  1
  O  O364  1  0.30661832  0.58271152  0.18890204  1
  O  O365  1  0.31034237  0.58307734  0.43813094  1
  O  O366  1  0.31002294  0.58251671  0.68646783  1
  O  O367  1  0.30595257  0.58300965  0.93783193  1
  O  O368  1  0.30784068  0.91713313  0.18755311  1
  O  O369  1  0.30887284  0.91676947  0.43737794  1
  O  O370  1  0.30690111  0.91752201  0.68846424  1
  O  O371  1  0.30861503  0.91747287  0.93737068  1
  O  O372  1  0.80757452  0.25028673  0.18859722  1
  O  O373  1  0.80813128  0.25006985  0.43692985  1
  O  O374  1  0.80611798  0.25035710  0.68799821  1
  O  O375  1  0.80610774  0.25009503  0.93823584  1
  O  O376  1  0.80593181  0.58296886  0.18860931  1
  O  O377  1  0.80475253  0.58360326  0.43848502  1
  O  O378  1  0.80586180  0.58263571  0.68813976  1
  O  O379  1  0.80550151  0.58324851  0.93809414  1
  O  O380  1  0.80703987  0.91695510  0.18888289  1
  O  O381  1  0.80884694  0.91637308  0.43761316  1
  O  O382  1  0.80911911  0.91659247  0.68737571  1
  O  O383  1  0.80981763  0.91653539  0.93673629  1
  O  O384  1  0.23329783  0.25017266  0.03742515  1
  O  O385  1  0.23261521  0.24968651  0.28823255  1
  O  O386  1  0.23383908  0.24955631  0.54137840  1
  O  O387  1  0.23463901  0.24997126  0.79007224  1
  O  O388  1  0.23353978  0.58391083  0.04022605  1
  O  O389  1  0.23509370  0.58323102  0.29179049  1
  O  O390  1  0.23648720  0.58359959  0.53935623  1
  O  O391  1  0.23575544  0.58334103  0.78745096  1
  O  O392  1  0.23505367  0.91661641  0.03840639  1
  O  O393  1  0.23397770  0.91713861  0.28894097  1
  O  O394  1  0.23534887  0.91655684  0.53890513  1
  O  O395  1  0.23272384  0.91673870  0.78960509  1
  O  O396  1  0.73177546  0.25045546  0.03949452  1
  O  O397  1  0.73506619  0.24956424  0.29076986  1
  O  O398  1  0.73285243  0.24973673  0.53715421  1
  O  O399  1  0.73398645  0.24954103  0.79021013  1
  O  O400  1  0.73186733  0.58337501  0.03991974  1
  O  O401  1  0.73345860  0.58353486  0.29082353  1
  O  O402  1  0.73000909  0.58326009  0.53899438  1
  O  O403  1  0.73325267  0.58299575  0.78992570  1
  O  O404  1  0.73533747  0.91648290  0.03792067  1
  O  O405  1  0.73471452  0.91686389  0.29128269  1
  O  O406  1  0.73370271  0.91681863  0.53765106  1
  O  O407  1  0.73566821  0.91685065  0.78880731  1
  O  O408  1  0.26706557  0.08348731  0.21002317  1
  O  O409  1  0.26694121  0.08312238  0.46260288  1
  O  O410  1  0.26465393  0.08304601  0.71153872  1
  O  O411  1  0.26458262  0.08328536  0.96111770  1
  O  O412  1  0.26746328  0.41640054  0.20984854  1
  O  O413  1  0.26612426  0.41615819  0.46270006  1
  O  O414  1  0.26731234  0.41654320  0.71207579  1
  O  O415  1  0.26467681  0.41672247  0.96091826  1
  O  O416  1  0.26885111  0.75054643  0.21102920  1
  O  O417  1  0.26940707  0.75061343  0.46091240  1
  O  O418  1  0.26768332  0.75060601  0.71253468  1
  O  O419  1  0.26764892  0.75019001  0.95987042  1
  O  O420  1  0.76925179  0.08327755  0.21087214  1
  O  O421  1  0.76679889  0.08278516  0.46206094  1
  O  O422  1  0.76780549  0.08353374  0.71011688  1
  O  O423  1  0.76646248  0.08350474  0.96008722  1
  O  O424  1  0.76721141  0.41631071  0.21297038  1
  O  O425  1  0.76343056  0.41667446  0.46167851  1
  O  O426  1  0.76590446  0.41610725  0.71161579  1
  O  O427  1  0.76495187  0.41646245  0.95937023  1
  O  O428  1  0.76689897  0.75050846  0.21345914  1
  O  O429  1  0.76329457  0.75039361  0.46162408  1
  O  O430  1  0.76552098  0.75015390  0.70931583  1
  O  O431  1  0.76787954  0.74991794  0.96006279  1
  O  O432  1  0.01838206  0.08394840  0.16468520  1
  O  O433  1  0.01450242  0.08301528  0.41429107  1
  O  O434  1  0.01578481  0.08332560  0.66281622  1
  O  O435  1  0.01769255  0.08214110  0.91246379  1
  O  O436  1  0.01775896  0.41603517  0.16465342  1
  O  O437  1  0.01517570  0.41612238  0.41329913  1
  O  O438  1  0.01732310  0.41647937  0.66463500  1
  O  O439  1  0.01760289  0.41692712  0.91199922  1
  O  O440  1  0.01501931  0.74997403  0.16370673  1
  O  O441  1  0.01531698  0.75079884  0.41379949  1
  O  O442  1  0.01638945  0.75046312  0.66410419  1
  O  O443  1  0.01795839  0.75039173  0.91509327  1
  O  O444  1  0.51473798  0.08332205  0.16693142  1
  O  O445  1  0.51439479  0.08313182  0.41250689  1
  O  O446  1  0.51813393  0.08341966  0.66212159  1
  O  O447  1  0.51550283  0.08344328  0.91579195  1
  O  O448  1  0.51537390  0.41623125  0.16600872  1
  O  O449  1  0.51669012  0.41715537  0.41222117  1
  O  O450  1  0.51827189  0.41657107  0.66530354  1
  O  O451  1  0.51671972  0.41574457  0.91331666  1
  O  O452  1  0.51433846  0.75026441  0.16394911  1
  O  O453  1  0.51566244  0.74996994  0.41286487  1
  O  O454  1  0.51675648  0.75027599  0.66335579  1
  O  O455  1  0.51424513  0.75057854  0.91392974  1
  O  O456  1  0.48163001  0.24970890  0.08624456  1
  O  O457  1  0.48441238  0.24987569  0.33744549  1
  O  O458  1  0.48517791  0.25017578  0.58319336  1
  O  O459  1  0.48327347  0.24985092  0.83701634  1
  O  O460  1  0.48362626  0.58286122  0.08432275  1
  O  O461  1  0.48287371  0.58388543  0.33676007  1
  O  O462  1  0.48258687  0.58324339  0.58476840  1
  O  O463  1  0.48479778  0.58357312  0.83757131  1
  O  O464  1  0.48087025  0.91738950  0.08665472  1
  O  O465  1  0.48245823  0.91619293  0.33786669  1
  O  O466  1  0.48480667  0.91659268  0.58399998  1
  O  O467  1  0.48140855  0.91717368  0.83487828  1
  O  O468  1  0.98625131  0.24984038  0.08578010  1
  O  O469  1  0.98274738  0.24956050  0.33527951  1
  O  O470  1  0.98358652  0.25005048  0.58499385  1
  O  O471  1  0.98529715  0.24991817  0.83644107  1
  O  O472  1  0.98384650  0.58263377  0.08495539  1
  O  O473  1  0.98347690  0.58318446  0.33548747  1
  O  O474  1  0.98363284  0.58285419  0.58415275  1
  O  O475  1  0.98422645  0.58392644  0.83415648  1
  O  O476  1  0.98559036  0.91685381  0.08754893  1
  O  O477  1  0.98269546  0.91734437  0.33531685  1
  O  O478  1  0.98298541  0.91719662  0.58722861  1
  O  O479  1  0.98340790  0.91644563  0.83472758  1
  O  O480  1  0.08990831  0.31522132  0.07814936  1
  O  O481  1  0.08700041  0.31443315  0.32665799  1
  O  O482  1  0.08739056  0.31507163  0.57814811  1
  O  O483  1  0.08900902  0.31487825  0.82833036  1
  O  O484  1  0.08763309  0.64755162  0.07771989  1
  O  O485  1  0.08701401  0.64881120  0.32710310  1
  O  O486  1  0.08766885  0.64749304  0.57694265  1
  O  O487  1  0.08791494  0.64948228  0.82751802  1
  O  O488  1  0.08877148  0.98266486  0.07884158  1
  O  O489  1  0.08724986  0.98149474  0.32702598  1
  O  O490  1  0.08637803  0.98285230  0.57781312  1
  O  O491  1  0.08775152  0.98070411  0.82684195  1
  O  O492  1  0.58582943  0.31438771  0.07735334  1
  O  O493  1  0.58773109  0.31567765  0.32810244  1
  O  O494  1  0.58925884  0.31487890  0.57757051  1
  O  O495  1  0.58685554  0.31532886  0.82832550  1
  O  O496  1  0.58727150  0.64870415  0.07691672  1
  O  O497  1  0.58642026  0.64898573  0.32781383  1
  O  O498  1  0.58630520  0.64858589  0.57710718  1
  O  O499  1  0.58842090  0.64788290  0.82838729  1
  O  O500  1  0.58491467  0.98208461  0.07752267  1
  O  O501  1  0.58598019  0.98102072  0.32693910  1
  O  O502  1  0.58870929  0.98190440  0.57650226  1
  O  O503  1  0.58557835  0.98173362  0.82730869  1
  O  O504  1  0.41037137  0.01892461  0.17306792  1
  O  O505  1  0.41096445  0.01736314  0.42239843  1
  O  O506  1  0.41425005  0.01867179  0.67218314  1
  O  O507  1  0.41163833  0.01842703  0.92184849  1
  O  O508  1  0.41171652  0.35016361  0.17300861  1
  O  O509  1  0.41337250  0.35202628  0.42279306  1
  O  O510  1  0.41386138  0.35237153  0.67356555  1
  O  O511  1  0.41299000  0.35053979  0.92206416  1
  O  O512  1  0.41039579  0.68588328  0.17274083  1
  O  O513  1  0.41194406  0.68511368  0.42225038  1
  O  O514  1  0.41333368  0.68411720  0.67220218  1
  O  O515  1  0.41016286  0.68651784  0.92249765  1
  O  O516  1  0.91441855  0.01878502  0.17328432  1
  O  O517  1  0.91051540  0.01830151  0.42221827  1
  O  O518  1  0.91219084  0.01768757  0.67230543  1
  O  O519  1  0.91400555  0.01715285  0.92153870  1
  O  O520  1  0.91361098  0.35126548  0.17287549  1
  O  O521  1  0.91196139  0.35008129  0.42187559  1
  O  O522  1  0.91324631  0.35167401  0.67378681  1
  O  O523  1  0.91419140  0.35173716  0.92292567  1
  O  O524  1  0.91126290  0.68456017  0.17295727  1
  O  O525  1  0.91140525  0.68622870  0.42256294  1
  O  O526  1  0.91271091  0.68537508  0.67230604  1
  O  O527  1  0.91348655  0.68613133  0.92361026  1
  O  O528  1  0.16337708  0.01788923  0.20233268  1
  O  O529  1  0.16344920  0.01806491  0.45264796  1
  O  O530  1  0.16136889  0.01662380  0.70259561  1
  O  O531  1  0.16041196  0.01935456  0.95231950  1
  O  O532  1  0.16342622  0.35101246  0.20234488  1
  O  O533  1  0.16231080  0.35159685  0.45307532  1
  O  O534  1  0.16337988  0.35160001  0.70195506  1
  O  O535  1  0.16129346  0.35080300  0.95249265  1
  O  O536  1  0.16495527  0.68583819  0.20258593  1
  O  O537  1  0.16586680  0.68505629  0.45194513  1
  O  O538  1  0.16399491  0.68620284  0.70202066  1
  O  O539  1  0.16377307  0.68502559  0.95091095  1
  O  O540  1  0.66547609  0.01782188  0.20193246  1
  O  O541  1  0.66320116  0.01765953  0.45235632  1
  O  O542  1  0.66398044  0.01801016  0.70120975  1
  O  O543  1  0.66266262  0.01883516  0.95237657  1
  O  O544  1  0.66360558  0.35136168  0.20312272  1
  O  O545  1  0.65975727  0.35166256  0.45271646  1
  O  O546  1  0.66206429  0.35119168  0.70222201  1
  O  O547  1  0.66096859  0.35122492  0.95250027  1
  O  O548  1  0.66315886  0.68572001  0.20279626  1
  O  O549  1  0.65951593  0.68527413  0.45257679  1
  O  O550  1  0.66112002  0.68570150  0.70195729  1
  O  O551  1  0.66390081  0.68464391  0.95303665  1
  O  O552  1  0.33710410  0.31490356  0.04783006  1
  O  O553  1  0.33613318  0.31530173  0.29711902  1
  O  O554  1  0.33795605  0.31384408  0.54803909  1
  O  O555  1  0.33823516  0.31602944  0.79800871  1
  O  O556  1  0.33735089  0.64905502  0.04647884  1
  O  O557  1  0.33939503  0.64778092  0.29761777  1
  O  O558  1  0.33990968  0.64960578  0.54735384  1
  O  O559  1  0.33953038  0.64799154  0.79587061  1
  O  O560  1  0.33891236  0.98090118  0.04774976  1
  O  O561  1  0.33763840  0.98247045  0.29725291  1
  O  O562  1  0.33866745  0.98216581  0.54712191  1
  O  O563  1  0.33655087  0.98181690  0.79832407  1
  O  O564  1  0.83578284  0.31540349  0.04753334  1
  O  O565  1  0.83873274  0.31514168  0.29809351  1
  O  O566  1  0.83632405  0.31446013  0.54733625  1
  O  O567  1  0.83744094  0.31535705  0.79726430  1
  O  O568  1  0.83572810  0.64890728  0.04714761  1
  O  O569  1  0.83724323  0.64844604  0.29766994  1
  O  O570  1  0.83384381  0.64847152  0.54808143  1
  O  O571  1  0.83738774  0.64706605  0.79734948  1
  O  O572  1  0.83929922  0.98077352  0.04674719  1
  O  O573  1  0.83883764  0.98190139  0.29783437  1
  O  O574  1  0.83761960  0.98222402  0.54736192  1
  O  O575  1  0.83906241  0.98311304  0.79663757  1
  O  O576  1  0.41098557  0.14909918  0.17324765  1
  O  O577  1  0.41043368  0.14749780  0.42308460  1
  O  O578  1  0.41445640  0.14857409  0.67211080  1
  O  O579  1  0.41174878  0.14861795  0.92206919  1
  O  O580  1  0.41100636  0.48023830  0.17317532  1
  O  O581  1  0.41319601  0.48218813  0.42192886  1
  O  O582  1  0.41447709  0.48234262  0.67320908  1
  O  O583  1  0.41320154  0.48062734  0.92262620  1
  O  O584  1  0.41077594  0.81600746  0.17224055  1
  O  O585  1  0.41210624  0.81524932  0.42278613  1
  O  O586  1  0.41239534  0.81410840  0.67279545  1
  O  O587  1  0.41076511  0.81662827  0.92164567  1
  O  O588  1  0.91413812  0.14862109  0.17277190  1
  O  O589  1  0.91083407  0.14854929  0.42223232  1
  O  O590  1  0.91188327  0.14774200  0.67293923  1
  O  O591  1  0.91435834  0.14739953  0.92271244  1
  O  O592  1  0.91364130  0.48118608  0.17333159  1
  O  O593  1  0.91121648  0.48033311  0.42267620  1
  O  O594  1  0.91316784  0.48165345  0.67348946  1
  O  O595  1  0.91398551  0.48190696  0.92251114  1
  O  O596  1  0.91107485  0.81459171  0.17281069  1
  O  O597  1  0.91186359  0.81648638  0.42164160  1
  O  O598  1  0.91261870  0.81560492  0.67194003  1
  O  O599  1  0.91420224  0.81623998  0.92286290  1
  O  O600  1  0.09016501  0.18494169  0.07816917  1
  O  O601  1  0.08682464  0.18456543  0.32682004  1
  O  O602  1  0.08705244  0.18454679  0.57783681  1
  O  O603  1  0.08872026  0.18458892  0.82855208  1
  O  O604  1  0.08749672  0.51717754  0.07835474  1
  O  O605  1  0.08749247  0.51861139  0.32739157  1
  O  O606  1  0.08727170  0.51701394  0.57767725  1
  O  O607  1  0.08830539  0.51915344  0.82740092  1
  O  O608  1  0.08922277  0.85236919  0.07830837  1
  O  O609  1  0.08658257  0.85160332  0.32665178  1
  O  O610  1  0.08682325  0.85263148  0.57705314  1
  O  O611  1  0.08715646  0.85066669  0.82671906  1
  O  O612  1  0.58557559  0.18440301  0.07722150  1
  O  O613  1  0.58797494  0.18533130  0.32729821  1
  O  O614  1  0.58902792  0.18464242  0.57668421  1
  O  O615  1  0.58698944  0.18524277  0.82795248  1
  O  O616  1  0.58805667  0.51862914  0.07759638  1
  O  O617  1  0.58649899  0.51867837  0.32769633  1
  O  O618  1  0.58657037  0.51837385  0.57743086  1
  O  O619  1  0.58787396  0.51751520  0.82897373  1
  O  O620  1  0.58450540  0.85200293  0.07704210  1
  O  O621  1  0.58592678  0.85080664  0.32768021  1
  O  O622  1  0.58875984  0.85174498  0.57717049  1
  O  O623  1  0.58515877  0.85174703  0.82717266  1
  O  O624  1  0.33685387  0.18501727  0.04796408  1
  O  O625  1  0.33652549  0.18515128  0.29677358  1
  O  O626  1  0.33733570  0.18363429  0.54779152  1
  O  O627  1  0.33882269  0.18580178  0.79825817  1
  O  O628  1  0.33717931  0.51892630  0.04719441  1
  O  O629  1  0.33874222  0.51748228  0.29787105  1
  O  O630  1  0.34056818  0.51937735  0.54825611  1
  O  O631  1  0.33891638  0.51756543  0.79661324  1
  O  O632  1  0.33850077  0.85081017  0.04660497  1
  O  O633  1  0.33812213  0.85233901  0.29744909  1
  O  O634  1  0.33918077  0.85187297  0.54694625  1
  O  O635  1  0.33705868  0.85184427  0.79758908  1
  O  O636  1  0.83591921  0.18538801  0.04763374  1
  O  O637  1  0.83927229  0.18493964  0.29750685  1
  O  O638  1  0.83648321  0.18431778  0.54667455  1
  O  O639  1  0.83807899  0.18492570  0.79683376  1
  O  O640  1  0.83576249  0.51868634  0.04752460  1
  O  O641  1  0.83705849  0.51797934  0.29776845  1
  O  O642  1  0.83404968  0.51840689  0.54792355  1
  O  O643  1  0.83657581  0.51669815  0.79728665  1
  O  O644  1  0.83865975  0.85056223  0.04630875  1
  O  O645  1  0.83861234  0.85175096  0.29816027  1
  O  O646  1  0.83753876  0.85222894  0.54806803  1
  O  O647  1  0.83995648  0.85296502  0.79742882  1
  O  O648  1  0.16280473  0.14798685  0.20247860  1
  O  O649  1  0.16333905  0.14811091  0.45262737  1
  O  O650  1  0.16032499  0.14670788  0.70232729  1
  O  O651  1  0.16130028  0.14945433  0.95282197  1
  O  O652  1  0.16331411  0.48101655  0.20196817  1
  O  O653  1  0.16294487  0.48174112  0.45288238  1
  O  O654  1  0.16346238  0.48154359  0.70157371  1
  O  O655  1  0.16066030  0.48092225  0.95174652  1
  O  O656  1  0.16511746  0.81600052  0.20277560  1
  O  O657  1  0.16526030  0.81509618  0.45204904  1
  O  O658  1  0.16426279  0.81638635  0.70243170  1
  O  O659  1  0.16355191  0.81488540  0.95114294  1
  O  O660  1  0.66503136  0.14780163  0.20241111  1
  O  O661  1  0.66321617  0.14785662  0.45225793  1
  O  O662  1  0.66347183  0.14793447  0.70142281  1
  O  O663  1  0.66282743  0.14923465  0.95312768  1
  O  O664  1  0.66350378  0.48140092  0.20307248  1
  O  O665  1  0.65966598  0.48193822  0.45262747  1
  O  O666  1  0.66192165  0.48107999  0.70222884  1
  O  O667  1  0.66092430  0.48145977  0.95276095  1
  O  O668  1  0.66353308  0.81580324  0.20238206  1
  O  O669  1  0.65971396  0.81557488  0.45276421  1
  O  O670  1  0.66172044  0.81562380  0.70175617  1
  O  O671  1  0.66401207  0.81485642  0.95201962  1
