# generated using pymatgen
data_Na2MnFe(PO4)2
_symmetry_space_group_name_H-M   'P 1'
_cell_length_a   21.09127103
_cell_length_b   18.94513614
_cell_length_c   20.04968978
_cell_angle_alpha   89.99953392
_cell_angle_beta   89.99515667
_cell_angle_gamma   89.99901239
_symmetry_Int_Tables_number   1
_chemical_formula_structural   Na2MnFe(PO4)2
_chemical_formula_sum   'Na96 Mn48 Fe48 P96 O384'
_cell_volume   8011.39488402
_cell_formula_units_Z   48
loop_
 _symmetry_equiv_pos_site_id
 _symmetry_equiv_pos_as_xyz
  1  'x, y, z'
loop_
 _atom_site_type_symbol
 _atom_site_label
 _atom_site_symmetry_multiplicity
 _atom_site_fract_x
 _atom_site_fract_y
 _atom_site_fract_z
 _atom_site_occupancy
  Na  Na0  1  0.00030546  0.00036654  0.00010295  1
  Na  Na1  1  -0.00164810  -0.00024896  0.25084580  1
  Na  Na2  1  -0.00040158  0.00040832  0.49939312  1
  Na  Na3  1  0.00169138  0.00081383  0.74912572  1
  Na  Na4  1  -0.00046504  0.33283004  0.00072700  1
  Na  Na5  1  0.00070137  0.33345371  0.25025346  1
  Na  Na6  1  0.00187898  0.33431271  0.49952371  1
  Na  Na7  1  -0.00094103  0.33278404  0.74964807  1
  Na  Na8  1  -0.00157947  0.66607126  0.00124902  1
  Na  Na9  1  -0.00048456  0.66648381  0.25043848  1
  Na  Na10  1  0.00212876  0.66738475  0.49925300  1
  Na  Na11  1  0.00122501  0.66658769  0.74953296  1
  Na  Na12  1  0.50103661  -0.00002882  0.00110602  1
  Na  Na13  1  0.50133476  0.00004328  0.25052214  1
  Na  Na14  1  0.50050543  -0.00001875  0.49953749  1
  Na  Na15  1  0.50065864  -0.00025899  0.74982302  1
  Na  Na16  1  0.50099958  0.33423516  0.00004683  1
  Na  Na17  1  0.49941617  0.33308965  0.25106093  1
  Na  Na18  1  0.50005574  0.33327679  0.49902794  1
  Na  Na19  1  0.49924180  0.33228262  0.74983444  1
  Na  Na20  1  0.49941662  0.66794217  0.00010650  1
  Na  Na21  1  0.49812709  0.66634466  0.25043228  1
  Na  Na22  1  0.50006324  0.66757438  0.49989548  1
  Na  Na23  1  0.49787103  0.66656129  0.74860368  1
  Na  Na24  1  0.25195368  0.00113068  0.12572767  1
  Na  Na25  1  0.25080680  0.00041701  0.37441466  1
  Na  Na26  1  0.25002344  0.00031912  0.62515646  1
  Na  Na27  1  0.24927319  -0.00031301  0.87440683  1
  Na  Na28  1  0.25142850  0.33342827  0.12610049  1
  Na  Na29  1  0.25148922  0.33346860  0.37517182  1
  Na  Na30  1  0.25123114  0.33326826  0.62432420  1
  Na  Na31  1  0.25041647  0.33302915  0.87450755  1
  Na  Na32  1  0.25195004  0.66674548  0.12579439  1
  Na  Na33  1  0.25067261  0.66734818  0.37440150  1
  Na  Na34  1  0.24885264  0.66651585  0.62366473  1
  Na  Na35  1  0.25243566  0.66796835  0.87570506  1
  Na  Na36  1  0.74827871  -0.00063499  0.12560668  1
  Na  Na37  1  0.74880490  -0.00081676  0.37406092  1
  Na  Na38  1  0.74872657  -0.00021740  0.62463139  1
  Na  Na39  1  0.74688600  -0.00108714  0.87576216  1
  Na  Na40  1  0.74856850  0.33336700  0.12447135  1
  Na  Na41  1  0.74676438  0.33236666  0.37413306  1
  Na  Na42  1  0.74957774  0.33313207  0.62482997  1
  Na  Na43  1  0.75111786  0.33379112  0.87635766  1
  Na  Na44  1  0.75106343  0.66753334  0.12524938  1
  Na  Na45  1  0.75032666  0.66669961  0.37436601  1
  Na  Na46  1  0.74830802  0.66600507  0.62475079  1
  Na  Na47  1  0.75032313  0.66716914  0.87621862  1
  Na  Na48  1  0.00000201  0.16592310  0.00076630  1
  Na  Na49  1  -0.00006329  0.16556818  0.25076042  1
  Na  Na50  1  -0.00033544  0.16571337  0.49892596  1
  Na  Na51  1  0.00022454  0.16571490  0.74900169  1
  Na  Na52  1  -0.00089224  0.50154192  0.00087020  1
  Na  Na53  1  0.00065738  0.50121709  0.25053226  1
  Na  Na54  1  0.00244202  0.50068801  0.50027782  1
  Na  Na55  1  0.00110125  0.50067042  0.74918477  1
  Na  Na56  1  -0.00150918  0.83395078  0.00019069  1
  Na  Na57  1  -0.00276157  0.83439652  0.25030866  1
  Na  Na58  1  0.00103140  0.83263542  0.49887578  1
  Na  Na59  1  0.00141647  0.83270946  0.75034072  1
  Na  Na60  1  0.50035195  0.16565426  0.00062480  1
  Na  Na61  1  0.49891443  0.16617810  0.25059471  1
  Na  Na62  1  0.49876322  0.16651432  0.49946482  1
  Na  Na63  1  0.49982835  0.16572581  0.74919323  1
  Na  Na64  1  0.49764169  0.50164886  0.00013252  1
  Na  Na65  1  0.49983176  0.50041000  0.25103083  1
  Na  Na66  1  0.50127584  0.49962161  0.49913737  1
  Na  Na67  1  0.49986248  0.50017008  0.74946832  1
  Na  Na68  1  0.50025913  0.83364746  -0.00002812  1
  Na  Na69  1  0.50133109  0.83279225  0.25068865  1
  Na  Na70  1  0.49959150  0.83351906  0.49971853  1
  Na  Na71  1  0.50038777  0.83272951  0.75011699  1
  Na  Na72  1  0.25034906  0.16533416  0.12577520  1
  Na  Na73  1  0.25156318  0.16535566  0.37545950  1
  Na  Na74  1  0.25020283  0.16602870  0.62465295  1
  Na  Na75  1  0.24950596  0.16574940  0.87432482  1
  Na  Na76  1  0.25295039  0.49971106  0.12537584  1
  Na  Na77  1  0.24952947  0.50120988  0.37421100  1
  Na  Na78  1  0.24781706  0.50187783  0.62385097  1
  Na  Na79  1  0.25040426  0.50114314  0.87577178  1
  Na  Na80  1  0.25371203  0.83207049  0.12611223  1
  Na  Na81  1  0.25075166  0.83365562  0.37456521  1
  Na  Na82  1  0.25220267  0.83232553  0.62436968  1
  Na  Na83  1  0.25187806  0.83329166  0.87481714  1
  Na  Na84  1  0.74973935  0.16555183  0.12450991  1
  Na  Na85  1  0.74991063  0.16554176  0.37438008  1
  Na  Na86  1  0.74880371  0.16651382  0.62586940  1
  Na  Na87  1  0.74973018  0.16580078  0.87601116  1
  Na  Na88  1  0.75031264  0.50037534  0.12536858  1
  Na  Na89  1  0.74940120  0.50067979  0.37385179  1
  Na  Na90  1  0.74945666  0.50076860  0.62420558  1
  Na  Na91  1  0.75182142  0.49982158  0.87636281  1
  Na  Na92  1  0.74864676  0.83309869  0.12561291  1
  Na  Na93  1  0.74800983  0.83389099  0.37410229  1
  Na  Na94  1  0.74770444  0.83393462  0.62440492  1
  Na  Na95  1  0.74703159  0.83361629  0.87577384  1
  Mn  Mn96  1  0.10849117  0.41635221  0.12294964  1
  Mn  Mn97  1  0.14316909  0.58386478  0.99843637  1
  Mn  Mn98  1  0.85733312  0.08237434  0.00201979  1
  Mn  Mn99  1  0.60770104  0.41715100  0.87222862  1
  Mn  Mn100  1  0.60813835  0.41624232  0.62258514  1
  Mn  Mn101  1  0.39169124  0.58312391  0.62691099  1
  Mn  Mn102  1  0.85726953  0.75028053  0.50204253  1
  Mn  Mn103  1  0.14223528  0.24966445  0.99776619  1
  Mn  Mn104  1  0.10757228  0.75109111  0.12328130  1
  Mn  Mn105  1  0.35744362  0.08287688  0.75225587  1
  Mn  Mn106  1  0.85745645  0.08268323  0.75225911  1
  Mn  Mn107  1  0.39242586  0.24997214  0.12754533  1
  Mn  Mn108  1  0.14284925  0.91628149  0.99904559  1
  Mn  Mn109  1  0.64175419  0.24953817  0.99765559  1
  Mn  Mn110  1  0.14237075  0.91635992  0.24740347  1
  Mn  Mn111  1  0.85818127  0.41670261  0.00281123  1
  Mn  Mn112  1  0.35855971  0.41613646  0.00268435  1
  Mn  Mn113  1  0.64218825  0.58396310  0.24755552  1
  Mn  Mn114  1  0.85703133  0.75064668  0.00214448  1
  Mn  Mn115  1  0.89278685  0.58381558  0.62648022  1
  Mn  Mn116  1  0.89158526  0.24997910  0.62632143  1
  Mn  Mn117  1  0.60703457  0.74966076  0.62251873  1
  Mn  Mn118  1  0.14229171  0.91563851  0.74743301  1
  Mn  Mn119  1  0.39273461  0.91675646  0.87745423  1
  Mn  Mn120  1  0.14332304  0.25036734  0.24841342  1
  Mn  Mn121  1  0.89203272  0.25074260  0.37757990  1
  Mn  Mn122  1  0.64137603  0.24934391  0.24725402  1
  Mn  Mn123  1  0.85732132  0.41606102  0.50115293  1
  Mn  Mn124  1  0.10782417  0.41646606  0.87300794  1
  Mn  Mn125  1  0.14281657  0.91655394  0.49754758  1
  Mn  Mn126  1  0.35783667  0.41675748  0.50231449  1
  Mn  Mn127  1  0.64157564  0.58372885  0.99797174  1
  Mn  Mn128  1  0.89181419  0.91612484  0.62686197  1
  Mn  Mn129  1  0.39325288  0.91659634  0.37719949  1
  Mn  Mn130  1  0.64193877  0.58341383  0.74849798  1
  Mn  Mn131  1  0.85854260  0.41688695  0.75242152  1
  Mn  Mn132  1  0.10845628  0.41637724  0.62247301  1
  Mn  Mn133  1  0.60734502  0.08354750  0.62212956  1
  Mn  Mn134  1  0.64220081  0.25003226  0.74815411  1
  Mn  Mn135  1  0.14158878  0.25069284  0.74745775  1
  Mn  Mn136  1  0.39195911  0.24967291  0.87767380  1
  Mn  Mn137  1  0.35774589  0.41772083  0.75207153  1
  Mn  Mn138  1  0.89163521  0.91665469  0.87705171  1
  Mn  Mn139  1  0.85753939  0.41657955  0.25273061  1
  Mn  Mn140  1  0.89222857  0.24968021  0.12803968  1
  Mn  Mn141  1  0.85786482  0.75025514  0.75185849  1
  Mn  Mn142  1  0.10861006  0.75014205  0.87364530  1
  Mn  Mn143  1  0.14307887  0.24998063  0.49738416  1
  Fe  Fe144  1  0.60643201  0.41718438  0.12387063  1
  Fe  Fe145  1  0.85672710  0.08271781  0.25167422  1
  Fe  Fe146  1  0.35817251  0.75014618  0.25241161  1
  Fe  Fe147  1  0.60664247  0.74953361  0.12372519  1
  Fe  Fe148  1  0.64153876  0.24969200  0.49799281  1
  Fe  Fe149  1  0.89400719  0.58359696  0.37688332  1
  Fe  Fe150  1  0.85611575  0.08325286  0.50100621  1
  Fe  Fe151  1  0.10862291  0.75096803  0.62287686  1
  Fe  Fe152  1  0.14306678  0.58387550  0.49715915  1
  Fe  Fe153  1  0.39306046  0.58388918  0.12735096  1
  Fe  Fe154  1  0.10714936  0.08287088  0.62235943  1
  Fe  Fe155  1  0.39327331  0.24999233  0.37697495  1
  Fe  Fe156  1  0.35765320  0.08240231  0.50165919  1
  Fe  Fe157  1  0.89266712  0.58393978  0.12761075  1
  Fe  Fe158  1  0.60681168  0.08314887  0.87327429  1
  Fe  Fe159  1  0.10739335  0.08337805  0.87383900  1
  Fe  Fe160  1  0.60686463  0.08325131  0.12361025  1
  Fe  Fe161  1  0.39296224  0.91722312  0.62644946  1
  Fe  Fe162  1  0.89301006  0.58324675  0.87636730  1
  Fe  Fe163  1  0.85680113  0.75048245  0.25202894  1
  Fe  Fe164  1  0.35827478  0.41672359  0.25244267  1
  Fe  Fe165  1  0.60692832  0.74967376  0.37316542  1
  Fe  Fe166  1  0.64164369  0.91631444  0.99872092  1
  Fe  Fe167  1  0.39215486  0.58349052  0.87632070  1
  Fe  Fe168  1  0.64305754  0.91640897  0.24801120  1
  Fe  Fe169  1  0.10737863  0.75054683  0.37240988  1
  Fe  Fe170  1  0.39379008  0.91667920  0.12693033  1
  Fe  Fe171  1  0.14283522  0.58400857  0.74919430  1
  Fe  Fe172  1  0.10817718  0.41686449  0.37277005  1
  Fe  Fe173  1  0.64198369  0.91665434  0.49790484  1
  Fe  Fe174  1  0.14418804  0.58366756  0.24840705  1
  Fe  Fe175  1  0.60625814  0.74982427  0.87287968  1
  Fe  Fe176  1  0.89266998  0.24999413  0.87647205  1
  Fe  Fe177  1  0.89131575  0.91668503  0.12672117  1
  Fe  Fe178  1  0.10690558  0.08308769  0.37309651  1
  Fe  Fe179  1  0.35710530  0.74980684  0.75134597  1
  Fe  Fe180  1  0.89211512  0.91624060  0.37685417  1
  Fe  Fe181  1  0.35800941  0.08323890  0.25210802  1
  Fe  Fe182  1  0.64188051  0.91637009  0.74809392  1
  Fe  Fe183  1  0.35887137  0.75097811  0.00242434  1
  Fe  Fe184  1  0.10727214  0.08268761  0.12391177  1
  Fe  Fe185  1  0.60724142  0.08351101  0.37316124  1
  Fe  Fe186  1  0.64219609  0.58333833  0.49712435  1
  Fe  Fe187  1  0.35771802  0.08274547  0.00196074  1
  Fe  Fe188  1  0.39310004  0.58320728  0.37705017  1
  Fe  Fe189  1  0.60683523  0.41686196  0.37318202  1
  Fe  Fe190  1  0.39286853  0.24968645  0.62649621  1
  Fe  Fe191  1  0.35702797  0.75057222  0.50130575  1
  P  P192  1  0.05382424  0.24854707  0.11079699  1
  P  P193  1  0.05377566  0.24972863  0.36014490  1
  P  P194  1  0.05327833  0.24891362  0.60910904  1
  P  P195  1  0.05208916  0.24920180  0.86017286  1
  P  P196  1  0.05402360  0.58403756  0.11187964  1
  P  P197  1  0.05547964  0.58405077  0.36044831  1
  P  P198  1  0.05636479  0.58487949  0.61019121  1
  P  P199  1  0.05317218  0.58363935  0.86004762  1
  P  P200  1  0.05156132  0.91735333  0.11059648  1
  P  P201  1  0.05250817  0.91673456  0.36008981  1
  P  P202  1  0.05353183  0.91648202  0.60936719  1
  P  P203  1  0.05357775  0.91723513  0.86037635  1
  P  P204  1  0.55307605  0.25000277  0.11049282  1
  P  P205  1  0.55354369  0.24953403  0.36123734  1
  P  P206  1  0.55254997  0.24964422  0.60897642  1
  P  P207  1  0.55290494  0.24885454  0.85995006  1
  P  P208  1  0.55188616  0.58376268  0.11068915  1
  P  P209  1  0.55352766  0.58388617  0.36106028  1
  P  P210  1  0.55362454  0.58329087  0.60891780  1
  P  P211  1  0.55134474  0.58469825  0.86002148  1
  P  P212  1  0.55434622  0.91626180  0.11163318  1
  P  P213  1  0.55589739  0.91657747  0.36075814  1
  P  P214  1  0.55359668  0.91649181  0.61017302  1
  P  P215  1  0.55494803  0.91649248  0.86096924  1
  P  P216  1  0.44633309  0.08216887  0.13970523  1
  P  P217  1  0.44624484  0.08344161  0.38926573  1
  P  P218  1  0.44521526  0.08289831  0.63836448  1
  P  P219  1  0.44727540  0.08268879  0.89074591  1
  P  P220  1  0.44714587  0.41746160  0.14105211  1
  P  P221  1  0.44632054  0.41692389  0.38873370  1
  P  P222  1  0.44678083  0.41578119  0.63956897  1
  P  P223  1  0.44661554  0.41741589  0.88981956  1
  P  P224  1  0.44620978  0.75074194  0.13970945  1
  P  P225  1  0.44599175  0.74952302  0.38940709  1
  P  P226  1  0.44421307  0.75114100  0.63885987  1
  P  P227  1  0.44570874  0.74963788  0.88909338  1
  P  P228  1  0.94650908  0.08214626  0.14079194  1
  P  P229  1  0.94501948  0.08234918  0.38911288  1
  P  P230  1  0.94586989  0.08300093  0.63816828  1
  P  P231  1  0.94753675  0.08368288  0.88981158  1
  P  P232  1  0.94701147  0.41751795  0.14078796  1
  P  P233  1  0.94843757  0.41812048  0.38978943  1
  P  P234  1  0.94691746  0.41704055  0.63931594  1
  P  P235  1  0.94684828  0.41702121  0.89016420  1
  P  P236  1  0.94532600  0.75056221  0.14081794  1
  P  P237  1  0.94624199  0.74993543  0.38842058  1
  P  P238  1  0.94849433  0.75015317  0.63951480  1
  P  P239  1  0.94679406  0.74917243  0.89013019  1
  P  P240  1  0.19633303  0.08317428  0.23609234  1
  P  P241  1  0.19647620  0.08288635  0.48516979  1
  P  P242  1  0.19429648  0.08325199  0.73509385  1
  P  P243  1  0.19652250  0.08247263  0.98588279  1
  P  P244  1  0.19767088  0.41774245  0.23646422  1
  P  P245  1  0.19643365  0.41735274  0.48383440  1
  P  P246  1  0.19699298  0.41790997  0.73489011  1
  P  P247  1  0.19753953  0.41676307  0.98520436  1
  P  P248  1  0.19720758  0.74948228  0.23628382  1
  P  P249  1  0.19626736  0.75014881  0.48469849  1
  P  P250  1  0.19759941  0.74932834  0.73447275  1
  P  P251  1  0.19917391  0.75057649  0.98589300  1
  P  P252  1  0.69549960  0.08225001  0.23569317  1
  P  P253  1  0.69630481  0.08318009  0.48423787  1
  P  P254  1  0.69482402  0.08229881  0.73618967  1
  P  P255  1  0.69400040  0.08198903  0.98608952  1
  P  P256  1  0.69439237  0.41699053  0.23522181  1
  P  P257  1  0.69550968  0.41668059  0.48378058  1
  P  P258  1  0.69731217  0.41697570  0.73492354  1
  P  P259  1  0.69503474  0.41718667  0.98642430  1
  P  P260  1  0.69552466  0.75046162  0.23579788  1
  P  P261  1  0.69540729  0.74998032  0.48401536  1
  P  P262  1  0.69499816  0.75041751  0.73603716  1
  P  P263  1  0.69368082  0.75060176  0.98612943  1
  P  P264  1  0.30325046  0.24838944  0.01545504  1
  P  P265  1  0.30506221  0.24954883  0.26596328  1
  P  P266  1  0.30587138  0.24873342  0.51411431  1
  P  P267  1  0.30421490  0.24978458  0.76379987  1
  P  P268  1  0.30616779  0.58459439  0.01503938  1
  P  P269  1  0.30564169  0.58367070  0.26454559  1
  P  P270  1  0.30355330  0.58438801  0.51294954  1
  P  P271  1  0.30258872  0.58464937  0.76510628  1
  P  P272  1  0.30488791  0.91708360  0.01598246  1
  P  P273  1  0.30550056  0.91679105  0.26385155  1
  P  P274  1  0.30459576  0.91681110  0.51490324  1
  P  P275  1  0.30466949  0.91587522  0.76360790  1
  P  P276  1  0.80445285  0.24943145  0.01437621  1
  P  P277  1  0.80280226  0.24900095  0.26488645  1
  P  P278  1  0.80110315  0.24908484  0.51430553  1
  P  P279  1  0.80372038  0.24958062  0.76605948  1
  P  P280  1  0.80494157  0.58375478  0.01512248  1
  P  P281  1  0.80538600  0.58443445  0.26461678  1
  P  P282  1  0.80316560  0.58335184  0.51313030  1
  P  P283  1  0.80381763  0.58384547  0.76577706  1
  P  P284  1  0.80167869  0.91648409  0.01595032  1
  P  P285  1  0.80398546  0.91640026  0.26411884  1
  P  P286  1  0.80266952  0.91716463  0.51332246  1
  P  P287  1  0.80124711  0.91634969  0.76521030  1
  O  O288  1  0.05730005  0.24936581  0.18751205  1
  O  O289  1  0.05696503  0.24968005  0.43684926  1
  O  O290  1  0.05596212  0.24953425  0.68589190  1
  O  O291  1  0.05577053  0.24967452  0.93689110  1
  O  O292  1  0.05976334  0.58401563  0.18846012  1
  O  O293  1  0.05990222  0.58413299  0.43720535  1
  O  O294  1  0.06022145  0.58414405  0.68694921  1
  O  O295  1  0.05702502  0.58402280  0.93679488  1
  O  O296  1  0.05566646  0.91647792  0.18723435  1
  O  O297  1  0.05669512  0.91667419  0.43667038  1
  O  O298  1  0.05646678  0.91628201  0.68610433  1
  O  O299  1  0.05675222  0.91656006  0.93711790  1
  O  O300  1  0.55526179  0.24956720  0.18731344  1
  O  O301  1  0.55798684  0.24926514  0.43789019  1
  O  O302  1  0.55660725  0.24939068  0.68564036  1
  O  O303  1  0.55591851  0.24954491  0.93671913  1
  O  O304  1  0.55556327  0.58396113  0.18735128  1
  O  O305  1  0.55806686  0.58400211  0.43768983  1
  O  O306  1  0.55677271  0.58350846  0.68567836  1
  O  O307  1  0.55498350  0.58439706  0.93669218  1
  O  O308  1  0.55873498  0.91623534  0.18835481  1
  O  O309  1  0.55918211  0.91667997  0.43761851  1
  O  O310  1  0.55805654  0.91636660  0.68686534  1
  O  O311  1  0.55807700  0.91647576  0.93778749  1
  O  O312  1  0.44187329  0.08268528  0.06307910  1
  O  O313  1  0.44175019  0.08268136  0.31256050  1
  O  O314  1  0.44174123  0.08245211  0.56160301  1
  O  O315  1  0.44317016  0.08249852  0.81403445  1
  O  O316  1  0.44387514  0.41673076  0.06432774  1
  O  O317  1  0.44180945  0.41704476  0.31206585  1
  O  O318  1  0.44381125  0.41679163  0.56277702  1
  O  O319  1  0.44357462  0.41670060  0.81305096  1
  O  O320  1  0.44235255  0.75105221  0.06296768  1
  O  O321  1  0.44155317  0.75018483  0.31267175  1
  O  O322  1  0.44038143  0.75034510  0.56207920  1
  O  O323  1  0.44111574  0.75008023  0.81240798  1
  O  O324  1  0.94285773  0.08258063  0.06409690  1
  O  O325  1  0.93999844  0.08290334  0.31248180  1
  O  O326  1  0.94022799  0.08303344  0.56154935  1
  O  O327  1  0.94388524  0.08280545  0.81310873  1
  O  O328  1  0.94390324  0.41705957  0.06401776  1
  O  O329  1  0.94411722  0.41734040  0.31317284  1
  O  O330  1  0.94342562  0.41719078  0.56255929  1
  O  O331  1  0.94459516  0.41707609  0.81334992  1
  O  O332  1  0.94259233  0.75061869  0.06404488  1
  O  O333  1  0.94111691  0.75023882  0.31185977  1
  O  O334  1  0.94405067  0.75019346  0.56282052  1
  O  O335  1  0.94400154  0.74991266  0.81337741  1
  O  O336  1  0.19150127  0.08250187  0.06257541  1
  O  O337  1  0.19075984  0.08267620  0.31271852  1
  O  O338  1  0.19130953  0.08292200  0.56183355  1
  O  O339  1  0.18997452  0.08330853  0.81189261  1
  O  O340  1  0.19449474  0.41672514  0.06204798  1
  O  O341  1  0.19233165  0.41700556  0.31307323  1
  O  O342  1  0.19351976  0.41650565  0.56063061  1
  O  O343  1  0.19412460  0.41687720  0.81167239  1
  O  O344  1  0.19463694  0.75049442  0.06253730  1
  O  O345  1  0.19173799  0.75067456  0.31287888  1
  O  O346  1  0.19194889  0.75092879  0.56137965  1
  O  O347  1  0.19423008  0.75046168  0.81119825  1
  O  O348  1  0.68994737  0.08305711  0.06289303  1
  O  O349  1  0.69078611  0.08329287  0.31233642  1
  O  O350  1  0.69303151  0.08336579  0.56094309  1
  O  O351  1  0.69085140  0.08303527  0.81292999  1
  O  O352  1  0.68993234  0.41763760  0.06315984  1
  O  O353  1  0.68957176  0.41715614  0.31196920  1
  O  O354  1  0.69330117  0.41680490  0.56059857  1
  O  O355  1  0.69407465  0.41705681  0.81173345  1
  O  O356  1  0.68961722  0.74935939  0.06293324  1
  O  O357  1  0.69062951  0.74927165  0.31240671  1
  O  O358  1  0.69255963  0.74985527  0.56081135  1
  O  O359  1  0.69083503  0.74943431  0.81278124  1
  O  O360  1  0.30752240  0.24949912  0.18915194  1
  O  O361  1  0.31006838  0.24958113  0.43733162  1
  O  O362  1  0.30870770  0.24951787  0.68704650  1
  O  O363  1  0.30590446  0.24889765  0.93865337  1
  O  O364  1  0.31017593  0.58355018  0.18779294  1
  O  O365  1  0.30873889  0.58369904  0.43634230  1
  O  O366  1  0.30579089  0.58371751  0.68834713  1
  O  O367  1  0.30979919  0.58399983  0.93825091  1
  O  O368  1  0.30981917  0.91679184  0.18716804  1
  O  O369  1  0.30745041  0.91704438  0.43816847  1
  O  O370  1  0.30864662  0.91695265  0.68692458  1
  O  O371  1  0.30723391  0.91721578  0.93917968  1
  O  O372  1  0.80588731  0.24980147  0.18811357  1
  O  O373  1  0.80531468  0.24986880  0.43763037  1
  O  O374  1  0.80656542  0.24944527  0.68920953  1
  O  O375  1  0.80927394  0.24948921  0.93766371  1
  O  O376  1  0.80942599  0.58365543  0.18783918  1
  O  O377  1  0.80899136  0.58348598  0.43655013  1
  O  O378  1  0.80690441  0.58395914  0.68892918  1
  O  O379  1  0.80950059  0.58362464  0.93842165  1
  O  O380  1  0.80814950  0.91650776  0.18743927  1
  O  O381  1  0.80783554  0.91619212  0.43667925  1
  O  O382  1  0.80541961  0.91637744  0.68848446  1
  O  O383  1  0.80578812  0.91652652  0.93927770  1
  O  O384  1  0.23389299  0.24905435  0.04141628  1
  O  O385  1  0.23544555  0.24936495  0.29137626  1
  O  O386  1  0.23579133  0.24959550  0.53808439  1
  O  O387  1  0.23422655  0.24948180  0.78793888  1
  O  O388  1  0.23624498  0.58357345  0.03966377  1
  O  O389  1  0.23520374  0.58423407  0.28804428  1
  O  O390  1  0.23313606  0.58414430  0.53625795  1
  O  O391  1  0.23274057  0.58461832  0.79026463  1
  O  O392  1  0.23542205  0.91655992  0.04193241  1
  O  O393  1  0.23549915  0.91695249  0.28813734  1
  O  O394  1  0.23493760  0.91660464  0.54010809  1
  O  O395  1  0.23481561  0.91620887  0.78822150  1
  O  O396  1  0.73431612  0.24941932  0.03810335  1
  O  O397  1  0.73302121  0.24903096  0.28967107  1
  O  O398  1  0.73103450  0.24960654  0.53880589  1
  O  O399  1  0.73408624  0.24984153  0.79132043  1
  O  O400  1  0.73473105  0.58403188  0.03886220  1
  O  O401  1  0.73509986  0.58388823  0.28810927  1
  O  O402  1  0.73259991  0.58341605  0.53605679  1
  O  O403  1  0.73416504  0.58356113  0.79106155  1
  O  O404  1  0.73154302  0.91620662  0.04007730  1
  O  O405  1  0.73348587  0.91629977  0.28763564  1
  O  O406  1  0.73221165  0.91684612  0.53673678  1
  O  O407  1  0.73125684  0.91630123  0.78963801  1
  O  O408  1  0.26708756  0.08335920  0.21364600  1
  O  O409  1  0.26704363  0.08254418  0.46213482  1
  O  O410  1  0.26451441  0.08310458  0.71156282  1
  O  O411  1  0.26688990  0.08220726  0.96220116  1
  O  O412  1  0.26820269  0.41700339  0.21325028  1
  O  O413  1  0.26626749  0.41726373  0.45910796  1
  O  O414  1  0.26640505  0.41792801  0.70893612  1
  O  O415  1  0.26715589  0.41683676  0.96005433  1
  O  O416  1  0.26779323  0.74931853  0.21338437  1
  O  O417  1  0.26671084  0.75077970  0.46106396  1
  O  O418  1  0.26754363  0.74949416  0.70961036  1
  O  O419  1  0.26930644  0.75100318  0.96183793  1
  O  O420  1  0.76590221  0.08226786  0.21211159  1
  O  O421  1  0.76632456  0.08267070  0.45937396  1
  O  O422  1  0.76465238  0.08271747  0.71146460  1
  O  O423  1  0.76403952  0.08219115  0.96194894  1
  O  O424  1  0.76460711  0.41701839  0.21183061  1
  O  O425  1  0.76505310  0.41654218  0.45792379  1
  O  O426  1  0.76681347  0.41706769  0.70947857  1
  O  O427  1  0.76524218  0.41688690  0.96307694  1
  O  O428  1  0.76598153  0.75051034  0.21252256  1
  O  O429  1  0.76513514  0.75024511  0.45887738  1
  O  O430  1  0.76477206  0.75024742  0.71107277  1
  O  O431  1  0.76378255  0.75047965  0.96219043  1
  O  O432  1  0.01660112  0.08256970  0.16532934  1
  O  O433  1  0.01566336  0.08290109  0.41209115  1
  O  O434  1  0.01631488  0.08286243  0.66130244  1
  O  O435  1  0.01751124  0.08330449  0.91463163  1
  O  O436  1  0.01674586  0.41730147  0.16581430  1
  O  O437  1  0.01865980  0.41777552  0.41376867  1
  O  O438  1  0.01665859  0.41676669  0.66417276  1
  O  O439  1  0.01621865  0.41719713  0.91639649  1
  O  O440  1  0.01506074  0.75052470  0.16610324  1
  O  O441  1  0.01676552  0.74993601  0.41172831  1
  O  O442  1  0.01857633  0.75013437  0.66368895  1
  O  O443  1  0.01628960  0.74976845  0.91596536  1
  O  O444  1  0.51676572  0.08276854  0.16341928  1
  O  O445  1  0.51669818  0.08301416  0.41274300  1
  O  O446  1  0.51502442  0.08285296  0.66311769  1
  O  O447  1  0.51741512  0.08267286  0.91475573  1
  O  O448  1  0.51713487  0.41676496  0.16583570  1
  O  O449  1  0.51666883  0.41684157  0.41248134  1
  O  O450  1  0.51631283  0.41602173  0.66500394  1
  O  O451  1  0.51614483  0.41780136  0.91528811  1
  O  O452  1  0.51653157  0.75013565  0.16382088  1
  O  O453  1  0.51639934  0.75042209  0.41285858  1
  O  O454  1  0.51423350  0.75001222  0.66299695  1
  O  O455  1  0.51600458  0.75083996  0.91292376  1
  O  O456  1  0.48362533  0.25002331  0.08460916  1
  O  O457  1  0.48322823  0.24958586  0.33732428  1
  O  O458  1  0.48247928  0.24970091  0.58472770  1
  O  O459  1  0.48335258  0.24876243  0.83455304  1
  O  O460  1  0.48181851  0.58452171  0.08615478  1
  O  O461  1  0.48320470  0.58361618  0.33726851  1
  O  O462  1  0.48377029  0.58353897  0.58422428  1
  O  O463  1  0.48144143  0.58379793  0.83500528  1
  O  O464  1  0.48405069  0.91649716  0.08761278  1
  O  O465  1  0.48592022  0.91637069  0.33645918  1
  O  O466  1  0.48334834  0.91675594  0.58632337  1
  O  O467  1  0.48510316  0.91622274  0.83608882  1
  O  O468  1  0.98410500  0.24891049  0.08590373  1
  O  O469  1  0.98402546  0.24967872  0.33510743  1
  O  O470  1  0.98377858  0.24972893  0.58340241  1
  O  O471  1  0.98221638  0.24936670  0.83515693  1
  O  O472  1  0.98343041  0.58424601  0.08912559  1
  O  O473  1  0.98501388  0.58409709  0.33701398  1
  O  O474  1  0.98633280  0.58414703  0.58578734  1
  O  O475  1  0.98317678  0.58354919  0.83544342  1
  O  O476  1  0.98151964  0.91706968  0.08611401  1
  O  O477  1  0.98224238  0.91665970  0.33613128  1
  O  O478  1  0.98400087  0.91646080  0.58375939  1
  O  O479  1  0.98398386  0.91678791  0.83485569  1
  O  O480  1  0.08792737  0.31348047  0.07805722  1
  O  O481  1  0.08782441  0.31491752  0.32780730  1
  O  O482  1  0.08817653  0.31376862  0.57712032  1
  O  O483  1  0.08598467  0.31436693  0.82748837  1
  O  O484  1  0.08696717  0.64909943  0.07815384  1
  O  O485  1  0.08880788  0.64914352  0.32713009  1
  O  O486  1  0.08966780  0.65024354  0.57735696  1
  O  O487  1  0.08726752  0.64858908  0.82725311  1
  O  O488  1  0.08552877  0.98250098  0.07836482  1
  O  O489  1  0.08608249  0.98183274  0.32723785  1
  O  O490  1  0.08773162  0.98159866  0.57706027  1
  O  O491  1  0.08757262  0.98236827  0.82820621  1
  O  O492  1  0.58730234  0.31521090  0.07875063  1
  O  O493  1  0.58679176  0.31462928  0.32815166  1
  O  O494  1  0.58657511  0.31452876  0.57621488  1
  O  O495  1  0.58690175  0.31400129  0.82747786  1
  O  O496  1  0.58594404  0.64862202  0.07797538  1
  O  O497  1  0.58647072  0.64907955  0.32755236  1
  O  O498  1  0.58782077  0.64818584  0.57628407  1
  O  O499  1  0.58466821  0.65002687  0.82734447  1
  O  O500  1  0.58783812  0.98127141  0.07849070  1
  O  O501  1  0.58948762  0.98169128  0.32788920  1
  O  O502  1  0.58736388  0.98128111  0.57687623  1
  O  O503  1  0.58856748  0.98165454  0.82816448  1
  O  O504  1  0.41334301  0.01705858  0.17313430  1
  O  O505  1  0.41285662  0.01853992  0.42284412  1
  O  O506  1  0.41163312  0.01788001  0.67152272  1
  O  O507  1  0.41367232  0.01770912  0.92384713  1
  O  O508  1  0.41269434  0.35270104  0.17376751  1
  O  O509  1  0.41311248  0.35181260  0.42178192  1
  O  O510  1  0.41263970  0.35059820  0.67138812  1
  O  O511  1  0.41284564  0.35221204  0.92251704  1
  O  O512  1  0.41236804  0.68584004  0.17269234  1
  O  O513  1  0.41279874  0.68441609  0.42250336  1
  O  O514  1  0.40999479  0.68645607  0.67203412  1
  O  O515  1  0.41282936  0.68441097  0.92232346  1
  O  O516  1  0.91250577  0.01704396  0.17327583  1
  O  O517  1  0.91209095  0.01705472  0.42237643  1
  O  O518  1  0.91281709  0.01797693  0.67189697  1
  O  O519  1  0.91348639  0.01870318  0.92270287  1
  O  O520  1  0.91291622  0.35237445  0.17318220  1
  O  O521  1  0.91457621  0.35306475  0.42270465  1
  O  O522  1  0.91277359  0.35197010  0.67152135  1
  O  O523  1  0.91257582  0.35174871  0.92208902  1
  O  O524  1  0.91104103  0.68562507  0.17328052  1
  O  O525  1  0.91333998  0.68471556  0.42191855  1
  O  O526  1  0.91467939  0.68516099  0.67218944  1
  O  O527  1  0.91273497  0.68393890  0.92212416  1
  O  O528  1  0.16341673  0.01829827  0.20197245  1
  O  O529  1  0.16311824  0.01800080  0.45159554  1
  O  O530  1  0.16082419  0.01821645  0.70186156  1
  O  O531  1  0.16301743  0.01750273  0.95264799  1
  O  O532  1  0.16435311  0.35276995  0.20301230  1
  O  O533  1  0.16235462  0.35238526  0.45113017  1
  O  O534  1  0.16282196  0.35288507  0.70228001  1
  O  O535  1  0.16348594  0.35166166  0.95288733  1
  O  O536  1  0.16414835  0.68439249  0.20309677  1
  O  O537  1  0.16307168  0.68506519  0.45154552  1
  O  O538  1  0.16360051  0.68426103  0.70227504  1
  O  O539  1  0.16579170  0.68545016  0.95288605  1
  O  O540  1  0.66203188  0.01706144  0.20290130  1
  O  O541  1  0.66203464  0.01826102  0.45172792  1
  O  O542  1  0.66126427  0.01706724  0.70347153  1
  O  O543  1  0.66047262  0.01662419  0.95375417  1
  O  O544  1  0.66085629  0.35199520  0.20214870  1
  O  O545  1  0.66091116  0.35159705  0.45185771  1
  O  O546  1  0.66319569  0.35178642  0.70271483  1
  O  O547  1  0.66168781  0.35211693  0.95329732  1
  O  O548  1  0.66228505  0.68566646  0.20175462  1
  O  O549  1  0.66128336  0.68497676  0.45138653  1
  O  O550  1  0.66120157  0.68555335  0.70280822  1
  O  O551  1  0.65998978  0.68595368  0.95235877  1
  O  O552  1  0.33793185  0.31331374  0.04763696  1
  O  O553  1  0.33930543  0.31470175  0.29808573  1
  O  O554  1  0.33984305  0.31349329  0.54735160  1
  O  O555  1  0.33755548  0.31501111  0.79668307  1
  O  O556  1  0.33940657  0.65005122  0.04771981  1
  O  O557  1  0.33933369  0.64854718  0.29776086  1
  O  O558  1  0.33650394  0.64954808  0.54612679  1
  O  O559  1  0.33685662  0.64975441  0.79722003  1
  O  O560  1  0.33917530  0.98219568  0.04824543  1
  O  O561  1  0.33915741  0.98175174  0.29693344  1
  O  O562  1  0.33877521  0.98177656  0.54749693  1
  O  O563  1  0.33839038  0.98057731  0.79719497  1
  O  O564  1  0.83781828  0.31441677  0.04769404  1
  O  O565  1  0.83668490  0.31402741  0.29775322  1
  O  O566  1  0.83517532  0.31402160  0.54704729  1
  O  O567  1  0.83827842  0.31451167  0.79822703  1
  O  O568  1  0.83847736  0.64882748  0.04819727  1
  O  O569  1  0.83851148  0.64977018  0.29748589  1
  O  O570  1  0.83607890  0.64841977  0.54694361  1
  O  O571  1  0.83787847  0.64889221  0.79826021  1
  O  O572  1  0.83542817  0.98145969  0.04891014  1
  O  O573  1  0.83721155  0.98138894  0.29756455  1
  O  O574  1  0.83562971  0.98240770  0.54641179  1
  O  O575  1  0.83491906  0.98139890  0.79813197  1
  O  O576  1  0.41264780  0.14699105  0.17316211  1
  O  O577  1  0.41281251  0.14839093  0.42229770  1
  O  O578  1  0.41163630  0.14819669  0.67092507  1
  O  O579  1  0.41326322  0.14748175  0.92367749  1
  O  O580  1  0.41351301  0.48274825  0.17341921  1
  O  O581  1  0.41317413  0.48200540  0.42209684  1
  O  O582  1  0.41263021  0.48095553  0.67189339  1
  O  O583  1  0.41213952  0.48242593  0.92163674  1
  O  O584  1  0.41304499  0.81579935  0.17313044  1
  O  O585  1  0.41225873  0.81431273  0.42275566  1
  O  O586  1  0.41130772  0.81653178  0.67179332  1
  O  O587  1  0.41188887  0.81432668  0.92275894  1
  O  O588  1  0.91230291  0.14691539  0.17379969  1
  O  O589  1  0.91151565  0.14715686  0.42280993  1
  O  O590  1  0.91281520  0.14806015  0.67162346  1
  O  O591  1  0.91375333  0.14874433  0.92231153  1
  O  O592  1  0.91290630  0.48254963  0.17300502  1
  O  O593  1  0.91498809  0.48331535  0.42247951  1
  O  O594  1  0.91327407  0.48221182  0.67189333  1
  O  O595  1  0.91239654  0.48219046  0.92209313  1
  O  O596  1  0.91101593  0.81568045  0.17301300  1
  O  O597  1  0.91304472  0.81497430  0.42198793  1
  O  O598  1  0.91466405  0.81513242  0.67242063  1
  O  O599  1  0.91208594  0.81409032  0.92242081  1
  O  O600  1  0.08747793  0.18306565  0.07869960  1
  O  O601  1  0.08773812  0.18449163  0.32793074  1
  O  O602  1  0.08720121  0.18363794  0.57697764  1
  O  O603  1  0.08614706  0.18422624  0.82779360  1
  O  O604  1  0.08694942  0.51900390  0.07823482  1
  O  O605  1  0.08895180  0.51907627  0.32716009  1
  O  O606  1  0.09055288  0.52018498  0.57691714  1
  O  O607  1  0.08719802  0.51869892  0.82735461  1
  O  O608  1  0.08552332  0.85245397  0.07756154  1
  O  O609  1  0.08618939  0.85172428  0.32699556  1
  O  O610  1  0.08788490  0.85138676  0.57716729  1
  O  O611  1  0.08800732  0.85219466  0.82798752  1
  O  O612  1  0.58730433  0.18484188  0.07850549  1
  O  O613  1  0.58664984  0.18439623  0.32784223  1
  O  O614  1  0.58630470  0.18471093  0.57585513  1
  O  O615  1  0.58701893  0.18363728  0.82796595  1
  O  O616  1  0.58506696  0.51843621  0.07797400  1
  O  O617  1  0.58697722  0.51896025  0.32784358  1
  O  O618  1  0.58773967  0.51828859  0.57650931  1
  O  O619  1  0.58578840  0.51994818  0.82741362  1
  O  O620  1  0.58750202  0.85115431  0.07831690  1
  O  O621  1  0.58969971  0.85154942  0.32792766  1
  O  O622  1  0.58703069  0.85155554  0.57682233  1
  O  O623  1  0.58887817  0.85148462  0.82811504  1
  O  O624  1  0.33734911  0.18312141  0.04740465  1
  O  O625  1  0.33952848  0.18453656  0.29807563  1
  O  O626  1  0.33895560  0.18332648  0.54682127  1
  O  O627  1  0.33783048  0.18486788  0.79707542  1
  O  O628  1  0.34055666  0.51995568  0.04814780  1
  O  O629  1  0.33863817  0.51851302  0.29799496  1
  O  O630  1  0.33657698  0.51947211  0.54681317  1
  O  O631  1  0.33678477  0.51988837  0.79808563  1
  O  O632  1  0.33987493  0.85224636  0.04798986  1
  O  O633  1  0.33891095  0.85160351  0.29689618  1
  O  O634  1  0.33892251  0.85171579  0.54694886  1
  O  O635  1  0.33814531  0.85048651  0.79605146  1
  O  O636  1  0.83762578  0.18419217  0.04741429  1
  O  O637  1  0.83674871  0.18378963  0.29685134  1
  O  O638  1  0.83452682  0.18375402  0.54681927  1
  O  O639  1  0.83780039  0.18447252  0.79845874  1
  O  O640  1  0.83852819  0.51891026  0.04857624  1
  O  O641  1  0.83918800  0.51973716  0.29816037  1
  O  O642  1  0.83617997  0.51830045  0.54660989  1
  O  O643  1  0.83833817  0.51898377  0.79817039  1
  O  O644  1  0.83571804  0.85167279  0.04885497  1
  O  O645  1  0.83730380  0.85138600  0.29762818  1
  O  O646  1  0.83582273  0.85225332  0.54718061  1
  O  O647  1  0.83505921  0.85137377  0.79798606  1
  O  O648  1  0.16329531  0.14817512  0.20261434  1
  O  O649  1  0.16344155  0.14789425  0.45160203  1
  O  O650  1  0.16083709  0.14813099  0.70168843  1
  O  O651  1  0.16318770  0.14747196  0.95234514  1
  O  O652  1  0.16506926  0.48309187  0.20315785  1
  O  O653  1  0.16234117  0.48243359  0.45165957  1
  O  O654  1  0.16279013  0.48322368  0.70335052  1
  O  O655  1  0.16341599  0.48188344  0.95313906  1
  O  O656  1  0.16441335  0.81452234  0.20233099  1
  O  O657  1  0.16260871  0.81493165  0.45109844  1
  O  O658  1  0.16363726  0.81413620  0.70110382  1
  O  O659  1  0.16533720  0.81543917  0.95295816  1
  O  O660  1  0.66201425  0.14695718  0.20184925  1
  O  O661  1  0.66247970  0.14825337  0.45141946  1
  O  O662  1  0.66103085  0.14720947  0.70300169  1
  O  O663  1  0.66022223  0.14665437  0.95249396  1
  O  O664  1  0.66094345  0.48203530  0.20196056  1
  O  O665  1  0.66109698  0.48172232  0.45149142  1
  O  O666  1  0.66294793  0.48190389  0.70265725  1
  O  O667  1  0.66209043  0.48230312  0.95287010  1
  O  O668  1  0.66203034  0.81554017  0.20288475  1
  O  O669  1  0.66104563  0.81501693  0.45182924  1
  O  O670  1  0.66117742  0.81564546  0.70349027  1
  O  O671  1  0.66017131  0.81592638  0.95372091  1
