# generated using pymatgen
data_Na2MnFe(PO4)2
_symmetry_space_group_name_H-M   'P 1'
_cell_length_a   21.08039499
_cell_length_b   18.93195375
_cell_length_c   20.03963818
_cell_angle_alpha   90.00012408
_cell_angle_beta   90.00240694
_cell_angle_gamma   89.99946452
_symmetry_Int_Tables_number   1
_chemical_formula_structural   Na2MnFe(PO4)2
_chemical_formula_sum   'Na96 Mn48 Fe48 P96 O384'
_cell_volume   7997.68057683
_cell_formula_units_Z   48
loop_
 _symmetry_equiv_pos_site_id
 _symmetry_equiv_pos_as_xyz
  1  'x, y, z'
loop_
 _atom_site_type_symbol
 _atom_site_label
 _atom_site_symmetry_multiplicity
 _atom_site_fract_x
 _atom_site_fract_y
 _atom_site_fract_z
 _atom_site_occupancy
  Na  Na0  1  0.00118575  0.00021378  0.00102232  1
  Na  Na1  1  0.00041337  -0.00019499  0.25099457  1
  Na  Na2  1  -0.00092844  -0.00020648  0.49884998  1
  Na  Na3  1  -0.00070362  -0.00039145  0.74902531  1
  Na  Na4  1  -0.00062665  0.33280316  0.00045457  1
  Na  Na5  1  0.00013940  0.33337094  0.25024855  1
  Na  Na6  1  -0.00187560  0.33342232  0.50015429  1
  Na  Na7  1  -0.00142752  0.33384357  0.74942044  1
  Na  Na8  1  0.00063870  0.66721960  -0.00046494  1
  Na  Na9  1  -0.00044989  0.66666381  0.25044266  1
  Na  Na10  1  -0.00058783  0.66614306  0.50121100  1
  Na  Na11  1  0.00050440  0.66732327  0.74909064  1
  Na  Na12  1  0.49850806  -0.00115598  0.00143460  1
  Na  Na13  1  0.49950212  -0.00056750  0.25078449  1
  Na  Na14  1  0.50351821  0.00126164  0.49859695  1
  Na  Na15  1  0.50031808  -0.00059085  0.74971560  1
  Na  Na16  1  0.50010014  0.33345402  -0.00029488  1
  Na  Na17  1  0.50162758  0.33412872  0.24993900  1
  Na  Na18  1  0.49857249  0.33314759  0.49962954  1
  Na  Na19  1  0.49679215  0.33226509  0.75022775  1
  Na  Na20  1  0.49884136  0.66601980  -0.00014414  1
  Na  Na21  1  0.49813889  0.66591438  0.25085986  1
  Na  Na22  1  0.50108193  0.66655956  0.49939615  1
  Na  Na23  1  0.50291518  0.66746408  0.74995294  1
  Na  Na24  1  0.24904398  -0.00070853  0.12397052  1
  Na  Na25  1  0.25002968  0.00000746  0.37515189  1
  Na  Na26  1  0.24927103  -0.00109769  0.62489824  1
  Na  Na27  1  0.25116063  0.00017372  0.87572116  1
  Na  Na28  1  0.25034916  0.33323975  0.12425014  1
  Na  Na29  1  0.25065332  0.33352910  0.37616013  1
  Na  Na30  1  0.25214942  0.33444604  0.62607236  1
  Na  Na31  1  0.25146285  0.33399192  0.87395688  1
  Na  Na32  1  0.25150757  0.66708212  0.12455411  1
  Na  Na33  1  0.25200963  0.66709173  0.37426618  1
  Na  Na34  1  0.24803216  0.66515942  0.62506495  1
  Na  Na35  1  0.25031080  0.66674613  0.87522863  1
  Na  Na36  1  0.75013862  0.00019840  0.12510981  1
  Na  Na37  1  0.74967375  0.00042505  0.37572528  1
  Na  Na38  1  0.74908150  -0.00010275  0.62496608  1
  Na  Na39  1  0.75007815  -0.00002440  0.87427481  1
  Na  Na40  1  0.74975923  0.33316650  0.12530925  1
  Na  Na41  1  0.74891607  0.33294843  0.37415663  1
  Na  Na42  1  0.75296816  0.33482497  0.62508396  1
  Na  Na43  1  0.75179114  0.33363115  0.87501015  1
  Na  Na44  1  0.74787720  0.66649069  0.12502421  1
  Na  Na45  1  0.75112285  0.66759699  0.37553663  1
  Na  Na46  1  0.74906085  0.66624117  0.62502418  1
  Na  Na47  1  0.74863871  0.66718140  0.87503318  1
  Na  Na48  1  -0.00077788  0.16720807  0.00092951  1
  Na  Na49  1  -0.00020465  0.16657575  0.25091275  1
  Na  Na50  1  -0.00180419  0.16699626  0.49927681  1
  Na  Na51  1  -0.00216970  0.16734492  0.74881453  1
  Na  Na52  1  0.00224636  0.49918950  -0.00064669  1
  Na  Na53  1  -0.00149396  0.50106398  0.25054193  1
  Na  Na54  1  0.00010684  0.50028321  0.50107131  1
  Na  Na55  1  0.00223806  0.49924086  0.74906654  1
  Na  Na56  1  0.00029192  0.83268583  0.00071757  1
  Na  Na57  1  0.00187875  0.83247563  0.24997427  1
  Na  Na58  1  -0.00181410  0.83367206  0.49981213  1
  Na  Na59  1  -0.00184276  0.83282131  0.74946214  1
  Na  Na60  1  0.50028222  0.16718264  0.00074470  1
  Na  Na61  1  0.50124032  0.16640532  0.25020561  1
  Na  Na62  1  0.50082869  0.16631566  0.49842329  1
  Na  Na63  1  0.50048658  0.16682963  0.75060574  1
  Na  Na64  1  0.49897895  0.50026762  -0.00083066  1
  Na  Na65  1  0.49747412  0.50101384  0.25100462  1
  Na  Na66  1  0.50111587  0.49922182  0.50068959  1
  Na  Na67  1  0.49917043  0.50091941  0.74937861  1
  Na  Na68  1  0.49982194  0.83252337  0.00138499  1
  Na  Na69  1  0.50053961  0.83298320  0.25019033  1
  Na  Na70  1  0.50132205  0.83329745  0.49852982  1
  Na  Na71  1  0.50069547  0.83287976  0.74968880  1
  Na  Na72  1  0.24929715  0.16682441  0.12409900  1
  Na  Na73  1  0.24943826  0.16679804  0.37546642  1
  Na  Na74  1  0.25127425  0.16653139  0.62520483  1
  Na  Na75  1  0.25125882  0.16677702  0.87511071  1
  Na  Na76  1  0.25203805  0.49985447  0.12436027  1
  Na  Na77  1  0.25260220  0.49944736  0.37512213  1
  Na  Na78  1  0.24966197  0.49995004  0.62511132  1
  Na  Na79  1  0.24971170  0.50040509  0.87504341  1
  Na  Na80  1  0.24993714  0.83314856  0.12420827  1
  Na  Na81  1  0.24934503  0.83387707  0.37536952  1
  Na  Na82  1  0.24943400  0.83328531  0.62539381  1
  Na  Na83  1  0.25088948  0.83245585  0.87514298  1
  Na  Na84  1  0.74981388  0.16721481  0.12504087  1
  Na  Na85  1  0.74989748  0.16643320  0.37529493  1
  Na  Na86  1  0.75132521  0.16659765  0.62509194  1
  Na  Na87  1  0.75089123  0.16782344  0.87449487  1
  Na  Na88  1  0.74919440  0.50030773  0.12595488  1
  Na  Na89  1  0.75013257  0.50003402  0.37472467  1
  Na  Na90  1  0.74925317  0.50050385  0.62402162  1
  Na  Na91  1  0.74830923  0.50103091  0.87537187  1
  Na  Na92  1  0.74788465  0.83314716  0.12443788  1
  Na  Na93  1  0.74883705  0.83352947  0.37540338  1
  Na  Na94  1  0.75074326  0.83239819  0.62591331  1
  Na  Na95  1  0.74951049  0.83251157  0.87484699  1
  Mn  Mn96  1  0.60748242  0.41687355  0.87218252  1
  Mn  Mn97  1  0.39287837  0.58358174  0.62731526  1
  Mn  Mn98  1  0.64184467  0.91689672  0.99738164  1
  Mn  Mn99  1  0.85756746  0.75076247  0.25157040  1
  Mn  Mn100  1  0.85786800  0.41792610  0.00217006  1
  Mn  Mn101  1  0.89160278  0.25085085  0.37714805  1
  Mn  Mn102  1  0.64244037  0.25051312  0.49823622  1
  Mn  Mn103  1  0.14241926  0.25014097  0.49850572  1
  Mn  Mn104  1  0.10706432  0.08363529  0.62258299  1
  Mn  Mn105  1  0.10764717  0.08348680  0.87189980  1
  Mn  Mn106  1  0.39244588  0.25028037  0.12803269  1
  Mn  Mn107  1  0.60758756  0.74969451  0.37252002  1
  Mn  Mn108  1  0.10760007  0.08352361  0.37270931  1
  Mn  Mn109  1  0.89208198  0.91672505  0.87763768  1
  Mn  Mn110  1  0.14276498  0.58339007  0.99773315  1
  Mn  Mn111  1  0.35840230  0.74928042  0.75198371  1
  Mn  Mn112  1  0.10760817  0.74943006  0.37311480  1
  Mn  Mn113  1  0.85767779  0.08347666  0.75242419  1
  Mn  Mn114  1  0.89232477  0.58313892  0.87706066  1
  Mn  Mn115  1  0.60753640  0.08273683  0.87306838  1
  Mn  Mn116  1  0.35896841  0.08324233  0.75206017  1
  Mn  Mn117  1  0.14213007  0.91638029  0.74781197  1
  Mn  Mn118  1  0.64186192  0.91643355  0.74750187  1
  Mn  Mn119  1  0.10806529  0.41687622  0.37308758  1
  Mn  Mn120  1  0.89259050  0.91686012  0.12771610  1
  Mn  Mn121  1  0.39243161  0.24975819  0.37664664  1
  Mn  Mn122  1  0.60739688  0.41758429  0.12261522  1
  Mn  Mn123  1  0.39204623  0.91621740  0.12845132  1
  Mn  Mn124  1  0.89193858  0.58332495  0.12657981  1
  Mn  Mn125  1  0.60808555  0.08301235  0.12284774  1
  Mn  Mn126  1  0.14237085  0.91623590  0.99734434  1
  Mn  Mn127  1  0.64152672  0.58367046  0.24797326  1
  Mn  Mn128  1  0.39304521  0.91691351  0.62635684  1
  Mn  Mn129  1  0.85820481  0.08289530  0.00278468  1
  Mn  Mn130  1  0.85749615  0.41661400  0.25252271  1
  Mn  Mn131  1  0.35799164  0.41720460  0.00182895  1
  Mn  Mn132  1  0.64251361  0.25111182  0.74760277  1
  Mn  Mn133  1  0.35803747  0.08311832  0.00251339  1
  Mn  Mn134  1  0.89158376  0.91579087  0.37708621  1
  Mn  Mn135  1  0.35841276  0.08338606  0.50238865  1
  Mn  Mn136  1  0.10835836  0.41664354  0.12354011  1
  Mn  Mn137  1  0.89205989  0.58330104  0.62764331  1
  Mn  Mn138  1  0.14317809  0.58335490  0.24799994  1
  Mn  Mn139  1  0.60769398  0.41603978  0.62292328  1
  Mn  Mn140  1  0.14164766  0.25029159  0.99737585  1
  Mn  Mn141  1  0.35767226  0.74982998  0.50276940  1
  Mn  Mn142  1  0.10695449  0.75022853  0.62254545  1
  Mn  Mn143  1  0.14238328  0.25023006  0.74757802  1
  Fe  Fe144  1  0.64246999  0.58287089  0.74854732  1
  Fe  Fe145  1  0.14295559  0.58329666  0.74887266  1
  Fe  Fe146  1  0.64326026  0.58316440  0.49805135  1
  Fe  Fe147  1  0.10828247  0.75000999  0.12301986  1
  Fe  Fe148  1  0.39272241  0.58334748  0.12668208  1
  Fe  Fe149  1  0.39297136  0.24955751  0.87708181  1
  Fe  Fe150  1  0.35688116  0.41727535  0.75174214  1
  Fe  Fe151  1  0.39274950  0.58336982  0.37745788  1
  Fe  Fe152  1  0.39280286  0.91672918  0.37670984  1
  Fe  Fe153  1  0.85626899  0.74913593  0.75241287  1
  Fe  Fe154  1  0.64336230  0.25052002  0.99820640  1
  Fe  Fe155  1  0.10746872  0.41673296  0.87255747  1
  Fe  Fe156  1  0.60842233  0.75062041  0.62276320  1
  Fe  Fe157  1  0.85640401  0.08317677  0.50183135  1
  Fe  Fe158  1  0.60806442  0.08373195  0.37245846  1
  Fe  Fe159  1  0.60631486  0.74937099  0.12324828  1
  Fe  Fe160  1  0.39273254  0.91610448  0.87619493  1
  Fe  Fe161  1  0.64140039  0.58310846  0.99830924  1
  Fe  Fe162  1  0.10720048  0.41624182  0.62307138  1
  Fe  Fe163  1  0.60686083  0.74998332  0.87400811  1
  Fe  Fe164  1  0.85790379  0.41807092  0.75186519  1
  Fe  Fe165  1  0.35674133  0.08328366  0.25144807  1
  Fe  Fe166  1  0.39294645  0.58396203  0.87620620  1
  Fe  Fe167  1  0.39285502  0.24931380  0.62656326  1
  Fe  Fe168  1  0.14297069  0.58337976  0.49782713  1
  Fe  Fe169  1  0.14284242  0.24971666  0.24853143  1
  Fe  Fe170  1  0.89259949  0.24968384  0.12720609  1
  Fe  Fe171  1  0.10734925  0.74958908  0.87295753  1
  Fe  Fe172  1  0.85668545  0.74965908  0.00159796  1
  Fe  Fe173  1  0.35724416  0.75063114  0.25167917  1
  Fe  Fe174  1  0.60792728  0.08351940  0.62317655  1
  Fe  Fe175  1  0.10738540  0.08333234  0.12439241  1
  Fe  Fe176  1  0.14331062  0.91694341  0.24875328  1
  Fe  Fe177  1  0.35772996  0.41590668  0.25222067  1
  Fe  Fe178  1  0.14180719  0.91618149  0.49833669  1
  Fe  Fe179  1  0.64322623  0.91640536  0.49842540  1
  Fe  Fe180  1  0.89212353  0.58333906  0.37719854  1
  Fe  Fe181  1  0.35767364  0.41675014  0.50217549  1
  Fe  Fe182  1  0.89226488  0.25010467  0.62645411  1
  Fe  Fe183  1  0.64225703  0.91707586  0.24869959  1
  Fe  Fe184  1  0.60701213  0.41637013  0.37376537  1
  Fe  Fe185  1  0.35794744  0.75007377  0.00140135  1
  Fe  Fe186  1  0.85700418  0.41702376  0.50136302  1
  Fe  Fe187  1  0.85654341  0.75013672  0.50189302  1
  Fe  Fe188  1  0.85704795  0.08304189  0.25140578  1
  Fe  Fe189  1  0.64288516  0.24951082  0.24803966  1
  Fe  Fe190  1  0.89294584  0.25031510  0.87697419  1
  Fe  Fe191  1  0.89164650  0.91707734  0.62623997  1
  P  P192  1  0.05370801  0.24906440  0.11176421  1
  P  P193  1  0.05387772  0.25039777  0.35957839  1
  P  P194  1  0.05172375  0.25090942  0.60993607  1
  P  P195  1  0.05194013  0.25078611  0.85944801  1
  P  P196  1  0.05378020  0.58403274  0.11004167  1
  P  P197  1  0.05312017  0.58322044  0.36121308  1
  P  P198  1  0.05544508  0.58248037  0.61082519  1
  P  P199  1  0.05419004  0.58366336  0.85916309  1
  P  P200  1  0.05554416  0.91685254  0.11186691  1
  P  P201  1  0.05487085  0.91628261  0.36034279  1
  P  P202  1  0.05187552  0.91655057  0.60916059  1
  P  P203  1  0.05302331  0.91536875  0.85975159  1
  P  P204  1  0.55529936  0.25012022  0.11034882  1
  P  P205  1  0.55455758  0.25038047  0.35957445  1
  P  P206  1  0.55200923  0.24968854  0.60986830  1
  P  P207  1  0.55346233  0.25017389  0.86109824  1
  P  P208  1  0.55218673  0.58404435  0.10973615  1
  P  P209  1  0.55337661  0.58232659  0.36166834  1
  P  P210  1  0.55583254  0.58388956  0.61034923  1
  P  P211  1  0.55381229  0.58409474  0.86050701  1
  P  P212  1  0.55446175  0.91575817  0.11171667  1
  P  P213  1  0.55460239  0.91718115  0.36052779  1
  P  P214  1  0.55454544  0.91655665  0.60880973  1
  P  P215  1  0.55201162  0.91539378  0.86038234  1
  P  P216  1  0.44622159  0.08338988  0.14149550  1
  P  P217  1  0.44659976  0.08251102  0.38811460  1
  P  P218  1  0.44875505  0.08367264  0.63942935  1
  P  P219  1  0.44682897  0.08289315  0.89040481  1
  P  P220  1  0.44602918  0.41754649  0.14060383  1
  P  P221  1  0.44570215  0.41700059  0.38967464  1
  P  P222  1  0.44485205  0.41608220  0.63947982  1
  P  P223  1  0.44518318  0.41718118  0.88822055  1
  P  P224  1  0.44594270  0.74892018  0.13981116  1
  P  P225  1  0.44490116  0.75044983  0.38867561  1
  P  P226  1  0.44888144  0.75001765  0.63954197  1
  P  P227  1  0.44719262  0.74970760  0.89022406  1
  P  P228  1  0.94718589  0.08375358  0.14127235  1
  P  P229  1  0.94408491  0.08309229  0.38940666  1
  P  P230  1  0.94449100  0.08303983  0.63808412  1
  P  P231  1  0.94679022  0.08406185  0.89024599  1
  P  P232  1  0.94666664  0.41619140  0.14018738  1
  P  P233  1  0.94589799  0.41780335  0.39100520  1
  P  P234  1  0.94556641  0.41658791  0.63918565  1
  P  P235  1  0.94697756  0.41673128  0.88870413  1
  P  P236  1  0.94721818  0.74990405  0.13895251  1
  P  P237  1  0.94550849  0.74911423  0.39083628  1
  P  P238  1  0.94367672  0.75072032  0.63929990  1
  P  P239  1  0.94587349  0.74942115  0.88959993  1
  P  P240  1  0.19729963  0.08322342  0.23475580  1
  P  P241  1  0.19653705  0.08273103  0.48520259  1
  P  P242  1  0.19725384  0.08340409  0.73464381  1
  P  P243  1  0.19539520  0.08347529  0.98572870  1
  P  P244  1  0.19868672  0.41626165  0.23536406  1
  P  P245  1  0.19678903  0.41729259  0.48646531  1
  P  P246  1  0.19571514  0.41740399  0.73553194  1
  P  P247  1  0.19600694  0.41663150  0.98383475  1
  P  P248  1  0.19764959  0.75047555  0.23473371  1
  P  P249  1  0.19637102  0.74952626  0.48511133  1
  P  P250  1  0.19573385  0.74904703  0.73598589  1
  P  P251  1  0.19644862  0.74972393  0.98514001  1
  P  P252  1  0.69645104  0.08324992  0.23616855  1
  P  P253  1  0.69566337  0.08301277  0.48586529  1
  P  P254  1  0.69591190  0.08391896  0.73439943  1
  P  P255  1  0.69715141  0.08443940  0.98473641  1
  P  P256  1  0.69499136  0.41617035  0.23629540  1
  P  P257  1  0.69705441  0.41721309  0.48447284  1
  P  P258  1  0.69815115  0.41742055  0.73495398  1
  P  P259  1  0.69630757  0.41667966  0.98509571  1
  P  P260  1  0.69544288  0.75079334  0.23443234  1
  P  P261  1  0.69632926  0.74998337  0.48640116  1
  P  P262  1  0.69527922  0.74905096  0.73594775  1
  P  P263  1  0.69503487  0.74909198  0.98556749  1
  P  P264  1  0.30461621  0.25026554  0.01405704  1
  P  P265  1  0.30206760  0.24957382  0.26494407  1
  P  P266  1  0.30442489  0.25074144  0.51580297  1
  P  P267  1  0.30560088  0.25066784  0.76434253  1
  P  P268  1  0.30576912  0.58449535  0.01408929  1
  P  P269  1  0.30592683  0.58341204  0.26420312  1
  P  P270  1  0.30373476  0.58268624  0.51417558  1
  P  P271  1  0.30305969  0.58265110  0.76529300  1
  P  P272  1  0.30527894  0.91540049  0.01380336  1
  P  P273  1  0.30283729  0.91669915  0.26541498  1
  P  P274  1  0.30296795  0.91655984  0.51404650  1
  P  P275  1  0.30422992  0.91629503  0.76559148  1
  P  P276  1  0.80452044  0.25049553  0.01478246  1
  P  P277  1  0.80333221  0.24903355  0.26382747  1
  P  P278  1  0.80379740  0.25040010  0.51518650  1
  P  P279  1  0.80562932  0.25147888  0.76437188  1
  P  P280  1  0.80131301  0.58444894  0.01482238  1
  P  P281  1  0.80366119  0.58397209  0.26572350  1
  P  P282  1  0.80346271  0.58328999  0.51381936  1
  P  P283  1  0.80207377  0.58338619  0.76495350  1
  P  P284  1  0.80326498  0.91532233  0.01513090  1
  P  P285  1  0.80173029  0.91713969  0.26491534  1
  P  P286  1  0.80241364  0.91655784  0.51528784  1
  P  P287  1  0.80406399  0.91569684  0.76392502  1
  O  O288  1  0.05898927  0.24987696  0.18842833  1
  O  O289  1  0.05714473  0.25031088  0.43635101  1
  O  O290  1  0.05571767  0.25046355  0.68659190  1
  O  O291  1  0.05544408  0.25038050  0.93621951  1
  O  O292  1  0.05683504  0.58372804  0.18685980  1
  O  O293  1  0.05838631  0.58316956  0.43788153  1
  O  O294  1  0.05966614  0.58329014  0.68753572  1
  O  O295  1  0.05699809  0.58366420  0.93596361  1
  O  O296  1  0.05968590  0.91654245  0.18865889  1
  O  O297  1  0.05897946  0.91639507  0.43712627  1
  O  O298  1  0.05610491  0.91621434  0.68586879  1
  O  O299  1  0.05621742  0.91585700  0.93657662  1
  O  O300  1  0.55969792  0.24985840  0.18714723  1
  O  O301  1  0.55722619  0.25032084  0.43638872  1
  O  O302  1  0.55573992  0.25063889  0.68658566  1
  O  O303  1  0.55867314  0.25064303  0.93773561  1
  O  O304  1  0.55565654  0.58341898  0.18647882  1
  O  O305  1  0.55878128  0.58288815  0.43830666  1
  O  O306  1  0.55968364  0.58295139  0.68720097  1
  O  O307  1  0.55813664  0.58294473  0.93723709  1
  O  O308  1  0.55860458  0.91679359  0.18845578  1
  O  O309  1  0.55972622  0.91661596  0.43718656  1
  O  O310  1  0.55675442  0.91623966  0.68569204  1
  O  O311  1  0.55543804  0.91602422  0.93712128  1
  O  O312  1  0.44298162  0.08341919  0.06470478  1
  O  O313  1  0.44083947  0.08306099  0.31155123  1
  O  O314  1  0.44519698  0.08320804  0.56267175  1
  O  O315  1  0.44462749  0.08307327  0.81356502  1
  O  O316  1  0.44327978  0.41640899  0.06378005  1
  O  O317  1  0.44107496  0.41614957  0.31293270  1
  O  O318  1  0.44130117  0.41718901  0.56262483  1
  O  O319  1  0.44137448  0.41745179  0.81145182  1
  O  O320  1  0.44180119  0.74990763  0.06312341  1
  O  O321  1  0.44088773  0.75068050  0.31192482  1
  O  O322  1  0.44459424  0.74961426  0.56284479  1
  O  O323  1  0.44423778  0.74962680  0.81344617  1
  O  O324  1  0.94369180  0.08311798  0.06450340  1
  O  O325  1  0.93983132  0.08280646  0.31262692  1
  O  O326  1  0.94057836  0.08290660  0.56128214  1
  O  O327  1  0.94353864  0.08310331  0.81342089  1
  O  O328  1  0.94376516  0.41677547  0.06335431  1
  O  O329  1  0.94293929  0.41715753  0.31419531  1
  O  O330  1  0.94056189  0.41766329  0.56252932  1
  O  O331  1  0.94206655  0.41805394  0.81202766  1
  O  O332  1  0.94164320  0.74985480  0.06234623  1
  O  O333  1  0.94298488  0.75018765  0.31399745  1
  O  O334  1  0.93939537  0.74974258  0.56251192  1
  O  O335  1  0.94056306  0.74916609  0.81288746  1
  O  O336  1  0.19086149  0.08363996  0.06247291  1
  O  O337  1  0.19383643  0.08338259  0.31148012  1
  O  O338  1  0.19326167  0.08319008  0.56198730  1
  O  O339  1  0.19400288  0.08372581  0.81146553  1
  O  O340  1  0.19290187  0.41648693  0.06066312  1
  O  O341  1  0.19494863  0.41694396  0.31207807  1
  O  O342  1  0.19184358  0.41649666  0.56313765  1
  O  O343  1  0.19099164  0.41640037  0.81224943  1
  O  O344  1  0.19166021  0.74975483  0.06188160  1
  O  O345  1  0.19375200  0.74957076  0.31142513  1
  O  O346  1  0.19330109  0.74962061  0.56192746  1
  O  O347  1  0.19183265  0.74980292  0.81273005  1
  O  O348  1  0.69410874  0.08358007  0.06154381  1
  O  O349  1  0.69215992  0.08337360  0.31295574  1
  O  O350  1  0.69110785  0.08403288  0.56258376  1
  O  O351  1  0.69267924  0.08393612  0.81120455  1
  O  O352  1  0.69350220  0.41683700  0.06188820  1
  O  O353  1  0.69087313  0.41693269  0.31303974  1
  O  O354  1  0.69350931  0.41643306  0.56119733  1
  O  O355  1  0.69400342  0.41643966  0.81163076  1
  O  O356  1  0.69016577  0.74944759  0.06223422  1
  O  O357  1  0.69282990  0.74982376  0.31133274  1
  O  O358  1  0.69241284  0.74991861  0.56311957  1
  O  O359  1  0.69050845  0.75016926  0.81263904  1
  O  O360  1  0.30554308  0.24968183  0.18823340  1
  O  O361  1  0.30728253  0.24979666  0.43900443  1
  O  O362  1  0.30965471  0.24937618  0.68755537  1
  O  O363  1  0.30931642  0.25008017  0.93727664  1
  O  O364  1  0.30922190  0.58341073  0.18734664  1
  O  O365  1  0.30880732  0.58334218  0.43748899  1
  O  O366  1  0.30674479  0.58353579  0.68855551  1
  O  O367  1  0.30966678  0.58390772  0.93732606  1
  O  O368  1  0.30607712  0.91655348  0.18861618  1
  O  O369  1  0.30837533  0.91681157  0.43743678  1
  O  O370  1  0.30741240  0.91615380  0.68874479  1
  O  O371  1  0.30966463  0.91589111  0.93708333  1
  O  O372  1  0.80818420  0.24971864  0.18713369  1
  O  O373  1  0.80591838  0.25035542  0.43834563  1
  O  O374  1  0.80955449  0.25060563  0.68755565  1
  O  O375  1  0.80947711  0.25043373  0.93803092  1
  O  O376  1  0.80670039  0.58370250  0.18890306  1
  O  O377  1  0.80781774  0.58340350  0.43715231  1
  O  O378  1  0.80570855  0.58313453  0.68825873  1
  O  O379  1  0.80553225  0.58391008  0.93817130  1
  O  O380  1  0.80570615  0.91642049  0.18823063  1
  O  O381  1  0.80558678  0.91646305  0.43853390  1
  O  O382  1  0.80778264  0.91655369  0.68719731  1
  O  O383  1  0.80629113  0.91590108  0.93831929  1
  O  O384  1  0.23450138  0.25038096  0.03775736  1
  O  O385  1  0.23213799  0.24982585  0.29009896  1
  O  O386  1  0.23474494  0.25045796  0.54109439  1
  O  O387  1  0.23548933  0.25045101  0.78846339  1
  O  O388  1  0.23575401  0.58344217  0.03834407  1
  O  O389  1  0.23596853  0.58337916  0.28899533  1
  O  O390  1  0.23343826  0.58276884  0.53784980  1
  O  O391  1  0.23299084  0.58304106  0.78977329  1
  O  O392  1  0.23523302  0.91583744  0.03778825  1
  O  O393  1  0.23265068  0.91688043  0.28986009  1
  O  O394  1  0.23257351  0.91618227  0.53760401  1
  O  O395  1  0.23451361  0.91645768  0.79063122  1
  O  O396  1  0.73410887  0.25056364  0.03822002  1
  O  O397  1  0.73307783  0.24936927  0.28781708  1
  O  O398  1  0.73419897  0.25066935  0.54092300  1
  O  O399  1  0.73552367  0.25068709  0.78844854  1
  O  O400  1  0.73121042  0.58366917  0.03928542  1
  O  O401  1  0.73381418  0.58411094  0.29047594  1
  O  O402  1  0.73317219  0.58330222  0.53788922  1
  O  O403  1  0.73206034  0.58363051  0.78967411  1
  O  O404  1  0.73356390  0.91616402  0.04011124  1
  O  O405  1  0.73180471  0.91689274  0.28977363  1
  O  O406  1  0.73234009  0.91634271  0.54006751  1
  O  O407  1  0.73410137  0.91615102  0.78859664  1
  O  O408  1  0.26738318  0.08289051  0.20987831  1
  O  O409  1  0.26628478  0.08337615  0.46015735  1
  O  O410  1  0.26698355  0.08293759  0.70968480  1
  O  O411  1  0.26551118  0.08337290  0.96191587  1
  O  O412  1  0.26870494  0.41645553  0.21055903  1
  O  O413  1  0.26714846  0.41681781  0.46274119  1
  O  O414  1  0.26623634  0.41709728  0.71222399  1
  O  O415  1  0.26583429  0.41711988  0.95925814  1
  O  O416  1  0.26794300  0.75021265  0.21057023  1
  O  O417  1  0.26600420  0.74990384  0.45986339  1
  O  O418  1  0.26566106  0.74921511  0.71126275  1
  O  O419  1  0.26688025  0.74963517  0.96175412  1
  O  O420  1  0.76659761  0.08333254  0.21170767  1
  O  O421  1  0.76615917  0.08344503  0.46238854  1
  O  O422  1  0.76576479  0.08360599  0.70988265  1
  O  O423  1  0.76674883  0.08376009  0.95934382  1
  O  O424  1  0.76495844  0.41676314  0.21187266  1
  O  O425  1  0.76716737  0.41662399  0.46002438  1
  O  O426  1  0.76817261  0.41773490  0.71046764  1
  O  O427  1  0.76593890  0.41720882  0.95967053  1
  O  O428  1  0.76510537  0.74987243  0.20920929  1
  O  O429  1  0.76654426  0.75026062  0.46209786  1
  O  O430  1  0.76567950  0.74913782  0.71231618  1
  O  O431  1  0.76539638  0.74973164  0.96181948  1
  O  O432  1  0.01720332  0.08323351  0.16594335  1
  O  O433  1  0.01429138  0.08341664  0.41306029  1
  O  O434  1  0.01435716  0.08316269  0.66290897  1
  O  O435  1  0.01636057  0.08380305  0.91562536  1
  O  O436  1  0.01624541  0.41684820  0.16571620  1
  O  O437  1  0.01558116  0.41690897  0.41612988  1
  O  O438  1  0.01607787  0.41683599  0.66250386  1
  O  O439  1  0.01730728  0.41671005  0.91247997  1
  O  O440  1  0.01762709  0.75001309  0.16251041  1
  O  O441  1  0.01515188  0.74969163  0.41619080  1
  O  O442  1  0.01395263  0.74996833  0.66286515  1
  O  O443  1  0.01640652  0.74936694  0.91271308  1
  O  O444  1  0.51608140  0.08306231  0.16599645  1
  O  O445  1  0.51728933  0.08344362  0.41086800  1
  O  O446  1  0.51865621  0.08313748  0.66448301  1
  O  O447  1  0.51622524  0.08293896  0.91662241  1
  O  O448  1  0.51573162  0.41767193  0.16571081  1
  O  O449  1  0.51612818  0.41618556  0.41334770  1
  O  O450  1  0.51484966  0.41674854  0.66399203  1
  O  O451  1  0.51506006  0.41706271  0.91300396  1
  O  O452  1  0.51616212  0.74946526  0.16409565  1
  O  O453  1  0.51503010  0.75000727  0.41281367  1
  O  O454  1  0.51897297  0.75023644  0.66373513  1
  O  O455  1  0.51713068  0.74932749  0.91536909  1
  O  O456  1  0.48509488  0.25030009  0.08679754  1
  O  O457  1  0.48478965  0.25005152  0.33441095  1
  O  O458  1  0.48215174  0.24983875  0.58475568  1
  O  O459  1  0.48303430  0.24987037  0.83767671  1
  O  O460  1  0.48216933  0.58320562  0.08513411  1
  O  O461  1  0.48293538  0.58319648  0.33837497  1
  O  O462  1  0.48572165  0.58309602  0.58625998  1
  O  O463  1  0.48348497  0.58409286  0.83654196  1
  O  O464  1  0.48440067  0.91589137  0.08772494  1
  O  O465  1  0.48413992  0.91646257  0.33712310  1
  O  O466  1  0.48505428  0.91691521  0.58289512  1
  O  O467  1  0.48217833  0.91567062  0.83522117  1
  O  O468  1  0.98329821  0.24952144  0.08815574  1
  O  O469  1  0.98393620  0.25029661  0.33517407  1
  O  O470  1  0.98162869  0.25054284  0.58545177  1
  O  O471  1  0.98196062  0.25056222  0.83464994  1
  O  O472  1  0.98424189  0.58330310  0.08436155  1
  O  O473  1  0.98276012  0.58351557  0.33775981  1
  O  O474  1  0.98510562  0.58323951  0.58735202  1
  O  O475  1  0.98453834  0.58355193  0.83366910  1
  O  O476  1  0.98555526  0.91674563  0.08737579  1
  O  O477  1  0.98471604  0.91595148  0.33647053  1
  O  O478  1  0.98163650  0.91660411  0.58515752  1
  O  O479  1  0.98337923  0.91577040  0.83454751  1
  O  O480  1  0.08706185  0.31398284  0.07801698  1
  O  O481  1  0.08793370  0.31538515  0.32692637  1
  O  O482  1  0.08541150  0.31611656  0.57731969  1
  O  O483  1  0.08581062  0.31587435  0.82686004  1
  O  O484  1  0.08778478  0.64922348  0.07771813  1
  O  O485  1  0.08655303  0.64815085  0.32773606  1
  O  O486  1  0.08915655  0.64724063  0.57717537  1
  O  O487  1  0.08845365  0.64883911  0.82689170  1
  O  O488  1  0.08887249  0.98230344  0.07918580  1
  O  O489  1  0.08837629  0.98138292  0.32722293  1
  O  O490  1  0.08585237  0.98146033  0.57628381  1
  O  O491  1  0.08715489  0.98042316  0.82722661  1
  O  O492  1  0.58884474  0.31514527  0.07714008  1
  O  O493  1  0.58854453  0.31561691  0.32735421  1
  O  O494  1  0.58585529  0.31478837  0.57700022  1
  O  O495  1  0.58632826  0.31519452  0.82703234  1
  O  O496  1  0.58577072  0.64932239  0.07715834  1
  O  O497  1  0.58670077  0.64725678  0.32798197  1
  O  O498  1  0.58914318  0.64922441  0.57757748  1
  O  O499  1  0.58740524  0.64932007  0.82795235  1
  O  O500  1  0.58793490  0.98064094  0.07811804  1
  O  O501  1  0.58778075  0.98235489  0.32722213  1
  O  O502  1  0.58926048  0.98157913  0.57694145  1
  O  O503  1  0.58621559  0.98025869  0.82762554  1
  O  O504  1  0.41185276  0.01847770  0.17398257  1
  O  O505  1  0.41420334  0.01715300  0.42189055  1
  O  O506  1  0.41462152  0.01866538  0.67200107  1
  O  O507  1  0.41261199  0.01753890  0.92217583  1
  O  O508  1  0.41195750  0.35260399  0.17367090  1
  O  O509  1  0.41182208  0.35216587  0.42292432  1
  O  O510  1  0.41123626  0.35076575  0.67173370  1
  O  O511  1  0.41150881  0.35209784  0.92115681  1
  O  O512  1  0.41262134  0.68358535  0.17245542  1
  O  O513  1  0.41137270  0.68533579  0.42173192  1
  O  O514  1  0.41535026  0.68497523  0.67273000  1
  O  O515  1  0.41284649  0.68471296  0.92264082  1
  O  O516  1  0.91284108  0.01886695  0.17406593  1
  O  O517  1  0.91060085  0.01801714  0.42261434  1
  O  O518  1  0.91092223  0.01788622  0.67110077  1
  O  O519  1  0.91265907  0.01904659  0.92298824  1
  O  O520  1  0.91275334  0.35090048  0.17242333  1
  O  O521  1  0.91108264  0.35296641  0.42331144  1
  O  O522  1  0.91222740  0.35149302  0.67215809  1
  O  O523  1  0.91352321  0.35157655  0.92153247  1
  O  O524  1  0.91391963  0.68488696  0.17232946  1
  O  O525  1  0.91137503  0.68394543  0.42297323  1
  O  O526  1  0.91003328  0.68583004  0.67295978  1
  O  O527  1  0.91252317  0.68442718  0.92320869  1
  O  O528  1  0.16321828  0.01816855  0.20220242  1
  O  O529  1  0.16262371  0.01758493  0.45282153  1
  O  O530  1  0.16278932  0.01842265  0.70251591  1
  O  O531  1  0.16206867  0.01829106  0.95266234  1
  O  O532  1  0.16473721  0.35115857  0.20289429  1
  O  O533  1  0.16335814  0.35233030  0.45300090  1
  O  O534  1  0.16231057  0.35256498  0.70159997  1
  O  O535  1  0.16207104  0.35164868  0.95100139  1
  O  O536  1  0.16387364  0.68553516  0.20146077  1
  O  O537  1  0.16270915  0.68411318  0.45261934  1
  O  O538  1  0.16205004  0.68380371  0.70345959  1
  O  O539  1  0.16295734  0.68477104  0.95181423  1
  O  O540  1  0.66306094  0.01804435  0.20318980  1
  O  O541  1  0.66258943  0.01770863  0.45280833  1
  O  O542  1  0.66167812  0.01886647  0.70201857  1
  O  O543  1  0.66272702  0.01938489  0.95235671  1
  O  O544  1  0.66177875  0.35086559  0.20351002  1
  O  O545  1  0.66269581  0.35242628  0.45163703  1
  O  O546  1  0.66464521  0.35234034  0.70162959  1
  O  O547  1  0.66261244  0.35131122  0.95261476  1
  O  O548  1  0.66050042  0.68609601  0.20195998  1
  O  O549  1  0.66295796  0.68491137  0.45307168  1
  O  O550  1  0.66198225  0.68390090  0.70294970  1
  O  O551  1  0.66171096  0.68397327  0.95228403  1
  O  O552  1  0.33803015  0.31543065  0.04709869  1
  O  O553  1  0.33630806  0.31451065  0.29756616  1
  O  O554  1  0.33861592  0.31592300  0.54776320  1
  O  O555  1  0.33906626  0.31614103  0.79672967  1
  O  O556  1  0.33897001  0.64982503  0.04704081  1
  O  O557  1  0.33966299  0.64862863  0.29696529  1
  O  O558  1  0.33693496  0.64772449  0.54789618  1
  O  O559  1  0.33731480  0.64743432  0.79830869  1
  O  O560  1  0.33891153  0.98020900  0.04730852  1
  O  O561  1  0.33690098  0.98167768  0.29811643  1
  O  O562  1  0.33613841  0.98167826  0.54751294  1
  O  O563  1  0.33869207  0.98122820  0.79794401  1
  O  O564  1  0.83797104  0.31551553  0.04809432  1
  O  O565  1  0.83666881  0.31409659  0.29730627  1
  O  O566  1  0.83834878  0.31545220  0.54719221  1
  O  O567  1  0.83885259  0.31693538  0.79705789  1
  O  O568  1  0.83483546  0.64970157  0.04756934  1
  O  O569  1  0.83792870  0.64897444  0.29802787  1
  O  O570  1  0.83676632  0.64824593  0.54730755  1
  O  O571  1  0.83596742  0.64846325  0.79758639  1
  O  O572  1  0.83775532  0.98019776  0.04765011  1
  O  O573  1  0.83565986  0.98213459  0.29747023  1
  O  O574  1  0.83617134  0.98177020  0.54788066  1
  O  O575  1  0.83786723  0.98063334  0.79707367  1
  O  O576  1  0.41223586  0.14846409  0.17409643  1
  O  O577  1  0.41335187  0.14742748  0.42183637  1
  O  O578  1  0.41492627  0.14876434  0.67199649  1
  O  O579  1  0.41243705  0.14803513  0.92249091  1
  O  O580  1  0.41176672  0.48270169  0.17244136  1
  O  O581  1  0.41262848  0.48224323  0.42296487  1
  O  O582  1  0.41072164  0.48085391  0.67274223  1
  O  O583  1  0.41177805  0.48252147  0.92104543  1
  O  O584  1  0.41205280  0.81359151  0.17358495  1
  O  O585  1  0.41189048  0.81585854  0.42173925  1
  O  O586  1  0.41491804  0.81501480  0.67204776  1
  O  O587  1  0.41326678  0.81472075  0.92300199  1
  O  O588  1  0.91311422  0.14886376  0.17364743  1
  O  O589  1  0.91029036  0.14803311  0.42240579  1
  O  O590  1  0.91089337  0.14828950  0.67082755  1
  O  O591  1  0.91281519  0.14943943  0.92214579  1
  O  O592  1  0.91207457  0.48113312  0.17235954  1
  O  O593  1  0.91192998  0.48295958  0.42344207  1
  O  O594  1  0.91236033  0.48155702  0.67327786  1
  O  O595  1  0.91382493  0.48174217  0.92255901  1
  O  O596  1  0.91405811  0.81495590  0.17269948  1
  O  O597  1  0.91075491  0.81395901  0.42329515  1
  O  O598  1  0.91051177  0.81601796  0.67205778  1
  O  O599  1  0.91252799  0.81434046  0.92323012  1
  O  O600  1  0.08660746  0.18366920  0.07862234  1
  O  O601  1  0.08797558  0.18541291  0.32690247  1
  O  O602  1  0.08549428  0.18589728  0.57700922  1
  O  O603  1  0.08586138  0.18577884  0.82661751  1
  O  O604  1  0.08836851  0.51901838  0.07792115  1
  O  O605  1  0.08633881  0.51817981  0.32768243  1
  O  O606  1  0.08851877  0.51711789  0.57777135  1
  O  O607  1  0.08860984  0.51863392  0.82683601  1
  O  O608  1  0.08921318  0.85182538  0.07866418  1
  O  O609  1  0.08879033  0.85144011  0.32729037  1
  O  O610  1  0.08565511  0.85148580  0.57615429  1
  O  O611  1  0.08688042  0.85002762  0.82754321  1
  O  O612  1  0.58887347  0.18513663  0.07710137  1
  O  O613  1  0.58904933  0.18542896  0.32717433  1
  O  O614  1  0.58605458  0.18465012  0.57748293  1
  O  O615  1  0.58685144  0.18516756  0.82789831  1
  O  O616  1  0.58656691  0.51942885  0.07657495  1
  O  O617  1  0.58599375  0.51706033  0.32821479  1
  O  O618  1  0.58987711  0.51907070  0.57714150  1
  O  O619  1  0.58736343  0.51935265  0.82656969  1
  O  O620  1  0.58774974  0.85040936  0.07902172  1
  O  O621  1  0.58821107  0.85229533  0.32702317  1
  O  O622  1  0.58884067  0.85135550  0.57659996  1
  O  O623  1  0.58593457  0.85019917  0.82805628  1
  O  O624  1  0.33806759  0.18537986  0.04749891  1
  O  O625  1  0.33582728  0.18435026  0.29757010  1
  O  O626  1  0.33893336  0.18580302  0.54839100  1
  O  O627  1  0.33952192  0.18592293  0.79786995  1
  O  O628  1  0.33996775  0.51982614  0.04736756  1
  O  O629  1  0.33981081  0.51839741  0.29718395  1
  O  O630  1  0.33713358  0.51764639  0.54728867  1
  O  O631  1  0.33690115  0.51751130  0.79775700  1
  O  O632  1  0.33845706  0.85003909  0.04682081  1
  O  O633  1  0.33669902  0.85159753  0.29809022  1
  O  O634  1  0.33638655  0.85162481  0.54756666  1
  O  O635  1  0.33842326  0.85118248  0.79801794  1
  O  O636  1  0.83787571  0.18545034  0.04830672  1
  O  O637  1  0.83657396  0.18397926  0.29696747  1
  O  O638  1  0.83797915  0.18521720  0.54734700  1
  O  O639  1  0.83966725  0.18671346  0.79773256  1
  O  O640  1  0.83540550  0.51952985  0.04770394  1
  O  O641  1  0.83785533  0.51901225  0.29839024  1
  O  O642  1  0.83668812  0.51806922  0.54704293  1
  O  O643  1  0.83589718  0.51835831  0.79785226  1
  O  O644  1  0.83696531  0.84994443  0.04739648  1
  O  O645  1  0.83556114  0.85200826  0.29775467  1
  O  O646  1  0.83659307  0.85168001  0.54793863  1
  O  O647  1  0.83733842  0.85024904  0.79653704  1
  O  O648  1  0.16337428  0.14832618  0.20201219  1
  O  O649  1  0.16227667  0.14783310  0.45283640  1
  O  O650  1  0.16333933  0.14859608  0.70214325  1
  O  O651  1  0.16208836  0.14853697  0.95237952  1
  O  O652  1  0.16494869  0.48137597  0.20245962  1
  O  O653  1  0.16375342  0.48249843  0.45300563  1
  O  O654  1  0.16255457  0.48263943  0.70254126  1
  O  O655  1  0.16165741  0.48159145  0.95148852  1
  O  O656  1  0.16400657  0.81568700  0.20218271  1
  O  O657  1  0.16199539  0.81452860  0.45290659  1
  O  O658  1  0.16190644  0.81395431  0.70268080  1
  O  O659  1  0.16290701  0.81454866  0.95161992  1
  O  O660  1  0.66286434  0.14824204  0.20304877  1
  O  O661  1  0.66215472  0.14781608  0.45210431  1
  O  O662  1  0.66202803  0.14895809  0.70162557  1
  O  O663  1  0.66337916  0.14987484  0.95277692  1
  O  O664  1  0.66127939  0.48121204  0.20313359  1
  O  O665  1  0.66319093  0.48236235  0.45188037  1
  O  O666  1  0.66394257  0.48239884  0.70269687  1
  O  O667  1  0.66170328  0.48166756  0.95295958  1
  O  O668  1  0.66159762  0.81617023  0.20257749  1
  O  O669  1  0.66270866  0.81500374  0.45339628  1
  O  O670  1  0.66198372  0.81398939  0.70206706  1
  O  O671  1  0.66134883  0.81397924  0.95193724  1
