# generated using pymatgen
data_Na2MnFe(PO4)2
_symmetry_space_group_name_H-M   'P 1'
_cell_length_a   21.08799015
_cell_length_b   18.94097980
_cell_length_c   20.04665994
_cell_angle_alpha   89.99968804
_cell_angle_beta   90.00147894
_cell_angle_gamma   89.99875994
_symmetry_Int_Tables_number   1
_chemical_formula_structural   Na2MnFe(PO4)2
_chemical_formula_sum   'Na96 Mn48 Fe48 P96 O384'
_cell_volume   8007.18115278
_cell_formula_units_Z   48
loop_
 _symmetry_equiv_pos_site_id
 _symmetry_equiv_pos_as_xyz
  1  'x, y, z'
loop_
 _atom_site_type_symbol
 _atom_site_label
 _atom_site_symmetry_multiplicity
 _atom_site_fract_x
 _atom_site_fract_y
 _atom_site_fract_z
 _atom_site_occupancy
  Na  Na0  1  0.00108156  0.00079376  -0.00063986  1
  Na  Na1  1  -0.00139287  -0.00085851  0.24998421  1
  Na  Na2  1  0.00047069  0.00000878  0.49983870  1
  Na  Na3  1  -0.00059556  -0.00019921  0.75058206  1
  Na  Na4  1  -0.00035394  0.33290485  -0.00103505  1
  Na  Na5  1  0.00101955  0.33399729  0.25032910  1
  Na  Na6  1  -0.00010483  0.33320338  0.50124306  1
  Na  Na7  1  0.00003256  0.33389820  0.74921703  1
  Na  Na8  1  -0.00205893  0.66569122  -0.00109568  1
  Na  Na9  1  0.00064195  0.66700806  0.25135916  1
  Na  Na10  1  -0.00125670  0.66644596  0.50011722  1
  Na  Na11  1  -0.00166147  0.66685177  0.74959715  1
  Na  Na12  1  0.49964595  -0.00010994  -0.00093443  1
  Na  Na13  1  0.49870632  -0.00070295  0.24992131  1
  Na  Na14  1  0.50155864  0.00037296  0.50039147  1
  Na  Na15  1  0.50035961  -0.00049083  0.75110367  1
  Na  Na16  1  0.49953552  0.33380287  0.00028285  1
  Na  Na17  1  0.49692050  0.33258532  0.25133774  1
  Na  Na18  1  0.49856175  0.33269975  0.49974237  1
  Na  Na19  1  0.50127385  0.33413933  0.74877932  1
  Na  Na20  1  0.49903631  0.66650037  0.00014223  1
  Na  Na21  1  0.49928674  0.66710303  0.25095163  1
  Na  Na22  1  0.50045462  0.66669370  0.50012565  1
  Na  Na23  1  0.50053918  0.66669177  0.74849509  1
  Na  Na24  1  0.24971708  -0.00007055  0.12488320  1
  Na  Na25  1  0.24911844  -0.00090821  0.37428936  1
  Na  Na26  1  0.25082447  0.00051524  0.62604977  1
  Na  Na27  1  0.25031911  0.00028524  0.87488444  1
  Na  Na28  1  0.25100780  0.33410623  0.12524424  1
  Na  Na29  1  0.25021744  0.33376564  0.37421108  1
  Na  Na30  1  0.24855504  0.33327946  0.62524369  1
  Na  Na31  1  0.24724972  0.33273669  0.87559346  1
  Na  Na32  1  0.25056035  0.66702236  0.12367065  1
  Na  Na33  1  0.25001219  0.66748895  0.37567713  1
  Na  Na34  1  0.24890170  0.66620517  0.62534523  1
  Na  Na35  1  0.25223285  0.66789231  0.87587062  1
  Na  Na36  1  0.75272379  0.00071456  0.12566844  1
  Na  Na37  1  0.75036140  -0.00018407  0.37526001  1
  Na  Na38  1  0.74865423  -0.00056761  0.62387734  1
  Na  Na39  1  0.74949866  -0.00051995  0.87527172  1
  Na  Na40  1  0.75206726  0.33384848  0.12494023  1
  Na  Na41  1  0.75071613  0.33302927  0.37403344  1
  Na  Na42  1  0.75218539  0.33460132  0.62618782  1
  Na  Na43  1  0.75064271  0.33289898  0.87437715  1
  Na  Na44  1  0.75018770  0.66632537  0.12407208  1
  Na  Na45  1  0.75038397  0.66628553  0.37370453  1
  Na  Na46  1  0.75119396  0.66686408  0.62527866  1
  Na  Na47  1  0.75128931  0.66673748  0.87629811  1
  Na  Na48  1  -0.00021529  0.16591773  -0.00045395  1
  Na  Na49  1  -0.00022508  0.16654442  0.25051406  1
  Na  Na50  1  -0.00062585  0.16704871  0.50001939  1
  Na  Na51  1  -0.00086519  0.16666929  0.75016155  1
  Na  Na52  1  0.00028575  0.49883314  -0.00020819  1
  Na  Na53  1  0.00030039  0.50018237  0.25010853  1
  Na  Na54  1  -0.00003402  0.49991961  0.50079812  1
  Na  Na55  1  -0.00322815  0.50081703  0.74873573  1
  Na  Na56  1  0.00118047  0.83290945  -0.00139022  1
  Na  Na57  1  -0.00101626  0.83416620  0.25072550  1
  Na  Na58  1  0.00017643  0.83298696  0.50048775  1
  Na  Na59  1  0.00048440  0.83309349  0.75004913  1
  Na  Na60  1  0.49737152  0.16727887  -0.00046334  1
  Na  Na61  1  0.49730345  0.16748360  0.25004917  1
  Na  Na62  1  0.50189191  0.16618352  0.50001291  1
  Na  Na63  1  0.50063282  0.16632909  0.75051523  1
  Na  Na64  1  0.50036296  0.50032932  0.00036464  1
  Na  Na65  1  0.49865559  0.50027234  0.25159017  1
  Na  Na66  1  0.49987648  0.49988830  0.50022794  1
  Na  Na67  1  0.50168903  0.49967032  0.74808023  1
  Na  Na68  1  0.50036665  0.83311325  -0.00047625  1
  Na  Na69  1  0.49912372  0.83334574  0.25072230  1
  Na  Na70  1  0.49884522  0.83419291  0.50018740  1
  Na  Na71  1  0.50048826  0.83358524  0.74993546  1
  Na  Na72  1  0.25034539  0.16612756  0.12489233  1
  Na  Na73  1  0.24953018  0.16710770  0.37435891  1
  Na  Na74  1  0.24884773  0.16750525  0.62478327  1
  Na  Na75  1  0.25018241  0.16583343  0.87624415  1
  Na  Na76  1  0.24972093  0.49990248  0.12395507  1
  Na  Na77  1  0.24874921  0.49991925  0.37461100  1
  Na  Na78  1  0.24905588  0.49949824  0.62620536  1
  Na  Na79  1  0.24970200  0.49953223  0.87575866  1
  Na  Na80  1  0.25094475  0.83296042  0.12477953  1
  Na  Na81  1  0.25098049  0.83259024  0.37529470  1
  Na  Na82  1  0.24988182  0.83336184  0.62560194  1
  Na  Na83  1  0.24999843  0.83373062  0.87444057  1
  Na  Na84  1  0.75326029  0.16599989  0.12514696  1
  Na  Na85  1  0.75086563  0.16644528  0.37531516  1
  Na  Na86  1  0.74935633  0.16692607  0.62488966  1
  Na  Na87  1  0.75223508  0.16576198  0.87452793  1
  Na  Na88  1  0.75154486  0.49982221  0.12460632  1
  Na  Na89  1  0.75039357  0.50030439  0.37374406  1
  Na  Na90  1  0.75167518  0.49994806  0.62603127  1
  Na  Na91  1  0.75174339  0.49957352  0.87478014  1
  Na  Na92  1  0.74916549  0.83446474  0.12547047  1
  Na  Na93  1  0.75155535  0.83278322  0.37347964  1
  Na  Na94  1  0.74968286  0.83376827  0.62468683  1
  Na  Na95  1  0.74943398  0.83332859  0.87613072  1
  Mn  Mn96  1  0.35755684  0.41616028  0.75253965  1
  Mn  Mn97  1  0.39184231  0.25135690  0.87682074  1
  Mn  Mn98  1  0.14221691  0.58375550  0.24734777  1
  Mn  Mn99  1  0.60739752  0.41660958  0.12287044  1
  Mn  Mn100  1  0.85797537  0.75047055  0.00352422  1
  Mn  Mn101  1  0.39213252  0.58355792  0.62704825  1
  Mn  Mn102  1  0.39169974  0.91729452  0.37798184  1
  Mn  Mn103  1  0.39136152  0.58293455  0.37826800  1
  Mn  Mn104  1  0.85841043  0.75059310  0.25116882  1
  Mn  Mn105  1  0.35780686  0.41655711  0.00196267  1
  Mn  Mn106  1  0.35734478  0.08326481  0.25208419  1
  Mn  Mn107  1  0.64281433  0.91696546  0.24728517  1
  Mn  Mn108  1  0.89245957  0.58354447  0.37783039  1
  Mn  Mn109  1  0.10773066  0.08274519  0.62294185  1
  Mn  Mn110  1  0.60865847  0.75053549  0.62213804  1
  Mn  Mn111  1  0.10787745  0.74992522  0.37330375  1
  Mn  Mn112  1  0.10656143  0.41730241  0.62270079  1
  Mn  Mn113  1  0.14146032  0.58303092  0.74832519  1
  Mn  Mn114  1  0.60776861  0.74999416  0.37330536  1
  Mn  Mn115  1  0.60811126  0.08428179  0.87330461  1
  Mn  Mn116  1  0.35753003  0.08333856  0.50316223  1
  Mn  Mn117  1  0.39255737  0.91587965  0.87763595  1
  Mn  Mn118  1  0.89177494  0.91682446  0.62732256  1
  Mn  Mn119  1  0.14247053  0.25004139  0.24720734  1
  Mn  Mn120  1  0.14177978  0.58424015  0.99727646  1
  Mn  Mn121  1  0.64226630  0.58306682  0.24743116  1
  Mn  Mn122  1  0.39187897  0.24899584  0.62721763  1
  Mn  Mn123  1  0.60748213  0.41637670  0.37349784  1
  Mn  Mn124  1  0.10759285  0.74915705  0.87261751  1
  Mn  Mn125  1  0.89250930  0.25031135  0.37789118  1
  Mn  Mn126  1  0.39193812  0.58340513  0.12766701  1
  Mn  Mn127  1  0.14181042  0.24920369  0.99829100  1
  Mn  Mn128  1  0.14173486  0.91601745  0.24731185  1
  Mn  Mn129  1  0.85918917  0.41622541  0.25212247  1
  Mn  Mn130  1  0.14254162  0.91712000  0.74760019  1
  Mn  Mn131  1  0.64215447  0.24973179  0.24734752  1
  Mn  Mn132  1  0.64269861  0.24965609  0.99861251  1
  Mn  Mn133  1  0.64267332  0.58296933  0.99760518  1
  Mn  Mn134  1  0.60790504  0.08382386  0.37226727  1
  Mn  Mn135  1  0.85700249  0.08352678  0.50282123  1
  Mn  Mn136  1  0.10746972  0.08339590  0.37314462  1
  Mn  Mn137  1  0.35781690  0.74975638  0.75190388  1
  Mn  Mn138  1  0.60882666  0.41593518  0.62166110  1
  Mn  Mn139  1  0.89265044  0.25011319  0.87704397  1
  Mn  Mn140  1  0.60799988  0.74889151  0.87283577  1
  Mn  Mn141  1  0.89196107  0.91668095  0.87730214  1
  Mn  Mn142  1  0.60771711  0.08305265  0.12257051  1
  Mn  Mn143  1  0.64284046  0.24980316  0.74766560  1
  Fe  Fe144  1  0.85812741  0.41589454  0.00191634  1
  Fe  Fe145  1  0.60653332  0.75029409  0.12368919  1
  Fe  Fe146  1  0.89217809  0.58324871  0.87654736  1
  Fe  Fe147  1  0.39322298  0.91725940  0.62637936  1
  Fe  Fe148  1  0.64332621  0.25084596  0.49830986  1
  Fe  Fe149  1  0.35666786  0.41743139  0.25192254  1
  Fe  Fe150  1  0.14214018  0.24955653  0.74851145  1
  Fe  Fe151  1  0.85685245  0.08263870  0.75131027  1
  Fe  Fe152  1  0.10784776  0.75026336  0.12328515  1
  Fe  Fe153  1  0.14196093  0.58342571  0.49909475  1
  Fe  Fe154  1  0.89376471  0.58345186  0.12627583  1
  Fe  Fe155  1  0.85777841  0.41709619  0.50111093  1
  Fe  Fe156  1  0.64381936  0.58383282  0.74860220  1
  Fe  Fe157  1  0.10631494  0.41634471  0.87316718  1
  Fe  Fe158  1  0.89268063  0.91656793  0.37733192  1
  Fe  Fe159  1  0.89193951  0.58350437  0.62650736  1
  Fe  Fe160  1  0.35665712  0.08266473  0.00191800  1
  Fe  Fe161  1  0.35756353  0.75091973  0.00228266  1
  Fe  Fe162  1  0.35759578  0.08393100  0.75157799  1
  Fe  Fe163  1  0.35733344  0.74961158  0.25156769  1
  Fe  Fe164  1  0.85712965  0.75061679  0.75128736  1
  Fe  Fe165  1  0.89342617  0.24990178  0.12651919  1
  Fe  Fe166  1  0.85719861  0.74974648  0.50173377  1
  Fe  Fe167  1  0.64285858  0.91733703  0.99950802  1
  Fe  Fe168  1  0.89232357  0.24985615  0.62658633  1
  Fe  Fe169  1  0.39198286  0.24973303  0.12678161  1
  Fe  Fe170  1  0.35578426  0.41704960  0.50154263  1
  Fe  Fe171  1  0.89337213  0.91638391  0.12586825  1
  Fe  Fe172  1  0.10656217  0.74986873  0.62334316  1
  Fe  Fe173  1  0.14300852  0.91658409  0.49897721  1
  Fe  Fe174  1  0.35652755  0.74961158  0.50224418  1
  Fe  Fe175  1  0.85706761  0.41678245  0.75259017  1
  Fe  Fe176  1  0.85841831  0.08331078  0.00186943  1
  Fe  Fe177  1  0.85849293  0.08346251  0.25157433  1
  Fe  Fe178  1  0.64385430  0.58312535  0.49870901  1
  Fe  Fe179  1  0.10771788  0.41663331  0.37390638  1
  Fe  Fe180  1  0.64285336  0.91628997  0.74836693  1
  Fe  Fe181  1  0.60769647  0.08328564  0.62412496  1
  Fe  Fe182  1  0.39253192  0.91677440  0.12600259  1
  Fe  Fe183  1  0.14275825  0.91667874  0.99916524  1
  Fe  Fe184  1  0.64279638  0.91613947  0.49789094  1
  Fe  Fe185  1  0.10722535  0.41669396  0.12327016  1
  Fe  Fe186  1  0.39338258  0.58286177  0.87572490  1
  Fe  Fe187  1  0.60835762  0.41714990  0.87389993  1
  Fe  Fe188  1  0.14209044  0.25018148  0.49835988  1
  Fe  Fe189  1  0.10754500  0.08370167  0.87295181  1
  Fe  Fe190  1  0.10654741  0.08293504  0.12312777  1
  Fe  Fe191  1  0.39208269  0.24977141  0.37782373  1
  P  P192  1  0.05218463  0.24971841  0.11017772  1
  P  P193  1  0.05487159  0.25100765  0.36130124  1
  P  P194  1  0.05343128  0.24977672  0.61087587  1
  P  P195  1  0.05410006  0.24963200  0.85949637  1
  P  P196  1  0.05264735  0.58376641  0.10994858  1
  P  P197  1  0.05494946  0.58246545  0.36160135  1
  P  P198  1  0.05204248  0.58429572  0.60993858  1
  P  P199  1  0.05128091  0.58239614  0.85965301  1
  P  P200  1  0.05268239  0.91654565  0.10937270  1
  P  P201  1  0.05346483  0.91654018  0.36131343  1
  P  P202  1  0.05366716  0.91591088  0.60965725  1
  P  P203  1  0.05483798  0.91744936  0.86119632  1
  P  P204  1  0.55138304  0.24971042  0.11009010  1
  P  P205  1  0.55319139  0.25040830  0.36100674  1
  P  P206  1  0.55419625  0.24900828  0.60932182  1
  P  P207  1  0.55365132  0.25120222  0.86008409  1
  P  P208  1  0.55311940  0.58425283  0.11025941  1
  P  P209  1  0.55457798  0.58318537  0.36158764  1
  P  P210  1  0.55583691  0.58344659  0.61007529  1
  P  P211  1  0.55334808  0.58256168  0.85894797  1
  P  P212  1  0.55248360  0.91606650  0.10957492  1
  P  P213  1  0.55454604  0.91652213  0.36083993  1
  P  P214  1  0.55464626  0.91748460  0.61076683  1
  P  P215  1  0.55573877  0.91664162  0.86078700  1
  P  P216  1  0.44506799  0.08267979  0.13850956  1
  P  P217  1  0.44626023  0.08401033  0.39047990  1
  P  P218  1  0.44763712  0.08246836  0.64075321  1
  P  P219  1  0.44462420  0.08361551  0.88952056  1
  P  P220  1  0.44564895  0.41614170  0.14111259  1
  P  P221  1  0.44406057  0.41605783  0.39021736  1
  P  P222  1  0.44537352  0.41644897  0.63844774  1
  P  P223  1  0.44836215  0.41790461  0.88956544  1
  P  P224  1  0.44579773  0.75122710  0.13955394  1
  P  P225  1  0.44445834  0.74990215  0.39038032  1
  P  P226  1  0.44563142  0.75099050  0.63853005  1
  P  P227  1  0.44609712  0.74873363  0.89022070  1
  P  P228  1  0.94628064  0.08305299  0.13899912  1
  P  P229  1  0.94530833  0.08261977  0.38933310  1
  P  P230  1  0.94582510  0.08389803  0.64059417  1
  P  P231  1  0.94607679  0.08314008  0.88917515  1
  P  P232  1  0.94722745  0.41651159  0.13854389  1
  P  P233  1  0.94790390  0.41673905  0.39115028  1
  P  P234  1  0.94356905  0.41667205  0.63898652  1
  P  P235  1  0.94561608  0.41718855  0.88894789  1
  P  P236  1  0.94874919  0.75018853  0.13963675  1
  P  P237  1  0.94589203  0.75083137  0.39087248  1
  P  P238  1  0.94542502  0.74952081  0.63923857  1
  P  P239  1  0.94473174  0.74964150  0.88853733  1
  P  P240  1  0.19544545  0.08310154  0.23402532  1
  P  P241  1  0.19650204  0.08293401  0.48519545  1
  P  P242  1  0.19674003  0.08439905  0.73628743  1
  P  P243  1  0.19533819  0.08211406  0.98601289  1
  P  P244  1  0.19606026  0.41687908  0.23519288  1
  P  P245  1  0.19618871  0.41678695  0.48489696  1
  P  P246  1  0.19446066  0.41579433  0.73646446  1
  P  P247  1  0.19416019  0.41659850  0.98554722  1
  P  P248  1  0.19737782  0.74986997  0.23411311  1
  P  P249  1  0.19601924  0.75022663  0.48700155  1
  P  P250  1  0.19561968  0.74971595  0.73433472  1
  P  P251  1  0.19651554  0.75132478  0.98604261  1
  P  P252  1  0.69850453  0.08347479  0.23474484  1
  P  P253  1  0.69493972  0.08370656  0.48634033  1
  P  P254  1  0.69724391  0.08240391  0.73469757  1
  P  P255  1  0.69853845  0.08303255  0.98555096  1
  P  P256  1  0.69717975  0.41640711  0.23461940  1
  P  P257  1  0.69870928  0.41682213  0.48504567  1
  P  P258  1  0.69672002  0.41770343  0.73651858  1
  P  P259  1  0.69808838  0.41623853  0.98456717  1
  P  P260  1  0.69614701  0.74997320  0.23389570  1
  P  P261  1  0.69825347  0.74960840  0.48476217  1
  P  P262  1  0.69784829  0.74974148  0.73548228  1
  P  P263  1  0.69535677  0.75086142  0.98687529  1
  P  P264  1  0.30362489  0.24936932  0.01547844  1
  P  P265  1  0.30519321  0.25081909  0.26437050  1
  P  P266  1  0.30250804  0.25096505  0.51394073  1
  P  P267  1  0.30171323  0.24945403  0.76525323  1
  P  P268  1  0.30471962  0.58392196  0.01336835  1
  P  P269  1  0.30326688  0.58366076  0.26487302  1
  P  P270  1  0.30138227  0.58288492  0.51526721  1
  P  P271  1  0.30350163  0.58297079  0.76605742  1
  P  P272  1  0.30292395  0.91681723  0.01517248  1
  P  P273  1  0.30436116  0.91566041  0.26366559  1
  P  P274  1  0.30268773  0.91607357  0.51597892  1
  P  P275  1  0.30512212  0.91756747  0.76383874  1
  P  P276  1  0.80484477  0.24995890  0.01531731  1
  P  P277  1  0.80545026  0.24916114  0.26388567  1
  P  P278  1  0.80289322  0.25101913  0.51563799  1
  P  P279  1  0.80509007  0.24946662  0.76345611  1
  P  P280  1  0.80581417  0.58208948  0.01435767  1
  P  P281  1  0.80552312  0.58355999  0.26337012  1
  P  P282  1  0.80317038  0.58336170  0.51519788  1
  P  P283  1  0.80451745  0.58395488  0.76438558  1
  P  P284  1  0.80307431  0.91745179  0.01580266  1
  P  P285  1  0.80621023  0.91763904  0.26420074  1
  P  P286  1  0.80314796  0.91575853  0.51358053  1
  P  P287  1  0.80216496  0.91672040  0.76474153  1
  O  O288  1  0.05567934  0.24981818  0.18687564  1
  O  O289  1  0.05884291  0.25028853  0.43811647  1
  O  O290  1  0.05811881  0.24957847  0.68751845  1
  O  O291  1  0.05665764  0.24922631  0.93626857  1
  O  O292  1  0.05594325  0.58398324  0.18669741  1
  O  O293  1  0.05902783  0.58325013  0.43834757  1
  O  O294  1  0.05559266  0.58363584  0.68658277  1
  O  O295  1  0.05537442  0.58311942  0.93632316  1
  O  O296  1  0.05568126  0.91646285  0.18614730  1
  O  O297  1  0.05879972  0.91646630  0.43790001  1
  O  O298  1  0.05677300  0.91674983  0.68645329  1
  O  O299  1  0.05901918  0.91693202  0.93788348  1
  O  O300  1  0.55529736  0.24941991  0.18679987  1
  O  O301  1  0.55911690  0.25067103  0.43758902  1
  O  O302  1  0.55759435  0.25021540  0.68611469  1
  O  O303  1  0.55663800  0.25031174  0.93683574  1
  O  O304  1  0.55592300  0.58372946  0.18705174  1
  O  O305  1  0.55990464  0.58306085  0.43829610  1
  O  O306  1  0.56063696  0.58364108  0.68679057  1
  O  O307  1  0.55686279  0.58340879  0.93571418  1
  O  O308  1  0.55617780  0.91689813  0.18631968  1
  O  O309  1  0.55943234  0.91623119  0.43761548  1
  O  O310  1  0.55940935  0.91619522  0.68751507  1
  O  O311  1  0.56014624  0.91697532  0.93750054  1
  O  O312  1  0.44107231  0.08258976  0.06175464  1
  O  O313  1  0.44269685  0.08314401  0.31372513  1
  O  O314  1  0.44381515  0.08327695  0.56402777  1
  O  O315  1  0.44063671  0.08356559  0.81273824  1
  O  O316  1  0.44305902  0.41714785  0.06426708  1
  O  O317  1  0.43992571  0.41727447  0.31349311  1
  O  O318  1  0.43999143  0.41670069  0.56180321  1
  O  O319  1  0.44456635  0.41695276  0.81287259  1
  O  O320  1  0.44120466  0.75056402  0.06280932  1
  O  O321  1  0.44043295  0.74969280  0.31358564  1
  O  O322  1  0.44073429  0.74998230  0.56182955  1
  O  O323  1  0.44329730  0.75005046  0.81342842  1
  O  O324  1  0.94210931  0.08312741  0.06221577  1
  O  O325  1  0.94199445  0.08318937  0.31254755  1
  O  O326  1  0.94264718  0.08320427  0.56378974  1
  O  O327  1  0.94071589  0.08257284  0.81258394  1
  O  O328  1  0.94289806  0.41607050  0.06186465  1
  O  O329  1  0.94444043  0.41671351  0.31439960  1
  O  O330  1  0.94006428  0.41664906  0.56219843  1
  O  O331  1  0.94082877  0.41664007  0.81220913  1
  O  O332  1  0.94508101  0.75027807  0.06290337  1
  O  O333  1  0.94319226  0.75015067  0.31410697  1
  O  O334  1  0.94064199  0.75019579  0.56256691  1
  O  O335  1  0.94048205  0.75080406  0.81178700  1
  O  O336  1  0.19014557  0.08303698  0.06267389  1
  O  O337  1  0.19221096  0.08304221  0.31079214  1
  O  O338  1  0.19380607  0.08315686  0.56199539  1
  O  O339  1  0.19208930  0.08359588  0.81296004  1
  O  O340  1  0.18984116  0.41673828  0.06237371  1
  O  O341  1  0.19135147  0.41668645  0.31184104  1
  O  O342  1  0.19263419  0.41662862  0.56173211  1
  O  O343  1  0.19006088  0.41690236  0.81319045  1
  O  O344  1  0.19128908  0.75018449  0.06268286  1
  O  O345  1  0.19316488  0.75012875  0.31082569  1
  O  O346  1  0.19115842  0.74995034  0.56360994  1
  O  O347  1  0.19272556  0.74974675  0.81117467  1
  O  O348  1  0.69452281  0.08371454  0.06220247  1
  O  O349  1  0.69415842  0.08355831  0.31144630  1
  O  O350  1  0.69120317  0.08345832  0.56307128  1
  O  O351  1  0.69399734  0.08332444  0.81143141  1
  O  O352  1  0.69382512  0.41656616  0.06124469  1
  O  O353  1  0.69320764  0.41635958  0.31135602  1
  O  O354  1  0.69562168  0.41672552  0.56181007  1
  O  O355  1  0.69191028  0.41701281  0.81314322  1
  O  O356  1  0.69077111  0.75024887  0.06352507  1
  O  O357  1  0.69305174  0.74984524  0.31068118  1
  O  O358  1  0.69491642  0.75002383  0.56151428  1
  O  O359  1  0.69442135  0.74939687  0.81216448  1
  O  O360  1  0.30904763  0.24982600  0.18757302  1
  O  O361  1  0.30728489  0.24997365  0.43729181  1
  O  O362  1  0.30549643  0.25012437  0.68852069  1
  O  O363  1  0.30630023  0.25044878  0.93869485  1
  O  O364  1  0.30598124  0.58343034  0.18808393  1
  O  O365  1  0.30481902  0.58312933  0.43858003  1
  O  O366  1  0.30660066  0.58274647  0.68925670  1
  O  O367  1  0.30912962  0.58298007  0.93673380  1
  O  O368  1  0.30853906  0.91651690  0.18699232  1
  O  O369  1  0.30588996  0.91677909  0.43919270  1
  O  O370  1  0.30936797  0.91716486  0.68715656  1
  O  O371  1  0.30631223  0.91661108  0.93843910  1
  O  O372  1  0.81017429  0.25008346  0.18716933  1
  O  O373  1  0.80645763  0.25012730  0.43887345  1
  O  O374  1  0.80849183  0.24967208  0.68674522  1
  O  O375  1  0.80740654  0.24989246  0.93845726  1
  O  O376  1  0.81039449  0.58365163  0.18663622  1
  O  O377  1  0.80630694  0.58328032  0.43843818  1
  O  O378  1  0.80863178  0.58390720  0.68765518  1
  O  O379  1  0.80952981  0.58293005  0.93753745  1
  O  O380  1  0.81065640  0.91659736  0.18744546  1
  O  O381  1  0.80795523  0.91633790  0.43695497  1
  O  O382  1  0.80562453  0.91672797  0.68803417  1
  O  O383  1  0.80647401  0.91650494  0.93909428  1
  O  O384  1  0.23389796  0.24994618  0.04066942  1
  O  O385  1  0.23504875  0.25002355  0.28823863  1
  O  O386  1  0.23216136  0.25057082  0.53778426  1
  O  O387  1  0.23186385  0.24952679  0.79022552  1
  O  O388  1  0.23465294  0.58363168  0.03756591  1
  O  O389  1  0.23373212  0.58400428  0.29039733  1
  O  O390  1  0.23135345  0.58301646  0.54016892  1
  O  O391  1  0.23375801  0.58362314  0.79102960  1
  O  O392  1  0.23290133  0.91673736  0.03991511  1
  O  O393  1  0.23437386  0.91591180  0.28804118  1
  O  O394  1  0.23268452  0.91667858  0.54073272  1
  O  O395  1  0.23510593  0.91677355  0.78806598  1
  O  O396  1  0.73528101  0.25000555  0.04091420  1
  O  O397  1  0.73545745  0.24948919  0.28803340  1
  O  O398  1  0.73287552  0.25064299  0.54027625  1
  O  O399  1  0.73531682  0.24936435  0.78847233  1
  O  O400  1  0.73575038  0.58303123  0.03842179  1
  O  O401  1  0.73544457  0.58333359  0.28712896  1
  O  O402  1  0.73325326  0.58337374  0.54030725  1
  O  O403  1  0.73425126  0.58336819  0.78864414  1
  O  O404  1  0.73305608  0.91755172  0.04050723  1
  O  O405  1  0.73601912  0.91672722  0.28792913  1
  O  O406  1  0.73280105  0.91637684  0.53733125  1
  O  O407  1  0.73225028  0.91643527  0.78973201  1
  O  O408  1  0.26530970  0.08325681  0.20962727  1
  O  O409  1  0.26600185  0.08300521  0.45941586  1
  O  O410  1  0.26693623  0.08414362  0.71213308  1
  O  O411  1  0.26586759  0.08270106  0.96285179  1
  O  O412  1  0.26643851  0.41696899  0.21166983  1
  O  O413  1  0.26618896  0.41683493  0.46017585  1
  O  O414  1  0.26441649  0.41628413  0.71222046  1
  O  O415  1  0.26436927  0.41626446  0.96190274  1
  O  O416  1  0.26752537  0.74968874  0.21012025  1
  O  O417  1  0.26634592  0.75006863  0.46301364  1
  O  O418  1  0.26540849  0.74962325  0.70966423  1
  O  O419  1  0.26692956  0.75127479  0.96260693  1
  O  O420  1  0.76866412  0.08327673  0.21082704  1
  O  O421  1  0.76492602  0.08344458  0.46182289  1
  O  O422  1  0.76720992  0.08297092  0.70980030  1
  O  O423  1  0.76864533  0.08293321  0.96107057  1
  O  O424  1  0.76709988  0.41668162  0.21033045  1
  O  O425  1  0.76859355  0.41687411  0.45971689  1
  O  O426  1  0.76724892  0.41743770  0.71327759  1
  O  O427  1  0.76830179  0.41601534  0.96055553  1
  O  O428  1  0.76599216  0.75032565  0.20914297  1
  O  O429  1  0.76814428  0.74941643  0.45966761  1
  O  O430  1  0.76780207  0.75027567  0.71051186  1
  O  O431  1  0.76550830  0.75013456  0.96301515  1
  O  O432  1  0.01660740  0.08288336  0.16314966  1
  O  O433  1  0.01508615  0.08337739  0.41422046  1
  O  O434  1  0.01560396  0.08297883  0.66539521  1
  O  O435  1  0.01655715  0.08367973  0.91231294  1
  O  O436  1  0.01742780  0.41696394  0.16302063  1
  O  O437  1  0.01778625  0.41659320  0.41594209  1
  O  O438  1  0.01369739  0.41721536  0.66319059  1
  O  O439  1  0.01601851  0.41592711  0.91242215  1
  O  O440  1  0.01861247  0.75060623  0.16487592  1
  O  O441  1  0.01562966  0.74989933  0.41584769  1
  O  O442  1  0.01580340  0.75003327  0.66290028  1
  O  O443  1  0.01476854  0.74942880  0.91261244  1
  O  O444  1  0.51488945  0.08287451  0.16351343  1
  O  O445  1  0.51604509  0.08368911  0.41507311  1
  O  O446  1  0.51771612  0.08288855  0.66523258  1
  O  O447  1  0.51476390  0.08379704  0.91348075  1
  O  O448  1  0.51522233  0.41659998  0.16671179  1
  O  O449  1  0.51417224  0.41645930  0.41427237  1
  O  O450  1  0.51576647  0.41636741  0.66142191  1
  O  O451  1  0.51824278  0.41731397  0.91460797  1
  O  O452  1  0.51607793  0.75051909  0.16355715  1
  O  O453  1  0.51455204  0.75018357  0.41440413  1
  O  O454  1  0.51580466  0.75050845  0.66233845  1
  O  O455  1  0.51583988  0.74965342  0.91516569  1
  O  O456  1  0.48132132  0.25007347  0.08566181  1
  O  O457  1  0.48263607  0.25019468  0.33825372  1
  O  O458  1  0.48431355  0.24945028  0.58476042  1
  O  O459  1  0.48406753  0.25077493  0.83454344  1
  O  O460  1  0.48345327  0.58365873  0.08511682  1
  O  O461  1  0.48430356  0.58328783  0.33837953  1
  O  O462  1  0.48554828  0.58340877  0.58664078  1
  O  O463  1  0.48345497  0.58322620  0.83393675  1
  O  O464  1  0.48245798  0.91650438  0.08490011  1
  O  O465  1  0.48439147  0.91651094  0.33737715  1
  O  O466  1  0.48427232  0.91723803  0.58704443  1
  O  O467  1  0.48548048  0.91618926  0.83729500  1
  O  O468  1  0.98227589  0.24945251  0.08507131  1
  O  O469  1  0.98497573  0.25046488  0.33692536  1
  O  O470  1  0.98300690  0.25009760  0.58730668  1
  O  O471  1  0.98435076  0.25010224  0.83437024  1
  O  O472  1  0.98273921  0.58308120  0.08487033  1
  O  O473  1  0.98502731  0.58334948  0.33725072  1
  O  O474  1  0.98186039  0.58331512  0.58566115  1
  O  O475  1  0.98125415  0.58327903  0.83513720  1
  O  O476  1  0.98269084  0.91671636  0.08429639  1
  O  O477  1  0.98314378  0.91641067  0.33780974  1
  O  O478  1  0.98382510  0.91667851  0.58496229  1
  O  O479  1  0.98482875  0.91685173  0.83685349  1
  O  O480  1  0.08597501  0.31477455  0.07756508  1
  O  O481  1  0.08819318  0.31639414  0.32864288  1
  O  O482  1  0.08695341  0.31483396  0.57768623  1
  O  O483  1  0.08835523  0.31462793  0.82727183  1
  O  O484  1  0.08611147  0.64906078  0.07716148  1
  O  O485  1  0.08888206  0.64729478  0.32842060  1
  O  O486  1  0.08560069  0.64941619  0.57717312  1
  O  O487  1  0.08539914  0.64724822  0.82686662  1
  O  O488  1  0.08682067  0.98156931  0.07690390  1
  O  O489  1  0.08653646  0.98151361  0.32765259  1
  O  O490  1  0.08823910  0.98059637  0.57693378  1
  O  O491  1  0.08808462  0.98284416  0.82831869  1
  O  O492  1  0.58544852  0.31471754  0.07763459  1
  O  O493  1  0.58605528  0.31548250  0.32729976  1
  O  O494  1  0.58855928  0.31372407  0.57613969  1
  O  O495  1  0.58775408  0.31633517  0.82794075  1
  O  O496  1  0.58690275  0.64942143  0.07789334  1
  O  O497  1  0.58772805  0.64825390  0.32820781  1
  O  O498  1  0.58928987  0.64846091  0.57676912  1
  O  O499  1  0.58773138  0.64744046  0.82610020  1
  O  O500  1  0.58673358  0.98088386  0.07651275  1
  O  O501  1  0.58784810  0.98160292  0.32754708  1
  O  O502  1  0.58794301  0.98274956  0.57810274  1
  O  O503  1  0.58892807  0.98176513  0.82745394  1
  O  O504  1  0.41154595  0.01743028  0.17141008  1
  O  O505  1  0.41240689  0.01902662  0.42338412  1
  O  O506  1  0.41377307  0.01735243  0.67316832  1
  O  O507  1  0.41116597  0.01847810  0.92266852  1
  O  O508  1  0.41135605  0.35091866  0.17279566  1
  O  O509  1  0.41050326  0.35074029  0.42275646  1
  O  O510  1  0.41227113  0.35131471  0.67191579  1
  O  O511  1  0.41390023  0.35319168  0.92245460  1
  O  O512  1  0.41198827  0.68642871  0.17307712  1
  O  O513  1  0.41079852  0.68493183  0.42364572  1
  O  O514  1  0.41213009  0.68605535  0.67194469  1
  O  O515  1  0.41245227  0.68325378  0.92205340  1
  O  O516  1  0.91285073  0.01792258  0.17194866  1
  O  O517  1  0.91181841  0.01736441  0.42198386  1
  O  O518  1  0.91122112  0.01911694  0.67327981  1
  O  O519  1  0.91302548  0.01827944  0.92314233  1
  O  O520  1  0.91418019  0.35133882  0.17194369  1
  O  O521  1  0.91357323  0.35196262  0.42380788  1
  O  O522  1  0.91041135  0.35146188  0.67212743  1
  O  O523  1  0.91188102  0.35239059  0.92243785  1
  O  O524  1  0.91501991  0.68502296  0.17218156  1
  O  O525  1  0.91123762  0.68609427  0.42347374  1
  O  O526  1  0.91216467  0.68427538  0.67214409  1
  O  O527  1  0.91106589  0.68451544  0.92107190  1
  O  O528  1  0.16142783  0.01811654  0.20142338  1
  O  O529  1  0.16242804  0.01754187  0.45324926  1
  O  O530  1  0.16330283  0.01944762  0.70278624  1
  O  O531  1  0.16245747  0.01692495  0.95268601  1
  O  O532  1  0.16263661  0.35196205  0.20164915  1
  O  O533  1  0.16232443  0.35179724  0.45205578  1
  O  O534  1  0.16110566  0.35050265  0.70371151  1
  O  O535  1  0.16040273  0.35158088  0.95275575  1
  O  O536  1  0.16347935  0.68498011  0.20112253  1
  O  O537  1  0.16271879  0.68522389  0.45356769  1
  O  O538  1  0.16120522  0.68480570  0.70201108  1
  O  O539  1  0.16333955  0.68634845  0.95214954  1
  O  O540  1  0.66481198  0.01838698  0.20195115  1
  O  O541  1  0.66131799  0.01865917  0.45334121  1
  O  O542  1  0.66340081  0.01718578  0.70239546  1
  O  O543  1  0.66441628  0.01806213  0.95319055  1
  O  O544  1  0.66359029  0.35124993  0.20185485  1
  O  O545  1  0.66464813  0.35167948  0.45265426  1
  O  O546  1  0.66366491  0.35270795  0.70270528  1
  O  O547  1  0.66411343  0.35128995  0.95184440  1
  O  O548  1  0.66203947  0.68508067  0.20129483  1
  O  O549  1  0.66433517  0.68437794  0.45257745  1
  O  O550  1  0.66429075  0.68465024  0.70260758  1
  O  O551  1  0.66191178  0.68590758  0.95328087  1
  O  O552  1  0.33822189  0.31411960  0.04801943  1
  O  O553  1  0.33826849  0.31621899  0.29709511  1
  O  O554  1  0.33557574  0.31613414  0.54703124  1
  O  O555  1  0.33550888  0.31461041  0.79814595  1
  O  O556  1  0.33801589  0.64929983  0.04616635  1
  O  O557  1  0.33765143  0.64869793  0.29699344  1
  O  O558  1  0.33550691  0.64781236  0.54795243  1
  O  O559  1  0.33825036  0.64781611  0.79809163  1
  O  O560  1  0.33684279  0.98188432  0.04780135  1
  O  O561  1  0.33788205  0.98065701  0.29712478  1
  O  O562  1  0.33712148  0.98089566  0.54872634  1
  O  O563  1  0.33820774  0.98278140  0.79687823  1
  O  O564  1  0.83929285  0.31506401  0.04744693  1
  O  O565  1  0.83908476  0.31409978  0.29730183  1
  O  O566  1  0.83689060  0.31613293  0.54778184  1
  O  O567  1  0.83873763  0.31459658  0.79636035  1
  O  O568  1  0.84009060  0.64670737  0.04768491  1
  O  O569  1  0.83867635  0.64873617  0.29655341  1
  O  O570  1  0.83725686  0.64842491  0.54777044  1
  O  O571  1  0.83763098  0.64919078  0.79748621  1
  O  O572  1  0.83752063  0.98235672  0.04789792  1
  O  O573  1  0.83925786  0.98296431  0.29719565  1
  O  O574  1  0.83656050  0.98058936  0.54725839  1
  O  O575  1  0.83596280  0.98193373  0.79727332  1
  O  O576  1  0.41118972  0.14775479  0.17126356  1
  O  O577  1  0.41239263  0.14919520  0.42288100  1
  O  O578  1  0.41343859  0.14740437  0.67362895  1
  O  O579  1  0.41061950  0.14842418  0.92239485  1
  O  O580  1  0.41102905  0.48098251  0.17372226  1
  O  O581  1  0.41019211  0.48076072  0.42386202  1
  O  O582  1  0.41232750  0.48147825  0.67202857  1
  O  O583  1  0.41462400  0.48313720  0.92197133  1
  O  O584  1  0.41262964  0.81650597  0.17247865  1
  O  O585  1  0.41053957  0.81479019  0.42332221  1
  O  O586  1  0.41264178  0.81636309  0.67143158  1
  O  O587  1  0.41140600  0.81331726  0.92330180  1
  O  O588  1  0.91293380  0.14812269  0.17229121  1
  O  O589  1  0.91126415  0.14748126  0.42226466  1
  O  O590  1  0.91210623  0.14918565  0.67276141  1
  O  O591  1  0.91265799  0.14814437  0.92251147  1
  O  O592  1  0.91373221  0.48161503  0.17150269  1
  O  O593  1  0.91370526  0.48170732  0.42364348  1
  O  O594  1  0.90972810  0.48173289  0.67174775  1
  O  O595  1  0.91281427  0.48237336  0.92221348  1
  O  O596  1  0.91452382  0.81524570  0.17189817  1
  O  O597  1  0.91205655  0.81602955  0.42321673  1
  O  O598  1  0.91184727  0.81436936  0.67293047  1
  O  O599  1  0.91150775  0.81458630  0.92222501  1
  O  O600  1  0.08606722  0.18462205  0.07757390  1
  O  O601  1  0.08869219  0.18620349  0.32808577  1
  O  O602  1  0.08675723  0.18488425  0.57734964  1
  O  O603  1  0.08806762  0.18447651  0.82699365  1
  O  O604  1  0.08688784  0.51883019  0.07759593  1
  O  O605  1  0.08795922  0.51700154  0.32879220  1
  O  O606  1  0.08641083  0.51952294  0.57706104  1
  O  O607  1  0.08448005  0.51706528  0.82702963  1
  O  O608  1  0.08687529  0.85160336  0.07681148  1
  O  O609  1  0.08670208  0.85148124  0.32778718  1
  O  O610  1  0.08737855  0.85059936  0.57739237  1
  O  O611  1  0.08858409  0.85256071  0.82804721  1
  O  O612  1  0.58503831  0.18468975  0.07706528  1
  O  O613  1  0.58622168  0.18541516  0.32719097  1
  O  O614  1  0.58800300  0.18358831  0.57756572  1
  O  O615  1  0.58796956  0.18612676  0.82768520  1
  O  O616  1  0.58747432  0.51930241  0.07774935  1
  O  O617  1  0.58770910  0.51811719  0.32811908  1
  O  O618  1  0.58933261  0.51844886  0.57677497  1
  O  O619  1  0.58740779  0.51740582  0.82675484  1
  O  O620  1  0.58637434  0.85091602  0.07721406  1
  O  O621  1  0.58786502  0.85151730  0.32759551  1
  O  O622  1  0.58819188  0.85272682  0.57677012  1
  O  O623  1  0.58933447  0.85172753  0.82743689  1
  O  O624  1  0.33743241  0.18394711  0.04738723  1
  O  O625  1  0.33915072  0.18610879  0.29787046  1
  O  O626  1  0.33592241  0.18603289  0.54764535  1
  O  O627  1  0.33592742  0.18454586  0.79749887  1
  O  O628  1  0.33815672  0.51897631  0.04686386  1
  O  O629  1  0.33714731  0.51843764  0.29730107  1
  O  O630  1  0.33509673  0.51767264  0.54775857  1
  O  O631  1  0.33745745  0.51788662  0.79866818  1
  O  O632  1  0.33721891  0.85201258  0.04793143  1
  O  O633  1  0.33782163  0.85043786  0.29640659  1
  O  O634  1  0.33668542  0.85100156  0.54832494  1
  O  O635  1  0.33883448  0.85257521  0.79700645  1
  O  O636  1  0.83927841  0.18490669  0.04741285  1
  O  O637  1  0.83886802  0.18391224  0.29664929  1
  O  O638  1  0.83713232  0.18619022  0.54858920  1
  O  O639  1  0.83884298  0.18428679  0.79603718  1
  O  O640  1  0.83902839  0.51658886  0.04683293  1
  O  O641  1  0.83913106  0.51866676  0.29668206  1
  O  O642  1  0.83724487  0.51839863  0.54777977  1
  O  O643  1  0.83845284  0.51903465  0.79745886  1
  O  O644  1  0.83699663  0.85253200  0.04897088  1
  O  O645  1  0.84016572  0.85287430  0.29755034  1
  O  O646  1  0.83611941  0.85059037  0.54686849  1
  O  O647  1  0.83623916  0.85180122  0.79739106  1
  O  O648  1  0.16131039  0.14802262  0.20139000  1
  O  O649  1  0.16217994  0.14804608  0.45306440  1
  O  O650  1  0.16321318  0.14942420  0.70325870  1
  O  O651  1  0.16185359  0.14697544  0.95227460  1
  O  O652  1  0.16260352  0.48182485  0.20182676  1
  O  O653  1  0.16225214  0.48192378  0.45248210  1
  O  O654  1  0.16068054  0.48065160  0.70302744  1
  O  O655  1  0.16062982  0.48151855  0.95218491  1
  O  O656  1  0.16353323  0.81475294  0.20103621  1
  O  O657  1  0.16312790  0.81556724  0.45358378  1
  O  O658  1  0.16144017  0.81466106  0.70184337  1
  O  O659  1  0.16326113  0.81647238  0.95314756  1
  O  O660  1  0.66480617  0.14835819  0.20168689  1
  O  O661  1  0.66186905  0.14927346  0.45354009  1
  O  O662  1  0.66278635  0.14711332  0.70185961  1
  O  O663  1  0.66498928  0.14813453  0.95241556  1
  O  O664  1  0.66331224  0.48142022  0.20191213  1
  O  O665  1  0.66467620  0.48190146  0.45272014  1
  O  O666  1  0.66378676  0.48276115  0.70311953  1
  O  O667  1  0.66440362  0.48130811  0.95146429  1
  O  O668  1  0.66179348  0.81498179  0.20162430  1
  O  O669  1  0.66424521  0.81463425  0.45214018  1
  O  O670  1  0.66367339  0.81470320  0.70290107  1
  O  O671  1  0.66243676  0.81623903  0.95399155  1
