# generated using pymatgen
data_Na2MnFe(PO4)2
_symmetry_space_group_name_H-M   'P 1'
_cell_length_a   21.07672964
_cell_length_b   18.92821166
_cell_length_c   20.03690303
_cell_angle_alpha   89.99975473
_cell_angle_beta   90.00011417
_cell_angle_gamma   90.00149478
_symmetry_Int_Tables_number   1
_chemical_formula_structural   Na2MnFe(PO4)2
_chemical_formula_sum   'Na96 Mn48 Fe48 P96 O384'
_cell_volume   7993.61826113
_cell_formula_units_Z   48
loop_
 _symmetry_equiv_pos_site_id
 _symmetry_equiv_pos_as_xyz
  1  'x, y, z'
loop_
 _atom_site_type_symbol
 _atom_site_label
 _atom_site_symmetry_multiplicity
 _atom_site_fract_x
 _atom_site_fract_y
 _atom_site_fract_z
 _atom_site_occupancy
  Na  Na0  1  -0.00097983  0.00043815  -0.00104067  1
  Na  Na1  1  0.00093830  0.00108735  0.24987389  1
  Na  Na2  1  -0.00043755  0.00010712  0.50143768  1
  Na  Na3  1  -0.00102734  0.00043683  0.74943193  1
  Na  Na4  1  0.00125401  0.33319746  0.00015903  1
  Na  Na5  1  0.00241882  0.33348761  0.25100698  1
  Na  Na6  1  0.00110596  0.33299907  0.50062820  1
  Na  Na7  1  0.00122731  0.33398681  0.74925404  1
  Na  Na8  1  -0.00078231  0.66663003  -0.00052505  1
  Na  Na9  1  0.00105540  0.66713258  0.25005932  1
  Na  Na10  1  0.00279041  0.66682706  0.50094530  1
  Na  Na11  1  0.00193083  0.66684388  0.75017273  1
  Na  Na12  1  0.49929511  -0.00029914  0.00046790  1
  Na  Na13  1  0.50097057  0.00087396  0.25105993  1
  Na  Na14  1  0.50012171  0.00070963  0.49934158  1
  Na  Na15  1  0.50133941  0.00152782  0.74902659  1
  Na  Na16  1  0.49934745  0.33363727  -0.00089457  1
  Na  Na17  1  0.49985338  0.33354460  0.25091684  1
  Na  Na18  1  0.49784755  0.33271530  0.50021964  1
  Na  Na19  1  0.49876636  0.33368587  0.74953286  1
  Na  Na20  1  0.49737816  0.66582219  -0.00005657  1
  Na  Na21  1  0.49758349  0.66645719  0.24963863  1
  Na  Na22  1  0.49946933  0.66663642  0.50106631  1
  Na  Na23  1  0.49975206  0.66674078  0.74891580  1
  Na  Na24  1  0.25101931  0.00053922  0.12473498  1
  Na  Na25  1  0.25100164  0.00115087  0.37392944  1
  Na  Na26  1  0.24896567  -0.00007818  0.62484739  1
  Na  Na27  1  0.24994854  -0.00012106  0.87604243  1
  Na  Na28  1  0.25012160  0.33280613  0.12500469  1
  Na  Na29  1  0.24947663  0.33268308  0.37584097  1
  Na  Na30  1  0.25057842  0.33310640  0.62495390  1
  Na  Na31  1  0.25145895  0.33366435  0.87390662  1
  Na  Na32  1  0.25255454  0.66708195  0.12506267  1
  Na  Na33  1  0.25035293  0.66735858  0.37542337  1
  Na  Na34  1  0.24757612  0.66557958  0.62422570  1
  Na  Na35  1  0.25096674  0.66663560  0.87472768  1
  Na  Na36  1  0.74930657  0.00064260  0.12554834  1
  Na  Na37  1  0.74820856  0.00045943  0.37476796  1
  Na  Na38  1  0.75005182  0.00129008  0.62505680  1
  Na  Na39  1  0.75002675  0.00053373  0.87533961  1
  Na  Na40  1  0.74901406  0.33340835  0.12433161  1
  Na  Na41  1  0.74999229  0.33336467  0.37551546  1
  Na  Na42  1  0.75057995  0.33401542  0.62579710  1
  Na  Na43  1  0.74893282  0.33346307  0.87441136  1
  Na  Na44  1  0.74990369  0.66710228  0.12597694  1
  Na  Na45  1  0.74896546  0.66626544  0.37472840  1
  Na  Na46  1  0.75035508  0.66614950  0.62445641  1
  Na  Na47  1  0.75170538  0.66714977  0.87492428  1
  Na  Na48  1  0.00000137  0.16647418  -0.00015372  1
  Na  Na49  1  0.00192277  0.16615674  0.25034370  1
  Na  Na50  1  0.00030300  0.16704053  0.50092336  1
  Na  Na51  1  -0.00072293  0.16695209  0.74939451  1
  Na  Na52  1  0.00134092  0.49920718  -0.00042832  1
  Na  Na53  1  0.00092029  0.49991855  0.25092075  1
  Na  Na54  1  0.00209825  0.49901923  0.50126431  1
  Na  Na55  1  0.00173348  0.49888788  0.74906619  1
  Na  Na56  1  -0.00171538  0.83391015  -0.00069748  1
  Na  Na57  1  -0.00008340  0.83375478  0.24930256  1
  Na  Na58  1  0.00164695  0.83284934  0.50107903  1
  Na  Na59  1  0.00110182  0.83253710  0.75033672  1
  Na  Na60  1  0.50067722  0.16595276  0.00025996  1
  Na  Na61  1  0.49906231  0.16718599  0.25150289  1
  Na  Na62  1  0.50082245  0.16617139  0.49958858  1
  Na  Na63  1  0.49992700  0.16718235  0.74886488  1
  Na  Na64  1  0.50019608  0.49910206  -0.00112362  1
  Na  Na65  1  0.49960817  0.49951141  0.25000174  1
  Na  Na66  1  0.49795501  0.50027205  0.50129098  1
  Na  Na67  1  0.50017181  0.49910557  0.74888802  1
  Na  Na68  1  0.49676962  0.83447791  0.00075604  1
  Na  Na69  1  0.49999753  0.83278275  0.25011425  1
  Na  Na70  1  0.49978548  0.83298950  0.49987390  1
  Na  Na71  1  0.49850382  0.83369913  0.74941977  1
  Na  Na72  1  0.24958693  0.16706049  0.12424806  1
  Na  Na73  1  0.24951801  0.16675932  0.37493650  1
  Na  Na74  1  0.25003477  0.16717613  0.62456306  1
  Na  Na75  1  0.25007982  0.16740756  0.87507201  1
  Na  Na76  1  0.25102006  0.49924451  0.12511722  1
  Na  Na77  1  0.25014537  0.49935733  0.37578612  1
  Na  Na78  1  0.24844080  0.49990659  0.62446275  1
  Na  Na79  1  0.25011356  0.49971778  0.87439858  1
  Na  Na80  1  0.25375814  0.83243487  0.12521135  1
  Na  Na81  1  0.25031768  0.83352792  0.37471671  1
  Na  Na82  1  0.24918718  0.83360896  0.62468561  1
  Na  Na83  1  0.25138715  0.83341367  0.87530891  1
  Na  Na84  1  0.74824730  0.16637424  0.12546477  1
  Na  Na85  1  0.74905907  0.16673612  0.37529971  1
  Na  Na86  1  0.75100456  0.16620733  0.62580165  1
  Na  Na87  1  0.75081140  0.16583082  0.87442471  1
  Na  Na88  1  0.74830242  0.49997028  0.12442651  1
  Na  Na89  1  0.75081782  0.49850317  0.37571951  1
  Na  Na90  1  0.74929453  0.49935445  0.62520873  1
  Na  Na91  1  0.74792500  0.49993587  0.87516147  1
  Na  Na92  1  0.75134466  0.83294151  0.12600248  1
  Na  Na93  1  0.74756121  0.83416637  0.37385059  1
  Na  Na94  1  0.75072304  0.83270474  0.62427268  1
  Na  Na95  1  0.75233700  0.83268881  0.87504404  1
  Mn  Mn96  1  0.14302808  0.58337888  0.99774157  1
  Mn  Mn97  1  0.85757564  0.74982081  0.25304187  1
  Mn  Mn98  1  0.85746238  0.08366808  0.25245968  1
  Mn  Mn99  1  0.64215419  0.91711464  0.49773534  1
  Mn  Mn100  1  0.10873644  0.41660002  0.12252094  1
  Mn  Mn101  1  0.39185989  0.91760336  0.62710088  1
  Mn  Mn102  1  0.35803935  0.08339668  0.75224804  1
  Mn  Mn103  1  0.39159573  0.58271618  0.62743262  1
  Mn  Mn104  1  0.64103961  0.25010740  0.24818784  1
  Mn  Mn105  1  0.35711828  0.74974473  0.75221557  1
  Mn  Mn106  1  0.64196150  0.91558968  0.74817442  1
  Mn  Mn107  1  0.35808554  0.41619512  0.25280154  1
  Mn  Mn108  1  0.10823614  0.75091467  0.12241670  1
  Mn  Mn109  1  0.14270462  0.91712609  0.24696640  1
  Mn  Mn110  1  0.64152831  0.58424022  0.99715327  1
  Mn  Mn111  1  0.89223532  0.91644037  0.62750231  1
  Mn  Mn112  1  0.64209103  0.58269528  0.49726166  1
  Mn  Mn113  1  0.39268858  0.91667542  0.37736672  1
  Mn  Mn114  1  0.39239375  0.24930692  0.12755497  1
  Mn  Mn115  1  0.85788247  0.41640438  0.25204374  1
  Mn  Mn116  1  0.89252571  0.25058960  0.87687340  1
  Mn  Mn117  1  0.14286541  0.91620710  0.99816722  1
  Mn  Mn118  1  0.60706544  0.41720694  0.37377407  1
  Mn  Mn119  1  0.89331442  0.58327395  0.37758308  1
  Mn  Mn120  1  0.89185206  0.91676163  0.87698797  1
  Mn  Mn121  1  0.89328678  0.58286745  0.62743802  1
  Mn  Mn122  1  0.60821549  0.75013066  0.62267055  1
  Mn  Mn123  1  0.64205172  0.91625498  0.99797523  1
  Mn  Mn124  1  0.89195750  0.58328007  0.12748618  1
  Mn  Mn125  1  0.10825436  0.74970242  0.87294964  1
  Mn  Mn126  1  0.64183790  0.25051073  0.74736368  1
  Mn  Mn127  1  0.10765814  0.08372657  0.87241380  1
  Mn  Mn128  1  0.85758703  0.41659661  0.00205171  1
  Mn  Mn129  1  0.89253831  0.24966588  0.12746145  1
  Mn  Mn130  1  0.14267338  0.25054816  0.99734325  1
  Mn  Mn131  1  0.35872346  0.08350789  0.00230116  1
  Mn  Mn132  1  0.39211102  0.58327625  0.12745661  1
  Mn  Mn133  1  0.14230885  0.91730210  0.49698955  1
  Mn  Mn134  1  0.60675824  0.75005470  0.12212033  1
  Mn  Mn135  1  0.60750715  0.75002667  0.87282808  1
  Mn  Mn136  1  0.10750012  0.08361700  0.62301301  1
  Mn  Mn137  1  0.89248223  0.58246710  0.87658605  1
  Mn  Mn138  1  0.64151957  0.24971023  0.99727937  1
  Mn  Mn139  1  0.85826623  0.74975964  0.50161231  1
  Mn  Mn140  1  0.89304252  0.24998837  0.37764035  1
  Mn  Mn141  1  0.64102034  0.58330459  0.24839650  1
  Mn  Mn142  1  0.89234625  0.91666856  0.37706618  1
  Mn  Mn143  1  0.14306577  0.58320695  0.24771069  1
  Fe  Fe144  1  0.14333935  0.24993659  0.74793050  1
  Fe  Fe145  1  0.39210773  0.91690296  0.87629440  1
  Fe  Fe146  1  0.39224508  0.58316808  0.87574488  1
  Fe  Fe147  1  0.85651729  0.08338453  0.75184610  1
  Fe  Fe148  1  0.14337525  0.58294440  0.49780502  1
  Fe  Fe149  1  0.14340558  0.24948870  0.24885436  1
  Fe  Fe150  1  0.10782663  0.41635397  0.62315867  1
  Fe  Fe151  1  0.85687199  0.08310405  0.00249376  1
  Fe  Fe152  1  0.14253495  0.91682704  0.74900906  1
  Fe  Fe153  1  0.39183385  0.58309357  0.37731976  1
  Fe  Fe154  1  0.60670709  0.08333038  0.37356036  1
  Fe  Fe155  1  0.35791422  0.41700626  0.00100651  1
  Fe  Fe156  1  0.85713855  0.41698158  0.75193808  1
  Fe  Fe157  1  0.10745237  0.08281120  0.12320403  1
  Fe  Fe158  1  0.60681189  0.41588823  0.62305539  1
  Fe  Fe159  1  0.10849407  0.75050702  0.37290614  1
  Fe  Fe160  1  0.35669103  0.75025492  0.50162871  1
  Fe  Fe161  1  0.64197359  0.91653191  0.24781674  1
  Fe  Fe162  1  0.60706341  0.41619621  0.12322395  1
  Fe  Fe163  1  0.60618873  0.41660253  0.87264539  1
  Fe  Fe164  1  0.64238259  0.58358328  0.74894689  1
  Fe  Fe165  1  0.35769286  0.75030679  0.25296932  1
  Fe  Fe166  1  0.10799861  0.74984641  0.62356381  1
  Fe  Fe167  1  0.14310231  0.24978960  0.49848825  1
  Fe  Fe168  1  0.60722029  0.08337833  0.87369310  1
  Fe  Fe169  1  0.35634557  0.41642058  0.50199120  1
  Fe  Fe170  1  0.35729865  0.08350813  0.25177658  1
  Fe  Fe171  1  0.10868268  0.41635691  0.87246844  1
  Fe  Fe172  1  0.89283428  0.25048007  0.62649464  1
  Fe  Fe173  1  0.85814414  0.41590180  0.50217716  1
  Fe  Fe174  1  0.60661809  0.08355179  0.12351822  1
  Fe  Fe175  1  0.35742143  0.08364982  0.50136406  1
  Fe  Fe176  1  0.10801381  0.41633982  0.37371913  1
  Fe  Fe177  1  0.85824677  0.74927368  0.75112401  1
  Fe  Fe178  1  0.85769729  0.75028627  0.00225553  1
  Fe  Fe179  1  0.89241889  0.91720535  0.12667566  1
  Fe  Fe180  1  0.10799110  0.08314165  0.37326079  1
  Fe  Fe181  1  0.39295606  0.91761746  0.12740338  1
  Fe  Fe182  1  0.39196751  0.25025350  0.37756911  1
  Fe  Fe183  1  0.14293638  0.58312347  0.74854508  1
  Fe  Fe184  1  0.35672089  0.41675040  0.75134831  1
  Fe  Fe185  1  0.39276056  0.24992619  0.87595019  1
  Fe  Fe186  1  0.85708755  0.08415097  0.50132696  1
  Fe  Fe187  1  0.64289463  0.25042801  0.49917734  1
  Fe  Fe188  1  0.60628536  0.74981711  0.37364185  1
  Fe  Fe189  1  0.60765112  0.08438359  0.62265387  1
  Fe  Fe190  1  0.35812499  0.74947016  0.00121321  1
  Fe  Fe191  1  0.39259600  0.24975418  0.62612541  1
  P  P192  1  0.05522934  0.24876202  0.11121901  1
  P  P193  1  0.05605944  0.24964696  0.36138568  1
  P  P194  1  0.05457646  0.25070876  0.61081048  1
  P  P195  1  0.05447520  0.25072239  0.85875387  1
  P  P196  1  0.05356414  0.58373380  0.10961521  1
  P  P197  1  0.05581089  0.58309072  0.36156494  1
  P  P198  1  0.05654506  0.58293139  0.61103153  1
  P  P199  1  0.05457980  0.58227482  0.85918844  1
  P  P200  1  0.05221726  0.91771243  0.10946208  1
  P  P201  1  0.05385910  0.91716055  0.35984100  1
  P  P202  1  0.05499308  0.91614197  0.61152435  1
  P  P203  1  0.05382976  0.91681235  0.85931090  1
  P  P204  1  0.55303354  0.24976855  0.11016624  1
  P  P205  1  0.55284590  0.24992542  0.36225638  1
  P  P206  1  0.55285225  0.25063907  0.60945929  1
  P  P207  1  0.55194924  0.24996558  0.85965748  1
  P  P208  1  0.55279489  0.58258441  0.10964209  1
  P  P209  1  0.55096811  0.58381195  0.36054227  1
  P  P210  1  0.55461503  0.58220948  0.61131114  1
  P  P211  1  0.55201161  0.58298557  0.85899100  1
  P  P212  1  0.55294243  0.91760757  0.11131442  1
  P  P213  1  0.55407286  0.91655067  0.35979383  1
  P  P214  1  0.55334211  0.91760786  0.60975941  1
  P  P215  1  0.55156228  0.91704588  0.86018729  1
  P  P216  1  0.44716712  0.08295456  0.14123878  1
  P  P217  1  0.44567766  0.08409810  0.38950014  1
  P  P218  1  0.44664043  0.08466687  0.63822123  1
  P  P219  1  0.44778333  0.08366925  0.88951564  1
  P  P220  1  0.44676681  0.41627292  0.13895691  1
  P  P221  1  0.44528894  0.41680341  0.39120776  1
  P  P222  1  0.44496625  0.41545469  0.63914834  1
  P  P223  1  0.44534637  0.41688796  0.88810490  1
  P  P224  1  0.44425863  0.75106001  0.13970311  1
  P  P225  1  0.44562893  0.74927778  0.38995275  1
  P  P226  1  0.44510503  0.75004392  0.63881884  1
  P  P227  1  0.44585200  0.74974065  0.88990522  1
  P  P228  1  0.94659721  0.08268105  0.13915960  1
  P  P229  1  0.94784971  0.08347697  0.39085709  1
  P  P230  1  0.94428009  0.08459296  0.63928618  1
  P  P231  1  0.94454156  0.08378995  0.88935418  1
  P  P232  1  0.94750939  0.41631203  0.14042845  1
  P  P233  1  0.94810970  0.41641496  0.39111173  1
  P  P234  1  0.94625322  0.41569448  0.63943824  1
  P  P235  1  0.94759389  0.41656030  0.88874412  1
  P  P236  1  0.94543323  0.75110959  0.13917257  1
  P  P237  1  0.94915655  0.75016654  0.39030429  1
  P  P238  1  0.94794577  0.74948529  0.64055999  1
  P  P239  1  0.94499195  0.74948827  0.88935540  1
  P  P240  1  0.19645718  0.08424679  0.23528341  1
  P  P241  1  0.19740456  0.08436141  0.48456007  1
  P  P242  1  0.19681025  0.08362723  0.73512431  1
  P  P243  1  0.19606592  0.08321885  0.98585099  1
  P  P244  1  0.19618357  0.41546463  0.23643832  1
  P  P245  1  0.19581282  0.41598474  0.48630429  1
  P  P246  1  0.19613338  0.41623604  0.73527746  1
  P  P247  1  0.19796820  0.41661557  0.98380332  1
  P  P248  1  0.19749599  0.75020656  0.23570595  1
  P  P249  1  0.19613368  0.74957633  0.48555962  1
  P  P250  1  0.19612750  0.75004377  0.73459109  1
  P  P251  1  0.19883177  0.75009432  0.98507586  1
  P  P252  1  0.69386012  0.08278723  0.23579718  1
  P  P253  1  0.69573181  0.08500827  0.48578086  1
  P  P254  1  0.69526529  0.08338649  0.73575817  1
  P  P255  1  0.69572764  0.08305198  0.98546949  1
  P  P256  1  0.69550806  0.41655148  0.23444004  1
  P  P257  1  0.69688674  0.41519866  0.48664297  1
  P  P258  1  0.69512843  0.41748391  0.73560041  1
  P  P259  1  0.69418958  0.41650311  0.98475374  1
  P  P260  1  0.69434853  0.75050413  0.23612190  1
  P  P261  1  0.69615736  0.74983113  0.48376884  1
  P  P262  1  0.69819804  0.74901373  0.73510257  1
  P  P263  1  0.69810936  0.75056833  0.98492530  1
  P  P264  1  0.30530695  0.25103480  0.01352683  1
  P  P265  1  0.30324759  0.24893034  0.26576242  1
  P  P266  1  0.30415396  0.24979295  0.51425689  1
  P  P267  1  0.30425409  0.25063035  0.76376093  1
  P  P268  1  0.30517902  0.58269439  0.01343444  1
  P  P269  1  0.30429922  0.58370100  0.26613315  1
  P  P270  1  0.30337036  0.58317820  0.51374599  1
  P  P271  1  0.30243899  0.58224772  0.76478711  1
  P  P272  1  0.30596692  0.91615617  0.01476616  1
  P  P273  1  0.30496294  0.91733241  0.26381718  1
  P  P274  1  0.30355009  0.91719314  0.51451710  1
  P  P275  1  0.30235541  0.91705396  0.76544975  1
  P  P276  1  0.80311404  0.24916577  0.01486803  1
  P  P277  1  0.80284916  0.24987861  0.26554594  1
  P  P278  1  0.80320375  0.24990074  0.51569696  1
  P  P279  1  0.80448400  0.25065062  0.76355723  1
  P  P280  1  0.80306597  0.58370008  0.01499345  1
  P  P281  1  0.80287663  0.58283680  0.26577464  1
  P  P282  1  0.80391665  0.58222278  0.51513277  1
  P  P283  1  0.80249732  0.58245227  0.76457444  1
  P  P284  1  0.80392854  0.91713569  0.01586023  1
  P  P285  1  0.80282022  0.91725656  0.26423310  1
  P  P286  1  0.80341117  0.91769818  0.51461684  1
  P  P287  1  0.80328421  0.91666313  0.76466903  1
  O  O288  1  0.05935852  0.24939452  0.18799482  1
  O  O289  1  0.05961930  0.24955503  0.43824252  1
  O  O290  1  0.05937033  0.24998223  0.68747048  1
  O  O291  1  0.05730682  0.25006444  0.93561540  1
  O  O292  1  0.05705014  0.58382135  0.18645401  1
  O  O293  1  0.05959425  0.58302454  0.43843377  1
  O  O294  1  0.06018103  0.58280022  0.68785566  1
  O  O295  1  0.05736095  0.58295741  0.93600542  1
  O  O296  1  0.05639851  0.91710147  0.18620081  1
  O  O297  1  0.05644196  0.91700368  0.43669697  1
  O  O298  1  0.05905849  0.91701595  0.68825269  1
  O  O299  1  0.05705393  0.91685122  0.93611130  1
  O  O300  1  0.55527992  0.25012757  0.18699966  1
  O  O301  1  0.55794051  0.25037872  0.43884299  1
  O  O302  1  0.55618263  0.25078407  0.68613623  1
  O  O303  1  0.55534246  0.24994573  0.93637564  1
  O  O304  1  0.55548343  0.58345780  0.18645331  1
  O  O305  1  0.55500013  0.58321791  0.43729202  1
  O  O306  1  0.55896111  0.58312373  0.68803667  1
  O  O307  1  0.55553442  0.58370041  0.93574274  1
  O  O308  1  0.55751324  0.91662716  0.18797405  1
  O  O309  1  0.55665516  0.91668257  0.43662635  1
  O  O310  1  0.55631780  0.91683438  0.68658669  1
  O  O311  1  0.55519244  0.91625335  0.93691658  1
  O  O312  1  0.44384550  0.08352587  0.06452506  1
  O  O313  1  0.44101284  0.08381229  0.31284383  1
  O  O314  1  0.44162848  0.08379935  0.56158274  1
  O  O315  1  0.44440914  0.08383116  0.81274530  1
  O  O316  1  0.44224070  0.41640074  0.06226987  1
  O  O317  1  0.44312041  0.41652279  0.31433251  1
  O  O318  1  0.43987843  0.41656179  0.56248133  1
  O  O319  1  0.44079707  0.41702449  0.81137072  1
  O  O320  1  0.44062568  0.75001921  0.06287271  1
  O  O321  1  0.44131688  0.75004111  0.31315221  1
  O  O322  1  0.44037522  0.74984587  0.56205473  1
  O  O323  1  0.44328509  0.74975133  0.81302893  1
  O  O324  1  0.94175811  0.08345518  0.06247299  1
  O  O325  1  0.94378587  0.08381907  0.31410375  1
  O  O326  1  0.94038174  0.08394534  0.56251251  1
  O  O327  1  0.94001994  0.08362428  0.81253191  1
  O  O328  1  0.94394739  0.41611207  0.06359620  1
  O  O329  1  0.94396812  0.41631650  0.31441349  1
  O  O330  1  0.94142280  0.41611880  0.56274656  1
  O  O331  1  0.94209432  0.41684167  0.81207719  1
  O  O332  1  0.94125519  0.75028706  0.06233876  1
  O  O333  1  0.94458324  0.75013367  0.31358955  1
  O  O334  1  0.94396599  0.74940545  0.56385475  1
  O  O335  1  0.94074365  0.74935720  0.81252227  1
  O  O336  1  0.19176424  0.08300015  0.06263793  1
  O  O337  1  0.19193147  0.08312710  0.31198975  1
  O  O338  1  0.19333661  0.08370833  0.56123700  1
  O  O339  1  0.19416192  0.08379544  0.81190219  1
  O  O340  1  0.19427686  0.41629909  0.06060538  1
  O  O341  1  0.19228559  0.41625305  0.31320253  1
  O  O342  1  0.19168582  0.41585084  0.56304727  1
  O  O343  1  0.19235591  0.41613450  0.81202479  1
  O  O344  1  0.19508852  0.75028237  0.06180898  1
  O  O345  1  0.19224821  0.75064848  0.31240758  1
  O  O346  1  0.19158682  0.75026957  0.56225297  1
  O  O347  1  0.19397313  0.75007871  0.81144653  1
  O  O348  1  0.69049703  0.08330193  0.06215368  1
  O  O349  1  0.68956888  0.08368683  0.31264297  1
  O  O350  1  0.69129883  0.08433350  0.56257711  1
  O  O351  1  0.69018412  0.08361608  0.81249980  1
  O  O352  1  0.68984543  0.41626559  0.06154544  1
  O  O353  1  0.69222210  0.41635581  0.31131055  1
  O  O354  1  0.69172787  0.41585730  0.56326693  1
  O  O355  1  0.68983683  0.41645539  0.81232603  1
  O  O356  1  0.69350801  0.75056257  0.06160442  1
  O  O357  1  0.68957813  0.74964338  0.31285853  1
  O  O358  1  0.69333932  0.74964538  0.56063019  1
  O  O359  1  0.69423343  0.74987583  0.81179882  1
  O  O360  1  0.30677476  0.24954713  0.18897090  1
  O  O361  1  0.30846362  0.24971101  0.43751221  1
  O  O362  1  0.30875210  0.24964850  0.68705432  1
  O  O363  1  0.30953036  0.24999733  0.93672689  1
  O  O364  1  0.30713645  0.58272851  0.18925048  1
  O  O365  1  0.30773781  0.58324695  0.43706610  1
  O  O366  1  0.30569889  0.58269145  0.68804112  1
  O  O367  1  0.30863949  0.58273223  0.93663250  1
  O  O368  1  0.30877183  0.91756074  0.18703652  1
  O  O369  1  0.30663484  0.91722572  0.43773232  1
  O  O370  1  0.30618079  0.91735906  0.68871459  1
  O  O371  1  0.30971610  0.91739535  0.93788798  1
  O  O372  1  0.80632296  0.24963362  0.18876993  1
  O  O373  1  0.80660364  0.25003674  0.43894779  1
  O  O374  1  0.80848475  0.25086509  0.68683931  1
  O  O375  1  0.80623331  0.25000659  0.93805585  1
  O  O376  1  0.80601600  0.58307075  0.18896889  1
  O  O377  1  0.80725156  0.58262906  0.43835458  1
  O  O378  1  0.80632960  0.58215335  0.68788751  1
  O  O379  1  0.80636239  0.58270153  0.93819424  1
  O  O380  1  0.80810127  0.91742913  0.18761380  1
  O  O381  1  0.80597605  0.91714645  0.43777938  1
  O  O382  1  0.80584406  0.91687917  0.68783753  1
  O  O383  1  0.80660351  0.91714807  0.93902970  1
  O  O384  1  0.23536370  0.25048462  0.03787602  1
  O  O385  1  0.23321293  0.24947395  0.29028041  1
  O  O386  1  0.23372520  0.25008883  0.53802310  1
  O  O387  1  0.23387929  0.25039871  0.78750729  1
  O  O388  1  0.23550688  0.58290771  0.03887847  1
  O  O389  1  0.23461947  0.58343551  0.29117935  1
  O  O390  1  0.23302409  0.58272521  0.53766355  1
  O  O391  1  0.23236138  0.58296361  0.78935093  1
  O  O392  1  0.23598243  0.91656351  0.03928562  1
  O  O393  1  0.23507747  0.91731181  0.28844043  1
  O  O394  1  0.23384150  0.91705197  0.53961302  1
  O  O395  1  0.23228792  0.91672166  0.78991871  1
  O  O396  1  0.73339491  0.24948487  0.03992858  1
  O  O397  1  0.73306629  0.24988245  0.29036507  1
  O  O398  1  0.73319856  0.24993463  0.54070966  1
  O  O399  1  0.73446153  0.25031688  0.78803636  1
  O  O400  1  0.73329258  0.58375549  0.04002408  1
  O  O401  1  0.73315528  0.58251771  0.29086818  1
  O  O402  1  0.73410210  0.58264625  0.53996360  1
  O  O403  1  0.73250871  0.58287937  0.78956273  1
  O  O404  1  0.73424239  0.91697691  0.04123913  1
  O  O405  1  0.73239074  0.91724233  0.28758400  1
  O  O406  1  0.73384256  0.91736199  0.54025383  1
  O  O407  1  0.73379093  0.91660438  0.79062680  1
  O  O408  1  0.26685033  0.08375679  0.21148125  1
  O  O409  1  0.26763439  0.08409630  0.46041297  1
  O  O410  1  0.26638232  0.08367600  0.70945811  1
  O  O411  1  0.26612874  0.08351081  0.96179325  1
  O  O412  1  0.26610889  0.41567324  0.21178458  1
  O  O413  1  0.26624997  0.41593687  0.46248418  1
  O  O414  1  0.26644243  0.41630520  0.71099655  1
  O  O415  1  0.26799838  0.41673444  0.95934746  1
  O  O416  1  0.26797679  0.74995409  0.21260304  1
  O  O417  1  0.26659984  0.75029453  0.46188609  1
  O  O418  1  0.26572599  0.74963335  0.70884495  1
  O  O419  1  0.26880233  0.74995841  0.96039248  1
  O  O420  1  0.76402692  0.08348990  0.21197707  1
  O  O421  1  0.76609848  0.08428498  0.46189224  1
  O  O422  1  0.76585774  0.08364505  0.71273214  1
  O  O423  1  0.76617875  0.08293346  0.96221567  1
  O  O424  1  0.76525199  0.41655625  0.20948450  1
  O  O425  1  0.76728235  0.41555808  0.46297697  1
  O  O426  1  0.76569902  0.41680442  0.71248065  1
  O  O427  1  0.76436286  0.41643963  0.96091702  1
  O  O428  1  0.76453710  0.75020573  0.21246592  1
  O  O429  1  0.76588341  0.75003888  0.45861150  1
  O  O430  1  0.76825288  0.74916647  0.71030643  1
  O  O431  1  0.76831808  0.75055211  0.96104370  1
  O  O432  1  0.01687716  0.08310688  0.16313870  1
  O  O433  1  0.01805008  0.08365028  0.41509377  1
  O  O434  1  0.01445253  0.08394846  0.66328337  1
  O  O435  1  0.01478898  0.08376618  0.91285071  1
  O  O436  1  0.01727290  0.41651753  0.16530130  1
  O  O437  1  0.01839820  0.41592777  0.41508183  1
  O  O438  1  0.01694634  0.41633718  0.66230166  1
  O  O439  1  0.01804132  0.41628581  0.91208246  1
  O  O440  1  0.01547906  0.75076847  0.16342594  1
  O  O441  1  0.01935207  0.75012086  0.41435832  1
  O  O442  1  0.01815959  0.74950492  0.66458806  1
  O  O443  1  0.01518217  0.74998816  0.91324382  1
  O  O444  1  0.51713104  0.08377068  0.16597317  1
  O  O445  1  0.51624842  0.08318093  0.41282705  1
  O  O446  1  0.51703440  0.08497200  0.66184410  1
  O  O447  1  0.51768652  0.08326542  0.91473256  1
  O  O448  1  0.51690185  0.41632081  0.16328679  1
  O  O449  1  0.51487538  0.41670295  0.41685672  1
  O  O450  1  0.51544567  0.41589214  0.66243888  1
  O  O451  1  0.51583738  0.41659207  0.91178418  1
  O  O452  1  0.51427501  0.75000265  0.16392812  1
  O  O453  1  0.51598445  0.75012920  0.41381865  1
  O  O454  1  0.51521522  0.75015729  0.66267976  1
  O  O455  1  0.51537678  0.74984638  0.91584632  1
  O  O456  1  0.48359147  0.24946161  0.08424108  1
  O  O457  1  0.48240361  0.25037523  0.33853894  1
  O  O458  1  0.48275735  0.25001416  0.58485163  1
  O  O459  1  0.48193281  0.25033990  0.83469832  1
  O  O460  1  0.48316164  0.58256026  0.08431818  1
  O  O461  1  0.48099257  0.58298072  0.33584014  1
  O  O462  1  0.48441429  0.58254779  0.58750051  1
  O  O463  1  0.48189511  0.58303622  0.83433194  1
  O  O464  1  0.48266550  0.91749283  0.08743481  1
  O  O465  1  0.48429803  0.91684941  0.33473100  1
  O  O466  1  0.48374561  0.91725987  0.58430135  1
  O  O467  1  0.48157614  0.91717962  0.83513828  1
  O  O468  1  0.98535151  0.24935660  0.08653614  1
  O  O469  1  0.98607617  0.24971234  0.33678887  1
  O  O470  1  0.98409588  0.25032894  0.58736869  1
  O  O471  1  0.98477255  0.25043540  0.83369220  1
  O  O472  1  0.98393754  0.58325413  0.08448698  1
  O  O473  1  0.98596450  0.58337353  0.33669731  1
  O  O474  1  0.98646219  0.58269938  0.58675886  1
  O  O475  1  0.98496185  0.58273853  0.83374177  1
  O  O476  1  0.98228287  0.91733914  0.08482318  1
  O  O477  1  0.98436898  0.91729962  0.33402204  1
  O  O478  1  0.98496622  0.91647815  0.58718892  1
  O  O479  1  0.98402718  0.91663873  0.83451318  1
  O  O480  1  0.08917247  0.31370649  0.07796881  1
  O  O481  1  0.08996075  0.31475192  0.32861217  1
  O  O482  1  0.08796392  0.31579497  0.57757326  1
  O  O483  1  0.08880763  0.31577945  0.82655550  1
  O  O484  1  0.08744354  0.64893185  0.07704885  1
  O  O485  1  0.08966321  0.64815860  0.32870903  1
  O  O486  1  0.09016372  0.64812930  0.57814039  1
  O  O487  1  0.08923152  0.64724228  0.82691493  1
  O  O488  1  0.08613962  0.98289000  0.07706815  1
  O  O489  1  0.08816848  0.98253708  0.32799371  1
  O  O490  1  0.08854783  0.98113262  0.57806667  1
  O  O491  1  0.08785907  0.98181713  0.82657237  1
  O  O492  1  0.58716370  0.31475782  0.07765885  1
  O  O493  1  0.58617331  0.31487654  0.32866340  1
  O  O494  1  0.58649746  0.31590716  0.57665463  1
  O  O495  1  0.58592067  0.31494807  0.82687882  1
  O  O496  1  0.58659894  0.64781909  0.07686481  1
  O  O497  1  0.58439227  0.64904155  0.32780125  1
  O  O498  1  0.58816345  0.64705436  0.57783528  1
  O  O499  1  0.58615235  0.64801004  0.82621735  1
  O  O500  1  0.58619457  0.98295819  0.07846691  1
  O  O501  1  0.58844438  0.98162709  0.32764267  1
  O  O502  1  0.58726157  0.98302928  0.57780110  1
  O  O503  1  0.58577134  0.98206612  0.82794949  1
  O  O504  1  0.41331890  0.01785832  0.17387281  1
  O  O505  1  0.41206753  0.01923463  0.42302150  1
  O  O506  1  0.41363844  0.01969041  0.67217078  1
  O  O507  1  0.41353071  0.01872735  0.92196302  1
  O  O508  1  0.41336389  0.35120938  0.17231344  1
  O  O509  1  0.41065390  0.35178306  0.42329706  1
  O  O510  1  0.41186796  0.35008402  0.67204686  1
  O  O511  1  0.41196316  0.35185624  0.92145653  1
  O  O512  1  0.40992003  0.68642172  0.17294804  1
  O  O513  1  0.41237751  0.68409232  0.42304331  1
  O  O514  1  0.41176679  0.68490009  0.67202435  1
  O  O515  1  0.41150318  0.68441445  0.92184595  1
  O  O516  1  0.91337011  0.01737068  0.17225793  1
  O  O517  1  0.91388627  0.01843041  0.42347256  1
  O  O518  1  0.91032827  0.01978216  0.67265837  1
  O  O519  1  0.91101658  0.01880350  0.92266088  1
  O  O520  1  0.91373871  0.35112583  0.17312148  1
  O  O521  1  0.91406548  0.35148270  0.42409918  1
  O  O522  1  0.91316962  0.35062227  0.67290069  1
  O  O523  1  0.91423258  0.35159601  0.92224843  1
  O  O524  1  0.91175129  0.68617703  0.17256064  1
  O  O525  1  0.91552834  0.68513302  0.42333647  1
  O  O526  1  0.91419753  0.68444684  0.67358352  1
  O  O527  1  0.91167281  0.68435949  0.92249896  1
  O  O528  1  0.16267039  0.01955931  0.20141905  1
  O  O529  1  0.16356142  0.01950140  0.45120638  1
  O  O530  1  0.16254070  0.01847084  0.70298855  1
  O  O531  1  0.16263487  0.01813379  0.95278178  1
  O  O532  1  0.16277912  0.35006577  0.20384683  1
  O  O533  1  0.16244202  0.35094705  0.45303609  1
  O  O534  1  0.16256634  0.35120062  0.70196517  1
  O  O535  1  0.16400200  0.35171912  0.95076770  1
  O  O536  1  0.16431323  0.68511914  0.20240878  1
  O  O537  1  0.16321431  0.68421000  0.45248567  1
  O  O538  1  0.16166590  0.68494474  0.70249327  1
  O  O539  1  0.16485774  0.68511586  0.95242104  1
  O  O540  1  0.66058043  0.01755470  0.20271707  1
  O  O541  1  0.66175610  0.02031834  0.45229903  1
  O  O542  1  0.66211949  0.01836650  0.70229747  1
  O  O543  1  0.66230742  0.01802736  0.95205278  1
  O  O544  1  0.66126015  0.35151587  0.20186807  1
  O  O545  1  0.66370655  0.34997784  0.45347699  1
  O  O546  1  0.66158322  0.35265566  0.70170898  1
  O  O547  1  0.66049193  0.35156566  0.95136565  1
  O  O548  1  0.66087361  0.68550842  0.20266267  1
  O  O549  1  0.66170466  0.68482432  0.45141526  1
  O  O550  1  0.66424738  0.68388519  0.70269919  1
  O  O551  1  0.66439425  0.68560024  0.95183195  1
  O  O552  1  0.33848959  0.31653585  0.04613800  1
  O  O553  1  0.33749405  0.31372610  0.29877911  1
  O  O554  1  0.33767150  0.31478379  0.54756905  1
  O  O555  1  0.33760568  0.31592647  0.79658570  1
  O  O556  1  0.33909094  0.64783600  0.04606134  1
  O  O557  1  0.33846648  0.64888762  0.29825383  1
  O  O558  1  0.33639768  0.64837116  0.54705727  1
  O  O559  1  0.33687607  0.64694924  0.79757697  1
  O  O560  1  0.33996959  0.98104664  0.04809584  1
  O  O561  1  0.33858569  0.98248905  0.29671122  1
  O  O562  1  0.33734770  0.98256811  0.54692914  1
  O  O563  1  0.33624653  0.98204800  0.79839751  1
  O  O564  1  0.83737746  0.31414561  0.04742880  1
  O  O565  1  0.83693819  0.31492779  0.29804936  1
  O  O566  1  0.83756608  0.31478033  0.54850502  1
  O  O567  1  0.83780571  0.31598821  0.79668614  1
  O  O568  1  0.83711118  0.64894369  0.04712429  1
  O  O569  1  0.83690540  0.64801569  0.29826677  1
  O  O570  1  0.83811094  0.64738564  0.54752307  1
  O  O571  1  0.83682001  0.64744643  0.79683655  1
  O  O572  1  0.83806972  0.98242141  0.04823163  1
  O  O573  1  0.83598850  0.98229749  0.29780591  1
  O  O574  1  0.83746242  0.98296428  0.54660657  1
  O  O575  1  0.83738740  0.98187947  0.79696310  1
  O  O576  1  0.41266521  0.14773293  0.17405592  1
  O  O577  1  0.41272569  0.14917994  0.42311303  1
  O  O578  1  0.41317211  0.14977047  0.67128440  1
  O  O579  1  0.41410340  0.14891304  0.92214230  1
  O  O580  1  0.41309416  0.48114679  0.17227580  1
  O  O581  1  0.41088838  0.48189417  0.42337003  1
  O  O582  1  0.41134725  0.48015092  0.67309649  1
  O  O583  1  0.41232682  0.48208914  0.92159405  1
  O  O584  1  0.41118317  0.81652084  0.17248345  1
  O  O585  1  0.41176065  0.81419749  0.42318870  1
  O  O586  1  0.41156344  0.81510182  0.67184177  1
  O  O587  1  0.41133511  0.81478004  0.92200039  1
  O  O588  1  0.91315827  0.14754668  0.17293910  1
  O  O589  1  0.91375501  0.14838177  0.42382486  1
  O  O590  1  0.91105431  0.14993904  0.67215751  1
  O  O591  1  0.91115593  0.14880618  0.92266184  1
  O  O592  1  0.91347890  0.48144154  0.17285634  1
  O  O593  1  0.91459727  0.48148813  0.42420320  1
  O  O594  1  0.91288857  0.48057381  0.67324438  1
  O  O595  1  0.91443037  0.48157397  0.92234574  1
  O  O596  1  0.91203350  0.81657618  0.17180322  1
  O  O597  1  0.91548686  0.81533032  0.42306722  1
  O  O598  1  0.91387745  0.81439256  0.67339568  1
  O  O599  1  0.91109422  0.81444360  0.92235986  1
  O  O600  1  0.08866097  0.18346519  0.07837929  1
  O  O601  1  0.08979921  0.18450468  0.32841438  1
  O  O602  1  0.08816402  0.18588414  0.57706806  1
  O  O603  1  0.08883909  0.18580579  0.82608320  1
  O  O604  1  0.08805678  0.51869320  0.07744269  1
  O  O605  1  0.08918930  0.51753763  0.32901280  1
  O  O606  1  0.09034616  0.51783446  0.57804139  1
  O  O607  1  0.08883166  0.51716099  0.82691607  1
  O  O608  1  0.08624362  0.85264850  0.07662105  1
  O  O609  1  0.08824208  0.85213363  0.32748075  1
  O  O610  1  0.08842775  0.85086156  0.57878022  1
  O  O611  1  0.08823478  0.85180989  0.82704058  1
  O  O612  1  0.58736855  0.18439460  0.07833054  1
  O  O613  1  0.58587142  0.18470880  0.32892821  1
  O  O614  1  0.58745009  0.18592742  0.57685682  1
  O  O615  1  0.58573181  0.18477625  0.82715858  1
  O  O616  1  0.58696750  0.51746637  0.07765867  1
  O  O617  1  0.58516462  0.51880247  0.32796930  1
  O  O618  1  0.58761194  0.51664785  0.57842452  1
  O  O619  1  0.58613557  0.51795834  0.82652415  1
  O  O620  1  0.58611653  0.85271326  0.07734330  1
  O  O621  1  0.58791771  0.85134634  0.32734927  1
  O  O622  1  0.58768875  0.85263070  0.57737877  1
  O  O623  1  0.58528158  0.85183608  0.82726981  1
  O  O624  1  0.33896218  0.18610340  0.04694551  1
  O  O625  1  0.33700785  0.18373175  0.29832278  1
  O  O626  1  0.33748563  0.18469728  0.54759261  1
  O  O627  1  0.33788219  0.18591865  0.79766067  1
  O  O628  1  0.33873447  0.51729220  0.04615568  1
  O  O629  1  0.33860901  0.51874745  0.29874134  1
  O  O630  1  0.33669869  0.51806685  0.54705467  1
  O  O631  1  0.33620648  0.51706903  0.79729921  1
  O  O632  1  0.33960973  0.85082638  0.04700781  1
  O  O633  1  0.33862913  0.85216458  0.29673260  1
  O  O634  1  0.33757820  0.85206122  0.54687791  1
  O  O635  1  0.33659934  0.85210824  0.79795279  1
  O  O636  1  0.83694582  0.18379474  0.04715813  1
  O  O637  1  0.83687434  0.18485968  0.29826499  1
  O  O638  1  0.83728029  0.18475163  0.54813325  1
  O  O639  1  0.83812532  0.18549933  0.79634406  1
  O  O640  1  0.83691626  0.51849221  0.04766182  1
  O  O641  1  0.83728813  0.51784867  0.29799127  1
  O  O642  1  0.83778699  0.51704744  0.54763211  1
  O  O643  1  0.83607287  0.51714361  0.79754456  1
  O  O644  1  0.83845623  0.85218107  0.04812518  1
  O  O645  1  0.83611285  0.85219287  0.29772394  1
  O  O646  1  0.83787039  0.85261624  0.54684545  1
  O  O647  1  0.83769738  0.85143798  0.79642722  1
  O  O648  1  0.16324478  0.14964646  0.20255671  1
  O  O649  1  0.16364019  0.14949079  0.45200204  1
  O  O650  1  0.16264693  0.14876852  0.70265137  1
  O  O651  1  0.16244134  0.14822181  0.95276774  1
  O  O652  1  0.16270922  0.48048472  0.20307455  1
  O  O653  1  0.16246475  0.48102997  0.45296769  1
  O  O654  1  0.16252940  0.48132327  0.70231325  1
  O  O655  1  0.16377708  0.48156944  0.95126919  1
  O  O656  1  0.16453953  0.81528815  0.20193656  1
  O  O657  1  0.16254657  0.81438829  0.45181107  1
  O  O658  1  0.16196212  0.81522910  0.70235067  1
  O  O659  1  0.16495136  0.81507608  0.95233780  1
  O  O660  1  0.65991535  0.14758769  0.20244060  1
  O  O661  1  0.66249167  0.15035414  0.45291763  1
  O  O662  1  0.66205788  0.14841418  0.70206001  1
  O  O663  1  0.66239062  0.14795340  0.95159549  1
  O  O664  1  0.66108991  0.48150970  0.20205527  1
  O  O665  1  0.66337124  0.48003938  0.45285707  1
  O  O666  1  0.66206344  0.48269881  0.70249499  1
  O  O667  1  0.66041677  0.48151451  0.95167670  1
  O  O668  1  0.66122056  0.81588240  0.20301398  1
  O  O669  1  0.66160942  0.81483123  0.45171509  1
  O  O670  1  0.66432447  0.81409650  0.70217484  1
  O  O671  1  0.66454666  0.81563632  0.95186629  1
