# generated using pymatgen
data_Na2MnFe(PO4)2
_symmetry_space_group_name_H-M   'P 1'
_cell_length_a   21.07794061
_cell_length_b   18.92973659
_cell_length_c   20.03765538
_cell_angle_alpha   90.00032324
_cell_angle_beta   89.99768175
_cell_angle_gamma   89.99970978
_symmetry_Int_Tables_number   1
_chemical_formula_structural   Na2MnFe(PO4)2
_chemical_formula_sum   'Na96 Mn48 Fe48 P96 O384'
_cell_volume   7995.02175914
_cell_formula_units_Z   48
loop_
 _symmetry_equiv_pos_site_id
 _symmetry_equiv_pos_as_xyz
  1  'x, y, z'
loop_
 _atom_site_type_symbol
 _atom_site_label
 _atom_site_symmetry_multiplicity
 _atom_site_fract_x
 _atom_site_fract_y
 _atom_site_fract_z
 _atom_site_occupancy
  Na  Na0  1  -0.00219893  -0.00037617  0.00054215  1
  Na  Na1  1  -0.00055674  0.00012473  0.25071742  1
  Na  Na2  1  0.00230901  0.00083267  0.49943665  1
  Na  Na3  1  0.00181529  0.00123352  0.74930411  1
  Na  Na4  1  -0.00100981  0.33347016  0.00116957  1
  Na  Na5  1  -0.00116573  0.33296404  0.25024108  1
  Na  Na6  1  0.00157324  0.33323631  0.49906179  1
  Na  Na7  1  0.00143114  0.33400979  0.74944940  1
  Na  Na8  1  -0.00063267  0.66631333  -0.00117897  1
  Na  Na9  1  -0.00070276  0.66652630  0.25100836  1
  Na  Na10  1  0.00024171  0.66654331  0.50021195  1
  Na  Na11  1  -0.00044076  0.66579194  0.75058182  1
  Na  Na12  1  0.50109266  0.00091822  -0.00049593  1
  Na  Na13  1  0.50103605  0.00082113  0.25052429  1
  Na  Na14  1  0.49753852  -0.00062648  0.50033737  1
  Na  Na15  1  0.49861402  0.00052330  0.74934191  1
  Na  Na16  1  0.49734907  0.33234554  -0.00071281  1
  Na  Na17  1  0.50021243  0.33354072  0.24998443  1
  Na  Na18  1  0.50002192  0.33411770  0.50055929  1
  Na  Na19  1  0.49769973  0.33354742  0.74991417  1
  Na  Na20  1  0.49938132  0.66603794  0.00023298  1
  Na  Na21  1  0.50141136  0.66682077  0.24973309  1
  Na  Na22  1  0.49988976  0.66647276  0.49944367  1
  Na  Na23  1  0.49853943  0.66654312  0.75066820  1
  Na  Na24  1  0.24901669  -0.00035657  0.12475797  1
  Na  Na25  1  0.24919252  -0.00004037  0.37519577  1
  Na  Na26  1  0.25146960  0.00073508  0.62525690  1
  Na  Na27  1  0.25057841  -0.00022989  0.87417370  1
  Na  Na28  1  0.24982963  0.33302004  0.12400266  1
  Na  Na29  1  0.24953020  0.33283773  0.37501717  1
  Na  Na30  1  0.25042383  0.33367291  0.62624402  1
  Na  Na31  1  0.25112425  0.33352921  0.87474504  1
  Na  Na32  1  0.24955172  0.66636462  0.12406843  1
  Na  Na33  1  0.25187366  0.66740778  0.37604435  1
  Na  Na34  1  0.25231726  0.66701581  0.62492699  1
  Na  Na35  1  0.25075752  0.66632481  0.87489976  1
  Na  Na36  1  0.75040491  0.00098411  0.12471700  1
  Na  Na37  1  0.75090589  0.00130915  0.37580457  1
  Na  Na38  1  0.74854515  0.00025963  0.62571284  1
  Na  Na39  1  0.74955909  0.00080913  0.87434954  1
  Na  Na40  1  0.75248286  0.33422906  0.12519767  1
  Na  Na41  1  0.75086902  0.33400557  0.37679648  1
  Na  Na42  1  0.74915650  0.33319467  0.62386081  1
  Na  Na43  1  0.75146031  0.33406490  0.87438597  1
  Na  Na44  1  0.75021363  0.66614858  0.12491962  1
  Na  Na45  1  0.74800429  0.66612575  0.37560354  1
  Na  Na46  1  0.74926633  0.66640233  0.62516102  1
  Na  Na47  1  0.75195266  0.66654354  0.87408995  1
  Na  Na48  1  -0.00291346  0.16765824  0.00133618  1
  Na  Na49  1  -0.00005302  0.16623487  0.25023037  1
  Na  Na50  1  0.00213672  0.16612876  0.49958237  1
  Na  Na51  1  0.00004319  0.16694230  0.74938615  1
  Na  Na52  1  -0.00066146  0.50065137  0.00001369  1
  Na  Na53  1  -0.00171691  0.50069104  0.24976541  1
  Na  Na54  1  0.00077011  0.49990133  0.49978929  1
  Na  Na55  1  0.00142349  0.50009387  0.75017160  1
  Na  Na56  1  0.00046286  0.83183099  -0.00087393  1
  Na  Na57  1  -0.00065367  0.83343498  0.25184150  1
  Na  Na58  1  0.00212211  0.83245759  0.49966077  1
  Na  Na59  1  0.00015944  0.83349374  0.74966007  1
  Na  Na60  1  0.50074190  0.16615201  -0.00079031  1
  Na  Na61  1  0.50037919  0.16713782  0.25063843  1
  Na  Na62  1  0.49787575  0.16721924  0.50055104  1
  Na  Na63  1  0.49799823  0.16688320  0.74930712  1
  Na  Na64  1  0.50128562  0.49960692  -0.00000847  1
  Na  Na65  1  0.50241615  0.49974682  0.25000799  1
  Na  Na66  1  0.50069675  0.49985791  0.50033598  1
  Na  Na67  1  0.49812469  0.50120721  0.75019190  1
  Na  Na68  1  0.49702211  0.83331174  0.00016241  1
  Na  Na69  1  0.49881928  0.83285701  0.24929745  1
  Na  Na70  1  0.50001281  0.83186227  0.49972341  1
  Na  Na71  1  0.49624879  0.83377186  0.75002055  1
  Na  Na72  1  0.24951465  0.16729728  0.12496021  1
  Na  Na73  1  0.24917360  0.16693702  0.37492385  1
  Na  Na74  1  0.25129721  0.16629667  0.62532327  1
  Na  Na75  1  0.25231717  0.16635494  0.87457348  1
  Na  Na76  1  0.24819003  0.50064252  0.12419931  1
  Na  Na77  1  0.25157192  0.49921278  0.37583444  1
  Na  Na78  1  0.25194069  0.49933712  0.62596399  1
  Na  Na79  1  0.24828119  0.50077635  0.87405265  1
  Na  Na80  1  0.25072717  0.83235918  0.12367356  1
  Na  Na81  1  0.25097535  0.83227299  0.37547167  1
  Na  Na82  1  0.25057034  0.83336539  0.62537248  1
  Na  Na83  1  0.25295442  0.83192181  0.87478967  1
  Na  Na84  1  0.75119893  0.16639892  0.12391737  1
  Na  Na85  1  0.75211282  0.16568388  0.37634454  1
  Na  Na86  1  0.74931267  0.16659949  0.62511147  1
  Na  Na87  1  0.75044458  0.16614451  0.87462236  1
  Na  Na88  1  0.75181786  0.49989431  0.12551530  1
  Na  Na89  1  0.74781273  0.50077572  0.37558684  1
  Na  Na90  1  0.74844820  0.50068734  0.62520733  1
  Na  Na91  1  0.75205993  0.50029130  0.87370116  1
  Na  Na92  1  0.75039167  0.83272463  0.12533597  1
  Na  Na93  1  0.74933877  0.83292616  0.37636564  1
  Na  Na94  1  0.74953576  0.83258226  0.62431217  1
  Na  Na95  1  0.75024064  0.83254841  0.87458434  1
  Mn  Mn96  1  0.10831604  0.41640908  0.37272903  1
  Mn  Mn97  1  0.60771234  0.08349196  0.37319702  1
  Mn  Mn98  1  0.89173352  0.91719001  0.87692034  1
  Mn  Mn99  1  0.39155970  0.25057832  0.37728940  1
  Mn  Mn100  1  0.14201150  0.91606717  0.24724629  1
  Mn  Mn101  1  0.60908971  0.41568585  0.12229727  1
  Mn  Mn102  1  0.64085283  0.91592955  0.74758766  1
  Mn  Mn103  1  0.10729601  0.08422165  0.87338248  1
  Mn  Mn104  1  0.35717760  0.41725588  0.00214004  1
  Mn  Mn105  1  0.14207345  0.91649112  0.99745114  1
  Mn  Mn106  1  0.39178659  0.91663900  0.37722829  1
  Mn  Mn107  1  0.64250287  0.25120654  0.99740138  1
  Mn  Mn108  1  0.85821221  0.75005427  0.00259535  1
  Mn  Mn109  1  0.60792426  0.75053677  0.12260275  1
  Mn  Mn110  1  0.85864375  0.41687857  0.75141333  1
  Mn  Mn111  1  0.14287983  0.25002108  0.74821465  1
  Mn  Mn112  1  0.85783130  0.08278116  0.75151914  1
  Mn  Mn113  1  0.64144647  0.25036679  0.74784194  1
  Mn  Mn114  1  0.35874045  0.08300447  0.00272706  1
  Mn  Mn115  1  0.35799018  0.41714780  0.25183684  1
  Mn  Mn116  1  0.89356482  0.25050653  0.62696353  1
  Mn  Mn117  1  0.89324469  0.91621333  0.62692390  1
  Mn  Mn118  1  0.14332150  0.91622051  0.74769304  1
  Mn  Mn119  1  0.39333155  0.58292690  0.37663799  1
  Mn  Mn120  1  0.85708648  0.75023707  0.50302057  1
  Mn  Mn121  1  0.14199787  0.25010672  0.99737531  1
  Mn  Mn122  1  0.39219486  0.91767107  0.12765656  1
  Mn  Mn123  1  0.85730147  0.41680221  0.50286829  1
  Mn  Mn124  1  0.60768608  0.41633277  0.87271302  1
  Mn  Mn125  1  0.60661541  0.75033376  0.87286407  1
  Mn  Mn126  1  0.64209340  0.58347992  0.74816715  1
  Mn  Mn127  1  0.89127872  0.58298308  0.37802998  1
  Mn  Mn128  1  0.64174535  0.91594822  0.99711356  1
  Mn  Mn129  1  0.14349026  0.58329683  0.49839376  1
  Mn  Mn130  1  0.64313520  0.25008410  0.24810190  1
  Mn  Mn131  1  0.64263827  0.91688720  0.24775992  1
  Mn  Mn132  1  0.89151571  0.25040175  0.12831837  1
  Mn  Mn133  1  0.35761669  0.08296439  0.25205264  1
  Mn  Mn134  1  0.89241087  0.91730331  0.37812999  1
  Mn  Mn135  1  0.64167169  0.25008803  0.49804592  1
  Mn  Mn136  1  0.39228526  0.58219671  0.12727923  1
  Mn  Mn137  1  0.10677363  0.41769090  0.12287907  1
  Mn  Mn138  1  0.10868224  0.74986520  0.37286299  1
  Mn  Mn139  1  0.89153494  0.91535890  0.12773045  1
  Mn  Mn140  1  0.10700097  0.08243396  0.12243848  1
  Mn  Mn141  1  0.14204117  0.58320604  0.24771792  1
  Mn  Mn142  1  0.10802955  0.74983214  0.87197298  1
  Mn  Mn143  1  0.64103024  0.91655000  0.49824473  1
  Fe  Fe144  1  0.35727899  0.74953461  0.25111994  1
  Fe  Fe145  1  0.85705628  0.41669796  0.25289978  1
  Fe  Fe146  1  0.85724756  0.75006244  0.25208399  1
  Fe  Fe147  1  0.35822554  0.75004632  0.50228268  1
  Fe  Fe148  1  0.60603210  0.41686741  0.62400704  1
  Fe  Fe149  1  0.89357392  0.58255206  0.87672744  1
  Fe  Fe150  1  0.64385452  0.58327482  0.24794629  1
  Fe  Fe151  1  0.60676408  0.08337435  0.87297835  1
  Fe  Fe152  1  0.39188066  0.91641064  0.62641538  1
  Fe  Fe153  1  0.89323311  0.58341340  0.62651646  1
  Fe  Fe154  1  0.14327679  0.58349232  0.74783531  1
  Fe  Fe155  1  0.10753633  0.08368165  0.37323025  1
  Fe  Fe156  1  0.60736788  0.41662140  0.37322431  1
  Fe  Fe157  1  0.35663352  0.08353024  0.50168863  1
  Fe  Fe158  1  0.39269875  0.25001188  0.87696110  1
  Fe  Fe159  1  0.89253334  0.58418417  0.12682108  1
  Fe  Fe160  1  0.10818403  0.74976017  0.62368437  1
  Fe  Fe161  1  0.85645487  0.08345576  0.00130133  1
  Fe  Fe162  1  0.39194079  0.58319102  0.87758408  1
  Fe  Fe163  1  0.39190013  0.25035082  0.62646497  1
  Fe  Fe164  1  0.60688183  0.74983808  0.37275634  1
  Fe  Fe165  1  0.60823090  0.08387364  0.12351661  1
  Fe  Fe166  1  0.10689551  0.41627066  0.87374931  1
  Fe  Fe167  1  0.85749469  0.08334666  0.25241782  1
  Fe  Fe168  1  0.14368135  0.24982045  0.49852567  1
  Fe  Fe169  1  0.85803242  0.08319568  0.50251637  1
  Fe  Fe170  1  0.10911053  0.08334364  0.62265417  1
  Fe  Fe171  1  0.10722215  0.74969928  0.12375250  1
  Fe  Fe172  1  0.14246095  0.25020508  0.24813581  1
  Fe  Fe173  1  0.64146451  0.58347623  0.49923668  1
  Fe  Fe174  1  0.39288836  0.58315825  0.62676968  1
  Fe  Fe175  1  0.35752809  0.74936326  0.75164005  1
  Fe  Fe176  1  0.35653937  0.74918764  0.00197228  1
  Fe  Fe177  1  0.60550397  0.08341513  0.62317950  1
  Fe  Fe178  1  0.10865500  0.41697836  0.62308007  1
  Fe  Fe179  1  0.39289330  0.24977028  0.12669650  1
  Fe  Fe180  1  0.89354050  0.24963554  0.37688531  1
  Fe  Fe181  1  0.85764558  0.75032597  0.75041123  1
  Fe  Fe182  1  0.85818480  0.41678291  0.00109608  1
  Fe  Fe183  1  0.35769485  0.08329590  0.75189636  1
  Fe  Fe184  1  0.89233503  0.25065323  0.87608239  1
  Fe  Fe185  1  0.64381377  0.58316000  0.99818062  1
  Fe  Fe186  1  0.14385881  0.91692249  0.49923350  1
  Fe  Fe187  1  0.39242961  0.91695977  0.87712837  1
  Fe  Fe188  1  0.35825596  0.41638965  0.50228889  1
  Fe  Fe189  1  0.35715404  0.41708266  0.75227537  1
  Fe  Fe190  1  0.60622981  0.74991419  0.62395196  1
  Fe  Fe191  1  0.14176874  0.58349284  0.99808997  1
  P  P192  1  0.05396675  0.25018534  0.11129767  1
  P  P193  1  0.05478798  0.24920185  0.36068871  1
  P  P194  1  0.05542101  0.25022353  0.60929409  1
  P  P195  1  0.05179102  0.25092026  0.86016775  1
  P  P196  1  0.05237332  0.58464721  0.10950736  1
  P  P197  1  0.05338245  0.58310243  0.36020166  1
  P  P198  1  0.05427943  0.58367225  0.61130190  1
  P  P199  1  0.05469591  0.58233173  0.86037571  1
  P  P200  1  0.05265460  0.91504931  0.10997604  1
  P  P201  1  0.05543090  0.91760467  0.36172645  1
  P  P202  1  0.05517309  0.91633215  0.60940695  1
  P  P203  1  0.05314558  0.91706835  0.85945376  1
  P  P204  1  0.55276341  0.24943431  0.10972481  1
  P  P205  1  0.55314414  0.25096282  0.36022002  1
  P  P206  1  0.55137597  0.25021307  0.61055292  1
  P  P207  1  0.55183427  0.24973350  0.85975308  1
  P  P208  1  0.55581718  0.58307534  0.11018714  1
  P  P209  1  0.55589702  0.58326332  0.36067915  1
  P  P210  1  0.55228317  0.58355507  0.61039021  1
  P  P211  1  0.55291817  0.58338794  0.86135274  1
  P  P212  1  0.55339870  0.91747976  0.10984192  1
  P  P213  1  0.55299271  0.91570768  0.35991517  1
  P  P214  1  0.55095859  0.91644308  0.61040268  1
  P  P215  1  0.55122263  0.91681746  0.85981262  1
  P  P216  1  0.44847925  0.08452700  0.14029092  1
  P  P217  1  0.44561425  0.08361239  0.39094166  1
  P  P218  1  0.44460566  0.08344642  0.63880472  1
  P  P219  1  0.44625145  0.08338526  0.88852339  1
  P  P220  1  0.44726996  0.41586927  0.13983936  1
  P  P221  1  0.44746224  0.41700923  0.39066692  1
  P  P222  1  0.44532377  0.41697618  0.63947478  1
  P  P223  1  0.44501878  0.41720661  0.88883315  1
  P  P224  1  0.44481717  0.74926652  0.13946494  1
  P  P225  1  0.44598443  0.74951007  0.38916937  1
  P  P226  1  0.44555532  0.74954157  0.63926832  1
  P  P227  1  0.44379067  0.74951732  0.88955179  1
  P  P228  1  0.94429610  0.08296658  0.14003304  1
  P  P229  1  0.94622841  0.08437072  0.38982084  1
  P  P230  1  0.94805417  0.08323309  0.63844076  1
  P  P231  1  0.94569164  0.08456538  0.89050882  1
  P  P232  1  0.94423286  0.41806394  0.13973498  1
  P  P233  1  0.94546524  0.41581341  0.38926109  1
  P  P234  1  0.94890404  0.41746082  0.63942261  1
  P  P235  1  0.94732102  0.41679687  0.89003900  1
  P  P236  1  0.94727742  0.74886266  0.14103239  1
  P  P237  1  0.94546534  0.74989011  0.38984036  1
  P  P238  1  0.94796733  0.74925201  0.64020658  1
  P  P239  1  0.94543229  0.74918700  0.88814415  1
  P  P240  1  0.19520490  0.08410411  0.23585815  1
  P  P241  1  0.19630548  0.08347847  0.48594131  1
  P  P242  1  0.19776951  0.08355272  0.73488562  1
  P  P243  1  0.19724422  0.08343781  0.98450398  1
  P  P244  1  0.19669060  0.41590158  0.23458908  1
  P  P245  1  0.19747919  0.41603143  0.48666593  1
  P  P246  1  0.19602419  0.41735183  0.73622881  1
  P  P247  1  0.19534473  0.41739106  0.98399902  1
  P  P248  1  0.19753947  0.74961354  0.23400477  1
  P  P249  1  0.19742655  0.75052722  0.48686697  1
  P  P250  1  0.19790021  0.74888279  0.73462706  1
  P  P251  1  0.19610272  0.74914199  0.98561029  1
  P  P252  1  0.69791052  0.08397123  0.23476233  1
  P  P253  1  0.69607785  0.08335692  0.48663666  1
  P  P254  1  0.69394229  0.08341994  0.73507536  1
  P  P255  1  0.69549740  0.08381104  0.98498801  1
  P  P256  1  0.69723293  0.41697250  0.23650139  1
  P  P257  1  0.69381599  0.41770214  0.48630516  1
  P  P258  1  0.69616905  0.41673875  0.73397381  1
  P  P259  1  0.69877391  0.41780529  0.98450492  1
  P  P260  1  0.69681751  0.74939476  0.23633582  1
  P  P261  1  0.69362589  0.74899787  0.48612390  1
  P  P262  1  0.69672310  0.74964429  0.73430717  1
  P  P263  1  0.69690720  0.74862750  0.98456665  1
  P  P264  1  0.30524732  0.24998249  0.01462411  1
  P  P265  1  0.30315739  0.25002833  0.26389923  1
  P  P266  1  0.30291244  0.25012762  0.51561690  1
  P  P267  1  0.30578946  0.25026132  0.76423708  1
  P  P268  1  0.30269872  0.58359549  0.01375135  1
  P  P269  1  0.30317183  0.58396668  0.26511844  1
  P  P270  1  0.30513854  0.58298512  0.51559463  1
  P  P271  1  0.30453532  0.58324191  0.76411008  1
  P  P272  1  0.30462092  0.91593166  0.01382931  1
  P  P273  1  0.30305644  0.91558597  0.26493229  1
  P  P274  1  0.30319406  0.91675899  0.51541870  1
  P  P275  1  0.30593594  0.91645535  0.76406669  1
  P  P276  1  0.80493401  0.25040175  0.01335500  1
  P  P277  1  0.80421280  0.24995995  0.26646925  1
  P  P278  1  0.80481692  0.24910625  0.51433460  1
  P  P279  1  0.80390113  0.25005150  0.76500737  1
  P  P280  1  0.80485197  0.58242192  0.01422401  1
  P  P281  1  0.80372306  0.58367121  0.26430308  1
  P  P282  1  0.80202434  0.58331584  0.51610300  1
  P  P283  1  0.80594121  0.58423358  0.76379931  1
  P  P284  1  0.80282053  0.91750399  0.01488132  1
  P  P285  1  0.80341366  0.91663434  0.26569647  1
  P  P286  1  0.80303156  0.91770385  0.51570045  1
  P  P287  1  0.80282650  0.91572880  0.76441563  1
  O  O288  1  0.05828074  0.25016270  0.18806301  1
  O  O289  1  0.05990038  0.24998983  0.43738772  1
  O  O290  1  0.05785471  0.25005366  0.68615819  1
  O  O291  1  0.05518509  0.25017010  0.93688975  1
  O  O292  1  0.05596727  0.58374128  0.18624694  1
  O  O293  1  0.05756120  0.58317035  0.43696732  1
  O  O294  1  0.05888929  0.58364432  0.68802841  1
  O  O295  1  0.05888901  0.58357603  0.93712715  1
  O  O296  1  0.05563248  0.91601899  0.18682245  1
  O  O297  1  0.06028568  0.91672942  0.43842673  1
  O  O298  1  0.05772391  0.91663504  0.68625210  1
  O  O299  1  0.05610306  0.91657086  0.93626164  1
  O  O300  1  0.55679995  0.25036616  0.18642624  1
  O  O301  1  0.55589692  0.25027519  0.43700962  1
  O  O302  1  0.55482155  0.25015940  0.68720576  1
  O  O303  1  0.55602858  0.25049044  0.93643538  1
  O  O304  1  0.56051309  0.58313266  0.18701409  1
  O  O305  1  0.55847855  0.58343689  0.43752152  1
  O  O306  1  0.55562118  0.58377887  0.68713523  1
  O  O307  1  0.55864979  0.58312244  0.93793022  1
  O  O308  1  0.55665011  0.91652945  0.18665860  1
  O  O309  1  0.55550610  0.91617076  0.43674029  1
  O  O310  1  0.55429706  0.91642829  0.68710124  1
  O  O311  1  0.55517939  0.91592679  0.93652103  1
  O  O312  1  0.44487223  0.08364546  0.06354881  1
  O  O313  1  0.44279661  0.08367642  0.31413061  1
  O  O314  1  0.44004016  0.08343289  0.56207776  1
  O  O315  1  0.44180001  0.08332869  0.81181218  1
  O  O316  1  0.44353934  0.41710073  0.06309809  1
  O  O317  1  0.44357431  0.41703928  0.31394616  1
  O  O318  1  0.44145230  0.41675971  0.56269302  1
  O  O319  1  0.44118784  0.41782728  0.81202355  1
  O  O320  1  0.44028354  0.74883551  0.06267949  1
  O  O321  1  0.44120232  0.74951952  0.31249316  1
  O  O322  1  0.44166146  0.74961926  0.56245503  1
  O  O323  1  0.44038673  0.74905109  0.81265368  1
  O  O324  1  0.93977598  0.08311629  0.06328755  1
  O  O325  1  0.94132047  0.08340317  0.31310097  1
  O  O326  1  0.94292309  0.08303674  0.56180103  1
  O  O327  1  0.94344654  0.08358768  0.81361211  1
  O  O328  1  0.94089292  0.41710956  0.06290734  1
  O  O329  1  0.94100766  0.41678348  0.31247411  1
  O  O330  1  0.94463010  0.41693142  0.56276015  1
  O  O331  1  0.94444268  0.41679142  0.81329046  1
  O  O332  1  0.94380895  0.74957769  0.06421247  1
  O  O333  1  0.94053732  0.74985255  0.31310202  1
  O  O334  1  0.94411390  0.74982070  0.56346549  1
  O  O335  1  0.94142430  0.75020453  0.81145843  1
  O  O336  1  0.19331973  0.08350640  0.06130387  1
  O  O337  1  0.19147591  0.08365600  0.31270387  1
  O  O338  1  0.19249326  0.08344885  0.56275448  1
  O  O339  1  0.19350721  0.08373426  0.81154508  1
  O  O340  1  0.19216062  0.41684993  0.06080104  1
  O  O341  1  0.19411564  0.41641905  0.31145783  1
  O  O342  1  0.19272442  0.41698390  0.56337762  1
  O  O343  1  0.19099327  0.41641483  0.81283356  1
  O  O344  1  0.19128666  0.74951988  0.06224533  1
  O  O345  1  0.19403759  0.74962045  0.31082381  1
  O  O346  1  0.19248335  0.74966519  0.56349862  1
  O  O347  1  0.19419167  0.74933982  0.81135302  1
  O  O348  1  0.69097746  0.08394917  0.06175448  1
  O  O349  1  0.69374023  0.08402547  0.31150518  1
  O  O350  1  0.68979258  0.08348170  0.56325739  1
  O  O351  1  0.68944793  0.08345297  0.81191331  1
  O  O352  1  0.69525990  0.41680112  0.06126826  1
  O  O353  1  0.69228198  0.41625966  0.31314908  1
  O  O354  1  0.68910188  0.41666073  0.56307362  1
  O  O355  1  0.69313769  0.41676356  0.81079751  1
  O  O356  1  0.69381634  0.74955787  0.06136283  1
  O  O357  1  0.69199401  0.75012965  0.31300910  1
  O  O358  1  0.68909886  0.74987523  0.56291451  1
  O  O359  1  0.69263069  0.74959426  0.81101134  1
  O  O360  1  0.30830150  0.24994427  0.18723523  1
  O  O361  1  0.30578915  0.25035794  0.43882581  1
  O  O362  1  0.30927999  0.25034334  0.68739393  1
  O  O363  1  0.30979882  0.24974012  0.93778048  1
  O  O364  1  0.30581000  0.58301749  0.18831919  1
  O  O365  1  0.30789918  0.58291233  0.43881371  1
  O  O366  1  0.30931875  0.58314370  0.68741163  1
  O  O367  1  0.30739305  0.58276576  0.93705939  1
  O  O368  1  0.30606372  0.91668617  0.18810819  1
  O  O369  1  0.30612445  0.91650000  0.43867087  1
  O  O370  1  0.30944917  0.91663240  0.68717665  1
  O  O371  1  0.30874267  0.91713434  0.93700450  1
  O  O372  1  0.80619016  0.25004772  0.18951800  1
  O  O373  1  0.80932890  0.24965138  0.43766266  1
  O  O374  1  0.80721692  0.25022235  0.68819195  1
  O  O375  1  0.80852052  0.25055145  0.93658604  1
  O  O376  1  0.80808600  0.58399271  0.18760775  1
  O  O377  1  0.80569405  0.58319235  0.43933204  1
  O  O378  1  0.81003339  0.58321433  0.68702537  1
  O  O379  1  0.80945674  0.58299002  0.93746883  1
  O  O380  1  0.80580302  0.91630747  0.18886342  1
  O  O381  1  0.80642164  0.91729160  0.43892728  1
  O  O382  1  0.80636377  0.91642597  0.68767185  1
  O  O383  1  0.80577631  0.91684578  0.93808076  1
  O  O384  1  0.23501919  0.25031306  0.03802164  1
  O  O385  1  0.23292642  0.25003006  0.28786387  1
  O  O386  1  0.23298557  0.24986943  0.54076303  1
  O  O387  1  0.23574885  0.25021927  0.78877676  1
  O  O388  1  0.23235344  0.58335031  0.03748626  1
  O  O389  1  0.23380070  0.58348055  0.29120031  1
  O  O390  1  0.23543885  0.58316567  0.54089588  1
  O  O391  1  0.23400525  0.58336691  0.78757297  1
  O  O392  1  0.23470538  0.91613319  0.03825928  1
  O  O393  1  0.23354309  0.91573796  0.29044313  1
  O  O394  1  0.23324010  0.91704001  0.54052333  1
  O  O395  1  0.23592105  0.91586391  0.78858596  1
  O  O396  1  0.73511910  0.25047955  0.03844091  1
  O  O397  1  0.73473905  0.24994449  0.29240229  1
  O  O398  1  0.73465142  0.24963519  0.53832677  1
  O  O399  1  0.73411832  0.25011202  0.78992328  1
  O  O400  1  0.73460365  0.58306437  0.03829625  1
  O  O401  1  0.73348731  0.58340365  0.28856944  1
  O  O402  1  0.73180767  0.58344639  0.54019965  1
  O  O403  1  0.73575693  0.58339834  0.78778847  1
  O  O404  1  0.73324830  0.91687319  0.04037752  1
  O  O405  1  0.73391745  0.91703474  0.29162108  1
  O  O406  1  0.73323355  0.91697053  0.54052282  1
  O  O407  1  0.73310042  0.91624327  0.78957844  1
  O  O408  1  0.26508407  0.08354514  0.21107290  1
  O  O409  1  0.26667349  0.08355679  0.46183605  1
  O  O410  1  0.26812512  0.08359661  0.71117525  1
  O  O411  1  0.26706665  0.08329571  0.95997542  1
  O  O412  1  0.26612473  0.41668773  0.20872745  1
  O  O413  1  0.26784308  0.41625328  0.46286833  1
  O  O414  1  0.26665009  0.41685239  0.71310873  1
  O  O415  1  0.26513467  0.41712481  0.95917256  1
  O  O416  1  0.26750400  0.74952234  0.20932495  1
  O  O417  1  0.26791619  0.74996384  0.46335109  1
  O  O418  1  0.26818013  0.74965951  0.71062681  1
  O  O419  1  0.26641770  0.74934187  0.96172053  1
  O  O420  1  0.76813130  0.08369907  0.21079050  1
  O  O421  1  0.76664876  0.08335990  0.46388927  1
  O  O422  1  0.76423552  0.08339145  0.71154032  1
  O  O423  1  0.76590664  0.08383777  0.96141405  1
  O  O424  1  0.76759647  0.41674259  0.21277610  1
  O  O425  1  0.76408672  0.41734596  0.46276278  1
  O  O426  1  0.76597255  0.41695023  0.70908514  1
  O  O427  1  0.76870248  0.41734039  0.95963932  1
  O  O428  1  0.76711001  0.74956054  0.21229282  1
  O  O429  1  0.76388700  0.74964169  0.46250116  1
  O  O430  1  0.76687545  0.74942302  0.71000853  1
  O  O431  1  0.76661168  0.74920302  0.95958134  1
  O  O432  1  0.01444439  0.08305329  0.16382787  1
  O  O433  1  0.01681846  0.08383101  0.41294186  1
  O  O434  1  0.01857190  0.08363364  0.66174906  1
  O  O435  1  0.01517306  0.08378053  0.91644625  1
  O  O436  1  0.01418522  0.41717696  0.16431979  1
  O  O437  1  0.01557936  0.41622713  0.41319082  1
  O  O438  1  0.01904213  0.41701769  0.66375439  1
  O  O439  1  0.01717151  0.41705306  0.91539498  1
  O  O440  1  0.01719253  0.74953600  0.16598291  1
  O  O441  1  0.01571642  0.74964615  0.41327650  1
  O  O442  1  0.01809732  0.74983392  0.66471197  1
  O  O443  1  0.01544431  0.74895097  0.91248056  1
  O  O444  1  0.51843265  0.08419123  0.16519628  1
  O  O445  1  0.51529104  0.08346667  0.41613660  1
  O  O446  1  0.51504750  0.08366372  0.66258720  1
  O  O447  1  0.51653397  0.08339298  0.91260677  1
  O  O448  1  0.51706131  0.41644009  0.16459719  1
  O  O449  1  0.51756688  0.41705497  0.41487369  1
  O  O450  1  0.51565868  0.41728123  0.66370210  1
  O  O451  1  0.51489577  0.41649267  0.91358199  1
  O  O452  1  0.51503106  0.74968839  0.16305601  1
  O  O453  1  0.51637254  0.74912928  0.41265997  1
  O  O454  1  0.51581013  0.74979036  0.66369246  1
  O  O455  1  0.51374744  0.74942618  0.91420445  1
  O  O456  1  0.48280494  0.24947041  0.08493307  1
  O  O457  1  0.48352597  0.25061559  0.33489139  1
  O  O458  1  0.48122108  0.25040456  0.58587376  1
  O  O459  1  0.48171580  0.25024599  0.83543974  1
  O  O460  1  0.48552888  0.58274586  0.08676458  1
  O  O461  1  0.48611294  0.58317143  0.33538350  1
  O  O462  1  0.48218174  0.58316998  0.58565717  1
  O  O463  1  0.48241687  0.58385754  0.83818629  1
  O  O464  1  0.48369782  0.91724172  0.08473915  1
  O  O465  1  0.48347635  0.91642849  0.33425488  1
  O  O466  1  0.48089524  0.91602104  0.58550094  1
  O  O467  1  0.48115706  0.91685444  0.83534769  1
  O  O468  1  0.98376357  0.25047042  0.08768062  1
  O  O469  1  0.98433130  0.24957402  0.33725600  1
  O  O470  1  0.98577597  0.25004923  0.58382299  1
  O  O471  1  0.98197641  0.25080497  0.83489707  1
  O  O472  1  0.98234245  0.58381525  0.08488989  1
  O  O473  1  0.98346624  0.58320097  0.33598534  1
  O  O474  1  0.98400328  0.58343644  0.58704565  1
  O  O475  1  0.98425570  0.58266045  0.83681923  1
  O  O476  1  0.98304203  0.91517337  0.08465226  1
  O  O477  1  0.98526213  0.91744603  0.33798584  1
  O  O478  1  0.98555925  0.91636073  0.58377949  1
  O  O479  1  0.98355152  0.91748328  0.83409766  1
  O  O480  1  0.08733744  0.31526637  0.07813296  1
  O  O481  1  0.08826965  0.31406818  0.32694133  1
  O  O482  1  0.08963041  0.31546036  0.57713023  1
  O  O483  1  0.08597648  0.31603850  0.82788719  1
  O  O484  1  0.08600791  0.64999902  0.07700851  1
  O  O485  1  0.08725278  0.64816060  0.32750090  1
  O  O486  1  0.08751036  0.64896508  0.57818160  1
  O  O487  1  0.08843798  0.64693870  0.82640617  1
  O  O488  1  0.08685052  0.98003313  0.07729865  1
  O  O489  1  0.08856973  0.98294135  0.32876908  1
  O  O490  1  0.08970384  0.98134319  0.57714510  1
  O  O491  1  0.08772711  0.98203736  0.82744718  1
  O  O492  1  0.58655228  0.31451938  0.07649963  1
  O  O493  1  0.58718708  0.31625307  0.32808409  1
  O  O494  1  0.58531702  0.31533906  0.57812735  1
  O  O495  1  0.58564642  0.31475164  0.82678685  1
  O  O496  1  0.58906540  0.64820282  0.07686667  1
  O  O497  1  0.58983647  0.64833836  0.32781867  1
  O  O498  1  0.58598317  0.64863298  0.57749588  1
  O  O499  1  0.58616039  0.64834713  0.82767231  1
  O  O500  1  0.58736009  0.98281091  0.07792857  1
  O  O501  1  0.58761851  0.98078605  0.32798528  1
  O  O502  1  0.58453123  0.98167292  0.57764786  1
  O  O503  1  0.58515227  0.98184469  0.82738283  1
  O  O504  1  0.41434037  0.01956606  0.17309925  1
  O  O505  1  0.41107447  0.01865968  0.42318618  1
  O  O506  1  0.41152710  0.01823967  0.67215382  1
  O  O507  1  0.41302745  0.01827321  0.92191000  1
  O  O508  1  0.41356274  0.35038299  0.17192328  1
  O  O509  1  0.41337618  0.35209797  0.42359674  1
  O  O510  1  0.41172401  0.35195672  0.67253437  1
  O  O511  1  0.41096317  0.35203705  0.92109215  1
  O  O512  1  0.41161964  0.68419800  0.17297455  1
  O  O513  1  0.41246509  0.68467542  0.42272751  1
  O  O514  1  0.41224953  0.68433128  0.67246478  1
  O  O515  1  0.40984396  0.68456765  0.92264539  1
  O  O516  1  0.91087681  0.01792084  0.17333014  1
  O  O517  1  0.91265755  0.01969079  0.42379217  1
  O  O518  1  0.91498778  0.01815874  0.67207853  1
  O  O519  1  0.91058872  0.01991480  0.92294122  1
  O  O520  1  0.90987026  0.35345840  0.17302484  1
  O  O521  1  0.91228627  0.35041488  0.42200993  1
  O  O522  1  0.91508056  0.35245857  0.67241089  1
  O  O523  1  0.91308413  0.35186923  0.92265161  1
  O  O524  1  0.91335111  0.68352242  0.17326568  1
  O  O525  1  0.91195896  0.68493358  0.42318229  1
  O  O526  1  0.91406289  0.68416953  0.67273911  1
  O  O527  1  0.91193856  0.68382267  0.92082198  1
  O  O528  1  0.16138091  0.01899832  0.20291892  1
  O  O529  1  0.16282930  0.01840323  0.45289947  1
  O  O530  1  0.16420761  0.01852505  0.70179003  1
  O  O531  1  0.16325016  0.01839620  0.95197924  1
  O  O532  1  0.16256186  0.35074341  0.20254100  1
  O  O533  1  0.16419096  0.35075481  0.45371709  1
  O  O534  1  0.16265403  0.35252310  0.70240137  1
  O  O535  1  0.16117617  0.35238194  0.95116257  1
  O  O536  1  0.16328553  0.68468881  0.20135192  1
  O  O537  1  0.16411040  0.68564231  0.45304231  1
  O  O538  1  0.16439396  0.68373649  0.70173350  1
  O  O539  1  0.16290755  0.68397268  0.95232423  1
  O  O540  1  0.66383628  0.01909693  0.20185443  1
  O  O541  1  0.66311684  0.01827064  0.45294931  1
  O  O542  1  0.66018628  0.01844593  0.70194640  1
  O  O543  1  0.66199916  0.01875808  0.95166620  1
  O  O544  1  0.66419658  0.35189578  0.20264404  1
  O  O545  1  0.66028255  0.35285072  0.45254454  1
  O  O546  1  0.66190147  0.35176557  0.70148978  1
  O  O547  1  0.66454039  0.35289137  0.95168078  1
  O  O548  1  0.66349015  0.68426374  0.20319304  1
  O  O549  1  0.66058761  0.68355800  0.45326072  1
  O  O550  1  0.66256009  0.68473180  0.70154277  1
  O  O551  1  0.66318264  0.68325639  0.95234229  1
  O  O552  1  0.33889911  0.31500095  0.04770609  1
  O  O553  1  0.33644961  0.31518315  0.29728745  1
  O  O554  1  0.33710441  0.31505787  0.54834970  1
  O  O555  1  0.33940658  0.31541037  0.79711113  1
  O  O556  1  0.33613080  0.64863937  0.04679694  1
  O  O557  1  0.33736537  0.64931639  0.29692094  1
  O  O558  1  0.33949318  0.64806570  0.54793368  1
  O  O559  1  0.33779611  0.64834916  0.79741750  1
  O  O560  1  0.33827826  0.98080534  0.04738623  1
  O  O561  1  0.33724317  0.98059741  0.29753654  1
  O  O562  1  0.33725842  0.98186786  0.54783810  1
  O  O563  1  0.33920900  0.98184450  0.79699908  1
  O  O564  1  0.83875272  0.31548589  0.04624601  1
  O  O565  1  0.83883908  0.31498645  0.29844660  1
  O  O566  1  0.83825547  0.31427718  0.54760730  1
  O  O567  1  0.83821774  0.31512869  0.79741152  1
  O  O568  1  0.83859939  0.64729851  0.04786454  1
  O  O569  1  0.83688147  0.64875946  0.29778637  1
  O  O570  1  0.83616601  0.64825560  0.54871260  1
  O  O571  1  0.83914031  0.64957020  0.79655497  1
  O  O572  1  0.83675156  0.98277802  0.04689872  1
  O  O573  1  0.83785737  0.98191512  0.29755254  1
  O  O574  1  0.83701592  0.98277453  0.54816301  1
  O  O575  1  0.83700725  0.98081948  0.79693699  1
  O  O576  1  0.41446772  0.14969291  0.17256922  1
  O  O577  1  0.41118488  0.14857091  0.42330975  1
  O  O578  1  0.41122734  0.14849483  0.67212253  1
  O  O579  1  0.41302357  0.14855698  0.92170711  1
  O  O580  1  0.41315576  0.48071132  0.17291824  1
  O  O581  1  0.41357950  0.48195596  0.42355124  1
  O  O582  1  0.41170980  0.48204148  0.67258405  1
  O  O583  1  0.41169782  0.48238791  0.92217253  1
  O  O584  1  0.41104081  0.81425135  0.17249841  1
  O  O585  1  0.41266758  0.81450982  0.42282712  1
  O  O586  1  0.41159888  0.81442531  0.67215492  1
  O  O587  1  0.41008785  0.81486502  0.92193227  1
  O  O588  1  0.91077693  0.14802341  0.17338129  1
  O  O589  1  0.91331589  0.14967508  0.42306003  1
  O  O590  1  0.91450902  0.14812803  0.67176292  1
  O  O591  1  0.91166276  0.15003714  0.92223125  1
  O  O592  1  0.91097709  0.48363530  0.17214206  1
  O  O593  1  0.91175678  0.48062493  0.42280627  1
  O  O594  1  0.91522214  0.48249398  0.67222377  1
  O  O595  1  0.91307131  0.48195528  0.92246286  1
  O  O596  1  0.91264454  0.81348766  0.17396767  1
  O  O597  1  0.91233832  0.81508663  0.42313774  1
  O  O598  1  0.91364336  0.81413050  0.67304582  1
  O  O599  1  0.91205245  0.81412535  0.92180433  1
  O  O600  1  0.08716028  0.18514292  0.07784670  1
  O  O601  1  0.08795922  0.18393247  0.32759017  1
  O  O602  1  0.08991356  0.18523395  0.57699011  1
  O  O603  1  0.08598129  0.18603753  0.82726076  1
  O  O604  1  0.08679433  0.51992015  0.07646355  1
  O  O605  1  0.08701870  0.51795168  0.32742740  1
  O  O606  1  0.08794528  0.51867289  0.57809894  1
  O  O607  1  0.08796769  0.51701162  0.82759658  1
  O  O608  1  0.08679704  0.84970300  0.07811254  1
  O  O609  1  0.08869732  0.85251580  0.32820612  1
  O  O610  1  0.08949801  0.85100840  0.57747835  1
  O  O611  1  0.08721398  0.85190386  0.82699936  1
  O  O612  1  0.58678751  0.18434887  0.07736572  1
  O  O613  1  0.58748295  0.18596608  0.32781953  1
  O  O614  1  0.58506142  0.18515881  0.57758490  1
  O  O615  1  0.58521209  0.18449431  0.82708703  1
  O  O616  1  0.58963949  0.51820502  0.07688395  1
  O  O617  1  0.58998447  0.51806171  0.32819618  1
  O  O618  1  0.58642762  0.51856141  0.57783463  1
  O  O619  1  0.58582339  0.51830796  0.82752338  1
  O  O620  1  0.58733558  0.85237440  0.07703096  1
  O  O621  1  0.58687947  0.85037369  0.32774977  1
  O  O622  1  0.58509242  0.85143263  0.57803068  1
  O  O623  1  0.58462668  0.85159326  0.82672050  1
  O  O624  1  0.33870431  0.18505124  0.04814992  1
  O  O625  1  0.33646894  0.18504329  0.29740857  1
  O  O626  1  0.33709011  0.18502932  0.54795455  1
  O  O627  1  0.33948201  0.18508151  0.79700622  1
  O  O628  1  0.33605447  0.51870275  0.04746069  1
  O  O629  1  0.33788453  0.51910722  0.29750455  1
  O  O630  1  0.33918802  0.51789145  0.54816852  1
  O  O631  1  0.33767817  0.51816072  0.79772665  1
  O  O632  1  0.33815469  0.85050186  0.04607239  1
  O  O633  1  0.33722665  0.85022535  0.29671874  1
  O  O634  1  0.33734632  0.85176729  0.54811198  1
  O  O635  1  0.33992337  0.85141547  0.79662771  1
  O  O636  1  0.83855429  0.18515335  0.04617717  1
  O  O637  1  0.83880547  0.18480769  0.29831585  1
  O  O638  1  0.83817383  0.18396668  0.54745083  1
  O  O639  1  0.83813856  0.18506533  0.79740606  1
  O  O640  1  0.83812545  0.51724203  0.04726960  1
  O  O641  1  0.83700986  0.51843043  0.29751293  1
  O  O642  1  0.83607369  0.51837841  0.54889088  1
  O  O643  1  0.83999039  0.51944147  0.79720651  1
  O  O644  1  0.83721667  0.85246319  0.04737152  1
  O  O645  1  0.83754975  0.85144875  0.29792826  1
  O  O646  1  0.83724550  0.85252677  0.54797876  1
  O  O647  1  0.83671121  0.85037479  0.79651915  1
  O  O648  1  0.16160675  0.14927947  0.20315822  1
  O  O649  1  0.16281300  0.14863596  0.45288129  1
  O  O650  1  0.16407734  0.14854006  0.70181284  1
  O  O651  1  0.16353451  0.14870236  0.95183577  1
  O  O652  1  0.16199488  0.48093526  0.20249536  1
  O  O653  1  0.16402830  0.48088191  0.45299940  1
  O  O654  1  0.16319404  0.48263357  0.70271549  1
  O  O655  1  0.16121862  0.48250239  0.95176170  1
  O  O656  1  0.16346639  0.81453103  0.20118107  1
  O  O657  1  0.16453570  0.81581573  0.45365299  1
  O  O658  1  0.16372969  0.81368335  0.70175750  1
  O  O659  1  0.16291805  0.81417203  0.95192817  1
  O  O660  1  0.66445522  0.14912036  0.20164116  1
  O  O661  1  0.66318005  0.14838276  0.45273942  1
  O  O662  1  0.66046071  0.14847789  0.70184951  1
  O  O663  1  0.66208460  0.14881160  0.95151771  1
  O  O664  1  0.66406255  0.48210150  0.20323919  1
  O  O665  1  0.66065137  0.48306574  0.45347084  1
  O  O666  1  0.66157169  0.48168966  0.70181512  1
  O  O667  1  0.66492693  0.48299087  0.95210009  1
  O  O668  1  0.66344608  0.81438779  0.20274320  1
  O  O669  1  0.65976110  0.81373472  0.45254023  1
  O  O670  1  0.66270554  0.81458785  0.70139015  1
  O  O671  1  0.66247826  0.81353066  0.95190539  1
