# generated using pymatgen
data_Na2MnFe(PO4)2
_symmetry_space_group_name_H-M   'P 1'
_cell_length_a   21.08669614
_cell_length_b   18.93944037
_cell_length_c   20.04483315
_cell_angle_alpha   90.00027605
_cell_angle_beta   90.00124494
_cell_angle_gamma   89.99920642
_symmetry_Int_Tables_number   1
_chemical_formula_structural   Na2MnFe(PO4)2
_chemical_formula_sum   'Na96 Mn48 Fe48 P96 O384'
_cell_volume   8005.30950436
_cell_formula_units_Z   48
loop_
 _symmetry_equiv_pos_site_id
 _symmetry_equiv_pos_as_xyz
  1  'x, y, z'
loop_
 _atom_site_type_symbol
 _atom_site_label
 _atom_site_symmetry_multiplicity
 _atom_site_fract_x
 _atom_site_fract_y
 _atom_site_fract_z
 _atom_site_occupancy
  Na  Na0  1  -0.00044681  -0.00027774  -0.00018930  1
  Na  Na1  1  -0.00104456  0.00024254  0.24960985  1
  Na  Na2  1  -0.00012530  0.00028360  0.50044756  1
  Na  Na3  1  0.00169403  0.00066479  0.74934458  1
  Na  Na4  1  -0.00247893  0.33251101  -0.00034963  1
  Na  Na5  1  -0.00254334  0.33281282  0.25022169  1
  Na  Na6  1  -0.00064909  0.33283934  0.50003207  1
  Na  Na7  1  0.00115916  0.33375242  0.75010517  1
  Na  Na8  1  0.00174775  0.66694607  0.00011642  1
  Na  Na9  1  0.00114190  0.66707725  0.25107692  1
  Na  Na10  1  0.00014619  0.66719515  0.49903243  1
  Na  Na11  1  0.00016881  0.66683816  0.75016918  1
  Na  Na12  1  0.49794704  -0.00086012  -0.00015078  1
  Na  Na13  1  0.50071158  -0.00056392  0.25021785  1
  Na  Na14  1  0.50050755  -0.00054020  0.50078460  1
  Na  Na15  1  0.49887169  -0.00032387  0.74967993  1
  Na  Na16  1  0.50254288  0.33441884  -0.00025082  1
  Na  Na17  1  0.50207731  0.33401675  0.25000766  1
  Na  Na18  1  0.50099088  0.33340831  0.50053220  1
  Na  Na19  1  0.50139144  0.33357417  0.74968735  1
  Na  Na20  1  0.50114596  0.66751035  -0.00126678  1
  Na  Na21  1  0.49848969  0.66608274  0.25031159  1
  Na  Na22  1  0.49759042  0.66575302  0.50148973  1
  Na  Na23  1  0.50029482  0.66717690  0.74900906  1
  Na  Na24  1  0.25176841  -0.00012145  0.12592963  1
  Na  Na25  1  0.24993863  0.00002485  0.37454747  1
  Na  Na26  1  0.24976531  0.00003858  0.62367059  1
  Na  Na27  1  0.25382484  0.00115545  0.87538982  1
  Na  Na28  1  0.25123119  0.33417448  0.12621363  1
  Na  Na29  1  0.25034748  0.33415676  0.37540869  1
  Na  Na30  1  0.24950818  0.33355860  0.62437897  1
  Na  Na31  1  0.25044014  0.33338666  0.87535170  1
  Na  Na32  1  0.24866450  0.66597388  0.12486844  1
  Na  Na33  1  0.24929326  0.66634916  0.37455665  1
  Na  Na34  1  0.24966234  0.66719456  0.62456209  1
  Na  Na35  1  0.24872401  0.66632808  0.87561821  1
  Na  Na36  1  0.74798386  -0.00077650  0.12481181  1
  Na  Na37  1  0.75009965  -0.00018012  0.37487257  1
  Na  Na38  1  0.74888870  -0.00106574  0.62486656  1
  Na  Na39  1  0.74909633  0.00013016  0.87563831  1
  Na  Na40  1  0.74871884  0.33299118  0.12399512  1
  Na  Na41  1  0.74935048  0.33279509  0.37544047  1
  Na  Na42  1  0.74895297  0.33277986  0.62523692  1
  Na  Na43  1  0.74880802  0.33307749  0.87467820  1
  Na  Na44  1  0.74895354  0.66634967  0.12396811  1
  Na  Na45  1  0.75257594  0.66785719  0.37472121  1
  Na  Na46  1  0.75144859  0.66723263  0.62606911  1
  Na  Na47  1  0.74942772  0.66685875  0.87568043  1
  Na  Na48  1  -0.00170008  0.16756257  -0.00037902  1
  Na  Na49  1  -0.00212865  0.16699199  0.24997572  1
  Na  Na50  1  -0.00119869  0.16693921  0.50103496  1
  Na  Na51  1  0.00050116  0.16700537  0.74922832  1
  Na  Na52  1  0.00008292  0.50032832  0.00099155  1
  Na  Na53  1  0.00061797  0.50023469  0.25022789  1
  Na  Na54  1  0.00363937  0.49870852  0.49889235  1
  Na  Na55  1  0.00078557  0.50072147  0.75038249  1
  Na  Na56  1  0.00161581  0.83175355  -0.00068585  1
  Na  Na57  1  -0.00175733  0.83370126  0.25038261  1
  Na  Na58  1  -0.00190603  0.83325584  0.49980833  1
  Na  Na59  1  0.00088324  0.83206397  0.74973488  1
  Na  Na60  1  0.50124868  0.16662067  -0.00046988  1
  Na  Na61  1  0.50301373  0.16625964  0.24979268  1
  Na  Na62  1  0.50126623  0.16724644  0.50038819  1
  Na  Na63  1  0.50072535  0.16690647  0.75051768  1
  Na  Na64  1  0.49980022  0.49970783  -0.00111655  1
  Na  Na65  1  0.49860905  0.50000394  0.24998711  1
  Na  Na66  1  0.49844592  0.50007800  0.50144008  1
  Na  Na67  1  0.50139919  0.49851749  0.74933825  1
  Na  Na68  1  0.50042262  0.83316920  -0.00023097  1
  Na  Na69  1  0.50014944  0.83334997  0.25104896  1
  Na  Na70  1  0.49909577  0.83398753  0.50085255  1
  Na  Na71  1  0.49925581  0.83331585  0.74848485  1
  Na  Na72  1  0.25125166  0.16594690  0.12631571  1
  Na  Na73  1  0.24855827  0.16649044  0.37505838  1
  Na  Na74  1  0.24889965  0.16696214  0.62393857  1
  Na  Na75  1  0.25130598  0.16638197  0.87511346  1
  Na  Na76  1  0.24997762  0.50049491  0.12636497  1
  Na  Na77  1  0.24837345  0.50049519  0.37443740  1
  Na  Na78  1  0.24892699  0.49994248  0.62403156  1
  Na  Na79  1  0.25203193  0.49909368  0.87508919  1
  Na  Na80  1  0.25051736  0.83364353  0.12439150  1
  Na  Na81  1  0.25242781  0.83242253  0.37491378  1
  Na  Na82  1  0.25056186  0.83305677  0.62479408  1
  Na  Na83  1  0.25021950  0.83296713  0.87590978  1
  Na  Na84  1  0.74806390  0.16788205  0.12436339  1
  Na  Na85  1  0.75085142  0.16721186  0.37448604  1
  Na  Na86  1  0.75140524  0.16719960  0.62523961  1
  Na  Na87  1  0.74915532  0.16803505  0.87505829  1
  Na  Na88  1  0.74983362  0.49961430  0.12385326  1
  Na  Na89  1  0.75085044  0.49902010  0.37575684  1
  Na  Na90  1  0.74808181  0.50095267  0.62585959  1
  Na  Na91  1  0.74885604  0.50025005  0.87537285  1
  Na  Na92  1  0.74871106  0.83285017  0.12435845  1
  Na  Na93  1  0.75039353  0.83330376  0.37491084  1
  Na  Na94  1  0.74991090  0.83299163  0.62495893  1
  Na  Na95  1  0.74851108  0.83291347  0.87571280  1
  Mn  Mn96  1  0.85832423  0.41708349  0.50303352  1
  Mn  Mn97  1  0.39367629  0.25013875  0.12744138  1
  Mn  Mn98  1  0.10876085  0.08319740  0.87316735  1
  Mn  Mn99  1  0.85794156  0.08261211  0.75257718  1
  Mn  Mn100  1  0.60786839  0.74936899  0.62265616  1
  Mn  Mn101  1  0.14189320  0.91611196  0.49709201  1
  Mn  Mn102  1  0.60853406  0.08382311  0.62278361  1
  Mn  Mn103  1  0.60707475  0.08298760  0.87193350  1
  Mn  Mn104  1  0.85761774  0.41753299  0.75199395  1
  Mn  Mn105  1  0.14114435  0.25002330  0.24770429  1
  Mn  Mn106  1  0.89250240  0.58332948  0.12759266  1
  Mn  Mn107  1  0.39243405  0.24987063  0.62721273  1
  Mn  Mn108  1  0.14318098  0.91732078  0.74788685  1
  Mn  Mn109  1  0.10750711  0.08326275  0.12240529  1
  Mn  Mn110  1  0.10828813  0.41668236  0.87345170  1
  Mn  Mn111  1  0.85678104  0.08312711  0.25209220  1
  Mn  Mn112  1  0.35835486  0.74985519  0.25184918  1
  Mn  Mn113  1  0.64100734  0.58285379  0.99748381  1
  Mn  Mn114  1  0.89276105  0.58317944  0.37710438  1
  Mn  Mn115  1  0.89206614  0.91655534  0.87693261  1
  Mn  Mn116  1  0.85700060  0.41676002  0.00162482  1
  Mn  Mn117  1  0.89212905  0.91675608  0.62791346  1
  Mn  Mn118  1  0.64156959  0.58325954  0.24793004  1
  Mn  Mn119  1  0.10713449  0.41642868  0.12253770  1
  Mn  Mn120  1  0.85712126  0.08320570  0.00175665  1
  Mn  Mn121  1  0.35810582  0.41651541  0.25246124  1
  Mn  Mn122  1  0.39216477  0.91721920  0.62721869  1
  Mn  Mn123  1  0.39161030  0.58269281  0.62781448  1
  Mn  Mn124  1  0.35756351  0.08383180  0.50190133  1
  Mn  Mn125  1  0.39242915  0.24982183  0.87710915  1
  Mn  Mn126  1  0.14238524  0.25031952  0.99840399  1
  Mn  Mn127  1  0.14132687  0.25050628  0.49713116  1
  Mn  Mn128  1  0.64221034  0.58382418  0.49720669  1
  Mn  Mn129  1  0.14324607  0.91685735  0.99776675  1
  Mn  Mn130  1  0.10732588  0.75090007  0.37243993  1
  Mn  Mn131  1  0.89310027  0.58261845  0.62693072  1
  Mn  Mn132  1  0.14199024  0.91616036  0.24811323  1
  Mn  Mn133  1  0.39309981  0.24990995  0.37734485  1
  Mn  Mn134  1  0.60894745  0.08310873  0.37308437  1
  Mn  Mn135  1  0.60752242  0.74918531  0.37344518  1
  Mn  Mn136  1  0.35875161  0.08373852  0.25281104  1
  Mn  Mn137  1  0.14213619  0.58278128  0.74770629  1
  Mn  Mn138  1  0.60765599  0.41756306  0.37320323  1
  Mn  Mn139  1  0.35794784  0.74948109  0.00247530  1
  Mn  Mn140  1  0.89178284  0.91649169  0.12712687  1
  Mn  Mn141  1  0.85751432  0.75019080  0.00214746  1
  Mn  Mn142  1  0.39258867  0.58361812  0.87674378  1
  Mn  Mn143  1  0.64069418  0.91701490  0.99731400  1
  Fe  Fe144  1  0.60732023  0.08308341  0.12304789  1
  Fe  Fe145  1  0.85766101  0.08291685  0.50176835  1
  Fe  Fe146  1  0.89269098  0.58309116  0.87664244  1
  Fe  Fe147  1  0.60699930  0.74982684  0.87215934  1
  Fe  Fe148  1  0.35829032  0.41636593  0.00190759  1
  Fe  Fe149  1  0.14298579  0.58370317  0.24802260  1
  Fe  Fe150  1  0.39371278  0.91616264  0.12702957  1
  Fe  Fe151  1  0.89133059  0.91743932  0.37644137  1
  Fe  Fe152  1  0.85746181  0.75026848  0.50214488  1
  Fe  Fe153  1  0.14313446  0.58378974  0.49822456  1
  Fe  Fe154  1  0.35837329  0.08426076  0.00266328  1
  Fe  Fe155  1  0.10573950  0.08342368  0.37355186  1
  Fe  Fe156  1  0.10736720  0.75051162  0.12370109  1
  Fe  Fe157  1  0.39340232  0.91641823  0.37693146  1
  Fe  Fe158  1  0.10731886  0.75003537  0.87297023  1
  Fe  Fe159  1  0.35688906  0.74946320  0.50148349  1
  Fe  Fe160  1  0.64243397  0.91633561  0.24850764  1
  Fe  Fe161  1  0.35679041  0.74999498  0.75204101  1
  Fe  Fe162  1  0.89339701  0.25047245  0.62713083  1
  Fe  Fe163  1  0.89114212  0.25010010  0.12657275  1
  Fe  Fe164  1  0.14269375  0.24983685  0.74875624  1
  Fe  Fe165  1  0.10764170  0.08331708  0.62319972  1
  Fe  Fe166  1  0.85714553  0.74947019  0.25072290  1
  Fe  Fe167  1  0.85729889  0.74978944  0.75206419  1
  Fe  Fe168  1  0.64208905  0.91645359  0.74869358  1
  Fe  Fe169  1  0.10823120  0.41672377  0.62333988  1
  Fe  Fe170  1  0.35644674  0.41670960  0.50164482  1
  Fe  Fe171  1  0.64313729  0.25000848  0.74779864  1
  Fe  Fe172  1  0.64356048  0.91681488  0.49825351  1
  Fe  Fe173  1  0.89189597  0.24972110  0.37665981  1
  Fe  Fe174  1  0.39266472  0.58359132  0.12605091  1
  Fe  Fe175  1  0.39282745  0.91616822  0.87611951  1
  Fe  Fe176  1  0.39126757  0.58347563  0.37722557  1
  Fe  Fe177  1  0.10686696  0.41547028  0.37277743  1
  Fe  Fe178  1  0.35729057  0.41622172  0.75119590  1
  Fe  Fe179  1  0.85670142  0.41719393  0.25129295  1
  Fe  Fe180  1  0.64408818  0.24940335  0.49836518  1
  Fe  Fe181  1  0.60758658  0.41725138  0.12318777  1
  Fe  Fe182  1  0.60717888  0.41655268  0.62323164  1
  Fe  Fe183  1  0.64307670  0.58358232  0.74848713  1
  Fe  Fe184  1  0.64264456  0.25009761  0.99795214  1
  Fe  Fe185  1  0.89257288  0.25052950  0.87590961  1
  Fe  Fe186  1  0.14317209  0.58271002  0.99870770  1
  Fe  Fe187  1  0.35719758  0.08374242  0.75107724  1
  Fe  Fe188  1  0.60705946  0.41734240  0.87216965  1
  Fe  Fe189  1  0.64339184  0.25007755  0.24798574  1
  Fe  Fe190  1  0.60722359  0.74965289  0.12416557  1
  Fe  Fe191  1  0.10752082  0.74998648  0.62301540  1
  P  P192  1  0.05104944  0.25016312  0.10982082  1
  P  P193  1  0.05135089  0.24940495  0.36020716  1
  P  P194  1  0.05419627  0.25022370  0.61142635  1
  P  P195  1  0.05304430  0.25009548  0.85951453  1
  P  P196  1  0.05537998  0.58437573  0.11092667  1
  P  P197  1  0.05583849  0.58280134  0.36069405  1
  P  P198  1  0.05465784  0.58370548  0.60922970  1
  P  P199  1  0.05372748  0.58374387  0.86148629  1
  P  P200  1  0.05319323  0.91577026  0.10978393  1
  P  P201  1  0.05109494  0.91760748  0.36015323  1
  P  P202  1  0.05376441  0.91614829  0.61010032  1
  P  P203  1  0.05367973  0.91599778  0.85981671  1
  P  P204  1  0.55607885  0.25025753  0.11062880  1
  P  P205  1  0.55591445  0.25022477  0.36056534  1
  P  P206  1  0.55581016  0.25074418  0.61055811  1
  P  P207  1  0.55518737  0.25095815  0.86031147  1
  P  P208  1  0.55195871  0.58336628  0.10998446  1
  P  P209  1  0.55093907  0.58343065  0.36038891  1
  P  P210  1  0.55458066  0.58249531  0.61130342  1
  P  P211  1  0.55380948  0.58331153  0.85866206  1
  P  P212  1  0.55372527  0.91632260  0.11153800  1
  P  P213  1  0.55464409  0.91618502  0.36111948  1
  P  P214  1  0.55570251  0.91658514  0.61039367  1
  P  P215  1  0.55218250  0.91591226  0.85885887  1
  P  P216  1  0.44741589  0.08305488  0.13914543  1
  P  P217  1  0.44781956  0.08259492  0.39045773  1
  P  P218  1  0.44647971  0.08381741  0.64070798  1
  P  P219  1  0.44456930  0.08274552  0.88909439  1
  P  P220  1  0.44702640  0.41733438  0.13866676  1
  P  P221  1  0.44584374  0.41731075  0.39118284  1
  P  P222  1  0.44589440  0.41611267  0.63957341  1
  P  P223  1  0.44599215  0.41642040  0.88885797  1
  P  P224  1  0.44799453  0.74969581  0.13971260  1
  P  P225  1  0.44580592  0.74987704  0.39106476  1
  P  P226  1  0.44435937  0.74986069  0.63947426  1
  P  P227  1  0.44651261  0.75056801  0.88825221  1
  P  P228  1  0.94581507  0.08399792  0.13977975  1
  P  P229  1  0.94594359  0.08336337  0.39046087  1
  P  P230  1  0.94666372  0.08393571  0.63891846  1
  P  P231  1  0.94684860  0.08426490  0.88961605  1
  P  P232  1  0.94530708  0.41617653  0.14058560  1
  P  P233  1  0.94627320  0.41617835  0.38869429  1
  P  P234  1  0.94872068  0.41641300  0.64003966  1
  P  P235  1  0.94648626  0.41700097  0.88969210  1
  P  P236  1  0.94738620  0.74964007  0.14057314  1
  P  P237  1  0.94410538  0.75085578  0.38913173  1
  P  P238  1  0.94618209  0.74958699  0.63952884  1
  P  P239  1  0.94630296  0.74894307  0.88881081  1
  P  P240  1  0.19526716  0.08294020  0.23623490  1
  P  P241  1  0.19428943  0.08325966  0.48478878  1
  P  P242  1  0.19758446  0.08410990  0.73443134  1
  P  P243  1  0.19894212  0.08345233  0.98543381  1
  P  P244  1  0.19506235  0.41710332  0.23629377  1
  P  P245  1  0.19530470  0.41758034  0.48527660  1
  P  P246  1  0.19738262  0.41578243  0.73473070  1
  P  P247  1  0.19838224  0.41745488  0.98577164  1
  P  P248  1  0.19638387  0.74973113  0.23439088  1
  P  P249  1  0.19649673  0.74945712  0.48574027  1
  P  P250  1  0.19621749  0.75011418  0.73563462  1
  P  P251  1  0.19496168  0.74900879  0.98590146  1
  P  P252  1  0.69578930  0.08320536  0.23440975  1
  P  P253  1  0.69852229  0.08369986  0.48534650  1
  P  P254  1  0.69679620  0.08337560  0.73512023  1
  P  P255  1  0.69465078  0.08418721  0.98573092  1
  P  P256  1  0.69706083  0.41634807  0.23454686  1
  P  P257  1  0.69587924  0.41582492  0.48655426  1
  P  P258  1  0.69483865  0.41702429  0.73573177  1
  P  P259  1  0.69402019  0.41601423  0.98504560  1
  P  P260  1  0.69704199  0.75024109  0.23474012  1
  P  P261  1  0.69807943  0.75051581  0.48509317  1
  P  P262  1  0.69634260  0.74979821  0.73636045  1
  P  P263  1  0.69372745  0.74974982  0.98526083  1
  P  P264  1  0.30401431  0.25029377  0.01563611  1
  P  P265  1  0.30331085  0.25003429  0.26564500  1
  P  P266  1  0.30312254  0.25093237  0.51467994  1
  P  P267  1  0.30229825  0.25012563  0.76450601  1
  P  P268  1  0.30336949  0.58265727  0.01560511  1
  P  P269  1  0.30419372  0.58356389  0.26438089  1
  P  P270  1  0.30336090  0.58306339  0.51372071  1
  P  P271  1  0.30314297  0.58317630  0.76483879  1
  P  P272  1  0.30623542  0.91720261  0.01462301  1
  P  P273  1  0.30576529  0.91651368  0.26471486  1
  P  P274  1  0.30464651  0.91609529  0.51352750  1
  P  P275  1  0.30422577  0.91672611  0.76533642  1
  P  P276  1  0.80357168  0.25021576  0.01391800  1
  P  P277  1  0.80368747  0.25114432  0.26402989  1
  P  P278  1  0.80508174  0.24936769  0.51463602  1
  P  P279  1  0.80409399  0.25056076  0.76417848  1
  P  P280  1  0.80401333  0.58339964  0.01384666  1
  P  P281  1  0.80298761  0.58292663  0.26465986  1
  P  P282  1  0.80347203  0.58399367  0.51540114  1
  P  P283  1  0.80303238  0.58395062  0.76571459  1
  P  P284  1  0.80236603  0.91650449  0.01500557  1
  P  P285  1  0.80220458  0.91574964  0.26489558  1
  P  P286  1  0.80392971  0.91688086  0.51387893  1
  P  P287  1  0.80165790  0.91563418  0.76525535  1
  O  O288  1  0.05509746  0.25022917  0.18649510  1
  O  O289  1  0.05504629  0.24984111  0.43691573  1
  O  O290  1  0.05901973  0.25027410  0.68806916  1
  O  O291  1  0.05680258  0.25011964  0.93623668  1
  O  O292  1  0.05925466  0.58358768  0.18771967  1
  O  O293  1  0.05974213  0.58380870  0.43746828  1
  O  O294  1  0.05695268  0.58396650  0.68610919  1
  O  O295  1  0.05857574  0.58280660  0.93811510  1
  O  O296  1  0.05602641  0.91653820  0.18655876  1
  O  O297  1  0.05519002  0.91644815  0.43680296  1
  O  O298  1  0.05710182  0.91605277  0.68683591  1
  O  O299  1  0.05699197  0.91661396  0.93656866  1
  O  O300  1  0.55979288  0.25044008  0.18748032  1
  O  O301  1  0.56016645  0.24981758  0.43733457  1
  O  O302  1  0.55985230  0.24974337  0.68735871  1
  O  O303  1  0.55883811  0.25015774  0.93708341  1
  O  O304  1  0.55515459  0.58306008  0.18670115  1
  O  O305  1  0.55534418  0.58350627  0.43705900  1
  O  O306  1  0.55919690  0.58350556  0.68795339  1
  O  O307  1  0.55590938  0.58333036  0.93549822  1
  O  O308  1  0.55831047  0.91633258  0.18824849  1
  O  O309  1  0.55993951  0.91653067  0.43781043  1
  O  O310  1  0.55997408  0.91647802  0.68716586  1
  O  O311  1  0.55538381  0.91667998  0.93563571  1
  O  O312  1  0.44276427  0.08396627  0.06242811  1
  O  O313  1  0.44510825  0.08335182  0.31364774  1
  O  O314  1  0.44311380  0.08399757  0.56395514  1
  O  O315  1  0.44033319  0.08411119  0.81233757  1
  O  O316  1  0.44233411  0.41658600  0.06196137  1
  O  O317  1  0.44326164  0.41645394  0.31430718  1
  O  O318  1  0.44050436  0.41620452  0.56299198  1
  O  O319  1  0.44074290  0.41599214  0.81218367  1
  O  O320  1  0.44475395  0.74981708  0.06298030  1
  O  O321  1  0.44357202  0.74965670  0.31425298  1
  O  O322  1  0.43983210  0.74967301  0.56275470  1
  O  O323  1  0.44134693  0.74987130  0.81163511  1
  O  O324  1  0.94275493  0.08341522  0.06302201  1
  O  O325  1  0.94229361  0.08315071  0.31373561  1
  O  O326  1  0.94156360  0.08307601  0.56230524  1
  O  O327  1  0.94410240  0.08335823  0.81278749  1
  O  O328  1  0.94220269  0.41688213  0.06380286  1
  O  O329  1  0.94110850  0.41713710  0.31212030  1
  O  O330  1  0.94492733  0.41693977  0.56333502  1
  O  O331  1  0.94383961  0.41742116  0.81293470  1
  O  O332  1  0.94357065  0.74932716  0.06383605  1
  O  O333  1  0.93980999  0.75002926  0.31238112  1
  O  O334  1  0.94101975  0.74982958  0.56281649  1
  O  O335  1  0.94117613  0.74962017  0.81210709  1
  O  O336  1  0.19449428  0.08316440  0.06210887  1
  O  O337  1  0.18980376  0.08304929  0.31293576  1
  O  O338  1  0.18996052  0.08325430  0.56160748  1
  O  O339  1  0.19443424  0.08331546  0.81118309  1
  O  O340  1  0.19417369  0.41689627  0.06241920  1
  O  O341  1  0.19056167  0.41581118  0.31304556  1
  O  O342  1  0.19089825  0.41638575  0.56204146  1
  O  O343  1  0.19386742  0.41643807  0.81144824  1
  O  O344  1  0.19112033  0.75028368  0.06261125  1
  O  O345  1  0.19332318  0.75082257  0.31121697  1
  O  O346  1  0.19178576  0.75043982  0.56240899  1
  O  O347  1  0.19127823  0.74999439  0.81234983  1
  O  O348  1  0.69069062  0.08315415  0.06248346  1
  O  O349  1  0.69390996  0.08317145  0.31124824  1
  O  O350  1  0.69504676  0.08376143  0.56199486  1
  O  O351  1  0.69373082  0.08365087  0.81190023  1
  O  O352  1  0.69021372  0.41724436  0.06184466  1
  O  O353  1  0.69369711  0.41720846  0.31129838  1
  O  O354  1  0.69163089  0.41680741  0.56325455  1
  O  O355  1  0.69134939  0.41694105  0.81255795  1
  O  O356  1  0.68927527  0.74954372  0.06203297  1
  O  O357  1  0.69347464  0.74961168  0.31142244  1
  O  O358  1  0.69416229  0.74960370  0.56177475  1
  O  O359  1  0.69144771  0.74988218  0.81304455  1
  O  O360  1  0.30752306  0.24994293  0.18891918  1
  O  O361  1  0.30664774  0.25011180  0.43799908  1
  O  O362  1  0.30575081  0.25022494  0.68784951  1
  O  O363  1  0.30673768  0.25031144  0.93884501  1
  O  O364  1  0.30943733  0.58363110  0.18772979  1
  O  O365  1  0.30726815  0.58314518  0.43697313  1
  O  O366  1  0.30545700  0.58338049  0.68801708  1
  O  O367  1  0.30724944  0.58346835  0.93890442  1
  O  O368  1  0.31050311  0.91648159  0.18791370  1
  O  O369  1  0.30895326  0.91682062  0.43679396  1
  O  O370  1  0.30633690  0.91663257  0.68848167  1
  O  O371  1  0.31004664  0.91600427  0.93784604  1
  O  O372  1  0.80775360  0.25040238  0.18729042  1
  O  O373  1  0.80931702  0.25025259  0.43781693  1
  O  O374  1  0.80959444  0.25079968  0.68749660  1
  O  O375  1  0.80859920  0.25036504  0.93724743  1
  O  O376  1  0.80561573  0.58294871  0.18787603  1
  O  O377  1  0.80691416  0.58281076  0.43865576  1
  O  O378  1  0.80718236  0.58318483  0.68903021  1
  O  O379  1  0.80867449  0.58341187  0.93714560  1
  O  O380  1  0.80564871  0.91641186  0.18818952  1
  O  O381  1  0.80817337  0.91718921  0.43717838  1
  O  O382  1  0.80564773  0.91609874  0.68851690  1
  O  O383  1  0.80610849  0.91643510  0.93825649  1
  O  O384  1  0.23452002  0.25016040  0.04148685  1
  O  O385  1  0.23344021  0.25027183  0.29004812  1
  O  O386  1  0.23328909  0.25050898  0.53927355  1
  O  O387  1  0.23239769  0.24996550  0.78975338  1
  O  O388  1  0.23329706  0.58310119  0.03994930  1
  O  O389  1  0.23370623  0.58360546  0.28751348  1
  O  O390  1  0.23323970  0.58322847  0.53817074  1
  O  O391  1  0.23366529  0.58275339  0.79062588  1
  O  O392  1  0.23616052  0.91683332  0.03882273  1
  O  O393  1  0.23556469  0.91621209  0.28835573  1
  O  O394  1  0.23465129  0.91666329  0.53776292  1
  O  O395  1  0.23473639  0.91703730  0.79125356  1
  O  O396  1  0.73311273  0.25045456  0.03716372  1
  O  O397  1  0.73334058  0.25014131  0.28790836  1
  O  O398  1  0.73474721  0.24990989  0.53838763  1
  O  O399  1  0.73346728  0.25073715  0.78697479  1
  O  O400  1  0.73384380  0.58314364  0.03749896  1
  O  O401  1  0.73349698  0.58333237  0.29058813  1
  O  O402  1  0.73381276  0.58406052  0.54045730  1
  O  O403  1  0.73281105  0.58352431  0.78974550  1
  O  O404  1  0.73252843  0.91613981  0.03942075  1
  O  O405  1  0.73207531  0.91649501  0.28943875  1
  O  O406  1  0.73368117  0.91645379  0.53804584  1
  O  O407  1  0.73162908  0.91611515  0.78986934  1
  O  O408  1  0.26558757  0.08281999  0.21306796  1
  O  O409  1  0.26447351  0.08338166  0.46117744  1
  O  O410  1  0.26760227  0.08354375  0.70953594  1
  O  O411  1  0.26909917  0.08362943  0.96144291  1
  O  O412  1  0.26519550  0.41725209  0.21248035  1
  O  O413  1  0.26563513  0.41722403  0.46152462  1
  O  O414  1  0.26745005  0.41662904  0.71005059  1
  O  O415  1  0.26846204  0.41691776  0.96130896  1
  O  O416  1  0.26612218  0.74991294  0.20939424  1
  O  O417  1  0.26673310  0.74932066  0.46175479  1
  O  O418  1  0.26667337  0.75017408  0.71227526  1
  O  O419  1  0.26513630  0.74946426  0.96184511  1
  O  O420  1  0.76529982  0.08341780  0.20857716  1
  O  O421  1  0.76836345  0.08362545  0.46014773  1
  O  O422  1  0.76639659  0.08319988  0.70967308  1
  O  O423  1  0.76447310  0.08409660  0.96107075  1
  O  O424  1  0.76697801  0.41655748  0.20957653  1
  O  O425  1  0.76586758  0.41581593  0.46230381  1
  O  O426  1  0.76486001  0.41689318  0.71112788  1
  O  O427  1  0.76405327  0.41661471  0.96088553  1
  O  O428  1  0.76710981  0.74965565  0.20996617  1
  O  O429  1  0.76813077  0.75059541  0.46071457  1
  O  O430  1  0.76672087  0.74976818  0.71257395  1
  O  O431  1  0.76394889  0.74993821  0.96177824  1
  O  O432  1  0.01539688  0.08389939  0.16514322  1
  O  O433  1  0.01598507  0.08352193  0.41519338  1
  O  O434  1  0.01711464  0.08379497  0.66237288  1
  O  O435  1  0.01635910  0.08386884  0.91527678  1
  O  O436  1  0.01508745  0.41660990  0.16544512  1
  O  O437  1  0.01673193  0.41595363  0.41221933  1
  O  O438  1  0.01876577  0.41710635  0.66461930  1
  O  O439  1  0.01596394  0.41641479  0.91554226  1
  O  O440  1  0.01740471  0.75009480  0.16509300  1
  O  O441  1  0.01436479  0.75021898  0.41284119  1
  O  O442  1  0.01673675  0.74945303  0.66256240  1
  O  O443  1  0.01668828  0.74927060  0.91229860  1
  O  O444  1  0.51771582  0.08319237  0.16299455  1
  O  O445  1  0.51739514  0.08281833  0.41596641  1
  O  O446  1  0.51628492  0.08337171  0.66535579  1
  O  O447  1  0.51471136  0.08313648  0.91300771  1
  O  O448  1  0.51733285  0.41687265  0.16258458  1
  O  O449  1  0.51551746  0.41713467  0.41637121  1
  O  O450  1  0.51640976  0.41607427  0.66259959  1
  O  O451  1  0.51654454  0.41722076  0.91178200  1
  O  O452  1  0.51778122  0.74966747  0.16520088  1
  O  O453  1  0.51533628  0.74991584  0.41696588  1
  O  O454  1  0.51465065  0.75004321  0.66276327  1
  O  O455  1  0.51690518  0.75012638  0.91173103  1
  O  O456  1  0.48612904  0.25050985  0.08602337  1
  O  O457  1  0.48589619  0.25026717  0.33634445  1
  O  O458  1  0.48571031  0.25019072  0.58659411  1
  O  O459  1  0.48513241  0.25023176  0.83599473  1
  O  O460  1  0.48223065  0.58357585  0.08431173  1
  O  O461  1  0.48085624  0.58323794  0.33620499  1
  O  O462  1  0.48435618  0.58271549  0.58772781  1
  O  O463  1  0.48428366  0.58291159  0.83299414  1
  O  O464  1  0.48350801  0.91628431  0.08728444  1
  O  O465  1  0.48417984  0.91609346  0.33793738  1
  O  O466  1  0.48544604  0.91687359  0.58703075  1
  O  O467  1  0.48220103  0.91629508  0.83417495  1
  O  O468  1  0.98092772  0.25018699  0.08560306  1
  O  O469  1  0.98123203  0.24957414  0.33572823  1
  O  O470  1  0.98384923  0.25004777  0.58750335  1
  O  O471  1  0.98295279  0.25053063  0.83504111  1
  O  O472  1  0.98531908  0.58346714  0.08677599  1
  O  O473  1  0.98569853  0.58367316  0.33667157  1
  O  O474  1  0.98514419  0.58315850  0.58344635  1
  O  O475  1  0.98352639  0.58363643  0.83726213  1
  O  O476  1  0.98362286  0.91567189  0.08422105  1
  O  O477  1  0.98098670  0.91728628  0.33574446  1
  O  O478  1  0.98399182  0.91633940  0.58518774  1
  O  O479  1  0.98405991  0.91633251  0.83443005  1
  O  O480  1  0.08474538  0.31526132  0.07695565  1
  O  O481  1  0.08528871  0.31426939  0.32729090  1
  O  O482  1  0.08714142  0.31548070  0.57799962  1
  O  O483  1  0.08735963  0.31497747  0.82691099  1
  O  O484  1  0.08865617  0.64969206  0.07823037  1
  O  O485  1  0.08989157  0.64751490  0.32736155  1
  O  O486  1  0.08880908  0.64891144  0.57694773  1
  O  O487  1  0.08721857  0.64877165  0.82832944  1
  O  O488  1  0.08733150  0.98080975  0.07715045  1
  O  O489  1  0.08475889  0.98277904  0.32775217  1
  O  O490  1  0.08780255  0.98132236  0.57787647  1
  O  O491  1  0.08792585  0.98111060  0.82747419  1
  O  O492  1  0.58991406  0.31525695  0.07773274  1
  O  O493  1  0.58950978  0.31532320  0.32758594  1
  O  O494  1  0.58922496  0.31596274  0.57784770  1
  O  O495  1  0.58851557  0.31626344  0.82758187  1
  O  O496  1  0.58620083  0.64844246  0.07780917  1
  O  O497  1  0.58461554  0.64846682  0.32750807  1
  O  O498  1  0.58772423  0.64750680  0.57758007  1
  O  O499  1  0.58803247  0.64846515  0.82649918  1
  O  O500  1  0.58683238  0.98143703  0.07803199  1
  O  O501  1  0.58799601  0.98101854  0.32741589  1
  O  O502  1  0.58942123  0.98148608  0.57717319  1
  O  O503  1  0.58635591  0.98082358  0.82612385  1
  O  O504  1  0.41407586  0.01791588  0.17201914  1
  O  O505  1  0.41361779  0.01743713  0.42238677  1
  O  O506  1  0.41200417  0.01896006  0.67305323  1
  O  O507  1  0.41138648  0.01733466  0.92164141  1
  O  O508  1  0.41365836  0.35255742  0.17249793  1
  O  O509  1  0.41155076  0.35239868  0.42381518  1
  O  O510  1  0.41274410  0.35120995  0.67337520  1
  O  O511  1  0.41333941  0.35134022  0.92283522  1
  O  O512  1  0.41387402  0.68453875  0.17192368  1
  O  O513  1  0.41124995  0.68484410  0.42321238  1
  O  O514  1  0.41097667  0.68491384  0.67292752  1
  O  O515  1  0.41325201  0.68560518  0.92200007  1
  O  O516  1  0.91176311  0.01887138  0.17230979  1
  O  O517  1  0.91206120  0.01830607  0.42328830  1
  O  O518  1  0.91357835  0.01889412  0.67264147  1
  O  O519  1  0.91226860  0.01940372  0.92198369  1
  O  O520  1  0.91113580  0.35104702  0.17271933  1
  O  O521  1  0.91292786  0.35112810  0.42182521  1
  O  O522  1  0.91492680  0.35136360  0.67257438  1
  O  O523  1  0.91185992  0.35176206  0.92131403  1
  O  O524  1  0.91363799  0.68466610  0.17363360  1
  O  O525  1  0.91048523  0.68601038  0.42270210  1
  O  O526  1  0.91290868  0.68456432  0.67292939  1
  O  O527  1  0.91323594  0.68382545  0.92214772  1
  O  O528  1  0.16219086  0.01780758  0.20282491  1
  O  O529  1  0.16070073  0.01835154  0.45153043  1
  O  O530  1  0.16324752  0.01936307  0.70146049  1
  O  O531  1  0.16551463  0.01844167  0.95217625  1
  O  O532  1  0.16175261  0.35223427  0.20259109  1
  O  O533  1  0.16160035  0.35276057  0.45160761  1
  O  O534  1  0.16371340  0.35059057  0.70218105  1
  O  O535  1  0.16438926  0.35253484  0.95287552  1
  O  O536  1  0.16226306  0.68449498  0.20252135  1
  O  O537  1  0.16303394  0.68437093  0.45289931  1
  O  O538  1  0.16290185  0.68509631  0.70222354  1
  O  O539  1  0.16169111  0.68348827  0.95334814  1
  O  O540  1  0.66138843  0.01803408  0.20245178  1
  O  O541  1  0.66443463  0.01865474  0.45285109  1
  O  O542  1  0.66260277  0.01819246  0.70313381  1
  O  O543  1  0.66089862  0.01924887  0.95250602  1
  O  O544  1  0.66305628  0.35124939  0.20224231  1
  O  O545  1  0.66242768  0.35056307  0.45389774  1
  O  O546  1  0.66098169  0.35205242  0.70280533  1
  O  O547  1  0.66070997  0.35074093  0.95239075  1
  O  O548  1  0.66274082  0.68541726  0.20181636  1
  O  O549  1  0.66446165  0.68550688  0.45184047  1
  O  O550  1  0.66323062  0.68456614  0.70303522  1
  O  O551  1  0.66028562  0.68477559  0.95190502  1
  O  O552  1  0.33823652  0.31554527  0.04768515  1
  O  O553  1  0.33735840  0.31510989  0.29802814  1
  O  O554  1  0.33672280  0.31629861  0.54704725  1
  O  O555  1  0.33623447  0.31519003  0.79722200  1
  O  O556  1  0.33733596  0.64767811  0.04864009  1
  O  O557  1  0.33736395  0.64858157  0.29793250  1
  O  O558  1  0.33702994  0.64794471  0.54686173  1
  O  O559  1  0.33711010  0.64835344  0.79724520  1
  O  O560  1  0.33986151  0.98237925  0.04730153  1
  O  O561  1  0.33938287  0.98134591  0.29813077  1
  O  O562  1  0.33843608  0.98097701  0.54683553  1
  O  O563  1  0.33888495  0.98174996  0.79711508  1
  O  O564  1  0.83688946  0.31510600  0.04754270  1
  O  O565  1  0.83664648  0.31639213  0.29724118  1
  O  O566  1  0.83884245  0.31407878  0.54834554  1
  O  O567  1  0.83725325  0.31548318  0.79787122  1
  O  O568  1  0.83722646  0.64844339  0.04721179  1
  O  O569  1  0.83767807  0.64790544  0.29656161  1
  O  O570  1  0.83762728  0.64920634  0.54729817  1
  O  O571  1  0.83672009  0.64903511  0.79846499  1
  O  O572  1  0.83593994  0.98172884  0.04754345  1
  O  O573  1  0.83637407  0.98065673  0.29788277  1
  O  O574  1  0.83698788  0.98207406  0.54727896  1
  O  O575  1  0.83560773  0.98073248  0.79780262  1
  O  O576  1  0.41423404  0.14803710  0.17284565  1
  O  O577  1  0.41359704  0.14764208  0.42286655  1
  O  O578  1  0.41262393  0.14881720  0.67354027  1
  O  O579  1  0.41101660  0.14760275  0.92286293  1
  O  O580  1  0.41374988  0.48260708  0.17148591  1
  O  O581  1  0.41143934  0.48243614  0.42311672  1
  O  O582  1  0.41262513  0.48102987  0.67327239  1
  O  O583  1  0.41239162  0.48128317  0.92224567  1
  O  O584  1  0.41403703  0.81462764  0.17242922  1
  O  O585  1  0.41140418  0.81505237  0.42301111  1
  O  O586  1  0.41088920  0.81486313  0.67261653  1
  O  O587  1  0.41351079  0.81563208  0.92167416  1
  O  O588  1  0.91146620  0.14902158  0.17191068  1
  O  O589  1  0.91198146  0.14844723  0.42302777  1
  O  O590  1  0.91343301  0.14905159  0.67196314  1
  O  O591  1  0.91264949  0.14970301  0.92115025  1
  O  O592  1  0.91109749  0.48105512  0.17347511  1
  O  O593  1  0.91354553  0.48129748  0.42269711  1
  O  O594  1  0.91462266  0.48133173  0.67279542  1
  O  O595  1  0.91248152  0.48211607  0.92218417  1
  O  O596  1  0.91287156  0.81443407  0.17307614  1
  O  O597  1  0.91100535  0.81618201  0.42208186  1
  O  O598  1  0.91287367  0.81453140  0.67315558  1
  O  O599  1  0.91305638  0.81400306  0.92233113  1
  O  O600  1  0.08499457  0.18525012  0.07700859  1
  O  O601  1  0.08484227  0.18412015  0.32768140  1
  O  O602  1  0.08748438  0.18520154  0.57808625  1
  O  O603  1  0.08691461  0.18504393  0.82672586  1
  O  O604  1  0.08947486  0.51965612  0.07744995  1
  O  O605  1  0.08892991  0.51738770  0.32804072  1
  O  O606  1  0.08947968  0.51869765  0.57754208  1
  O  O607  1  0.08710207  0.51870532  0.82799742  1
  O  O608  1  0.08755330  0.85058994  0.07796948  1
  O  O609  1  0.08509136  0.85270527  0.32711777  1
  O  O610  1  0.08747710  0.85087937  0.57739752  1
  O  O611  1  0.08765741  0.85076380  0.82767951  1
  O  O612  1  0.58955195  0.18500974  0.07776206  1
  O  O613  1  0.58971393  0.18532800  0.32743101  1
  O  O614  1  0.58978013  0.18600270  0.57708181  1
  O  O615  1  0.58927052  0.18626398  0.82699257  1
  O  O616  1  0.58601580  0.51834169  0.07733791  1
  O  O617  1  0.58485037  0.51854206  0.32746015  1
  O  O618  1  0.58775875  0.51722436  0.57839901  1
  O  O619  1  0.58856001  0.51838048  0.82675514  1
  O  O620  1  0.58687186  0.85111887  0.07844432  1
  O  O621  1  0.58778565  0.85109785  0.32765259  1
  O  O622  1  0.58898556  0.85152473  0.57705361  1
  O  O623  1  0.58624162  0.85093694  0.82635828  1
  O  O624  1  0.33847286  0.18521260  0.04779850  1
  O  O625  1  0.33713745  0.18497430  0.29837276  1
  O  O626  1  0.33723835  0.18606471  0.54754182  1
  O  O627  1  0.33642645  0.18508882  0.79698860  1
  O  O628  1  0.33732461  0.51767150  0.04824588  1
  O  O629  1  0.33744013  0.51867101  0.29804983  1
  O  O630  1  0.33672325  0.51781231  0.54676204  1
  O  O631  1  0.33771136  0.51808787  0.79656569  1
  O  O632  1  0.33995520  0.85218884  0.04797628  1
  O  O633  1  0.33946460  0.85149431  0.29767688  1
  O  O634  1  0.33784014  0.85079790  0.54640897  1
  O  O635  1  0.33839640  0.85156412  0.79769286  1
  O  O636  1  0.83662942  0.18523181  0.04760559  1
  O  O637  1  0.83753902  0.18633044  0.29746339  1
  O  O638  1  0.83828436  0.18404006  0.54742479  1
  O  O639  1  0.83704754  0.18548878  0.79774990  1
  O  O640  1  0.83747050  0.51841308  0.04696123  1
  O  O641  1  0.83702947  0.51768290  0.29702946  1
  O  O642  1  0.83733761  0.51893890  0.54839211  1
  O  O643  1  0.83699579  0.51900795  0.79874380  1
  O  O644  1  0.83638494  0.85154247  0.04761166  1
  O  O645  1  0.83597129  0.85064169  0.29733391  1
  O  O646  1  0.83750633  0.85184990  0.54696230  1
  O  O647  1  0.83540904  0.85056592  0.79784992  1
  O  O648  1  0.16220137  0.14807825  0.20272988  1
  O  O649  1  0.16056731  0.14826780  0.45176553  1
  O  O650  1  0.16361168  0.14929569  0.70217912  1
  O  O651  1  0.16516303  0.14852712  0.95271570  1
  O  O652  1  0.16173600  0.48248589  0.20379439  1
  O  O653  1  0.16196907  0.48276887  0.45261885  1
  O  O654  1  0.16300303  0.48054375  0.70185210  1
  O  O655  1  0.16486270  0.48265133  0.95293121  1
  O  O656  1  0.16207065  0.81453593  0.20162144  1
  O  O657  1  0.16328160  0.81435361  0.45185155  1
  O  O658  1  0.16294184  0.81506584  0.70211682  1
  O  O659  1  0.16112343  0.81362102  0.95214105  1
  O  O660  1  0.66129977  0.14823707  0.20243592  1
  O  O661  1  0.66469974  0.14884418  0.45274345  1
  O  O662  1  0.66293933  0.14859431  0.70264235  1
  O  O663  1  0.66101887  0.14937912  0.95320234  1
  O  O664  1  0.66277897  0.48122857  0.20162750  1
  O  O665  1  0.66239417  0.48077127  0.45294121  1
  O  O666  1  0.66116546  0.48222408  0.70304322  1
  O  O667  1  0.65994244  0.48073450  0.95173520  1
  O  O668  1  0.66320029  0.81542603  0.20226464  1
  O  O669  1  0.66421913  0.81555493  0.45266402  1
  O  O670  1  0.66302029  0.81477418  0.70300095  1
  O  O671  1  0.66001744  0.81463712  0.95200645  1
