# generated using pymatgen
data_Na2MnFe(PO4)2
_symmetry_space_group_name_H-M   'P 1'
_cell_length_a   21.08330486
_cell_length_b   18.93576752
_cell_length_c   20.04238934
_cell_angle_alpha   90.00021849
_cell_angle_beta   89.99890036
_cell_angle_gamma   90.00199671
_symmetry_Int_Tables_number   1
_chemical_formula_structural   Na2MnFe(PO4)2
_chemical_formula_sum   'Na96 Mn48 Fe48 P96 O384'
_cell_volume   8001.49421566
_cell_formula_units_Z   48
loop_
 _symmetry_equiv_pos_site_id
 _symmetry_equiv_pos_as_xyz
  1  'x, y, z'
loop_
 _atom_site_type_symbol
 _atom_site_label
 _atom_site_symmetry_multiplicity
 _atom_site_fract_x
 _atom_site_fract_y
 _atom_site_fract_z
 _atom_site_occupancy
  Na  Na0  1  0.00264429  0.00122383  0.00073540  1
  Na  Na1  1  0.00018231  0.00026977  0.25042828  1
  Na  Na2  1  -0.00211824  -0.00069445  0.49869420  1
  Na  Na3  1  0.00001264  -0.00012984  0.74997061  1
  Na  Na4  1  -0.00166047  0.33304950  -0.00039428  1
  Na  Na5  1  -0.00080776  0.33250659  0.25001624  1
  Na  Na6  1  0.00157765  0.33354305  0.50068544  1
  Na  Na7  1  -0.00003889  0.33360614  0.74977278  1
  Na  Na8  1  -0.00132933  0.66616638  0.00090336  1
  Na  Na9  1  0.00041408  0.66663963  0.24987115  1
  Na  Na10  1  0.00058701  0.66668702  0.49874988  1
  Na  Na11  1  -0.00046082  0.66660226  0.75025785  1
  Na  Na12  1  0.50138960  0.00031184  -0.00029083  1
  Na  Na13  1  0.50090607  0.00060362  0.25009185  1
  Na  Na14  1  0.49974085  0.00006618  0.50045336  1
  Na  Na15  1  0.50109984  0.00051321  0.74947918  1
  Na  Na16  1  0.50149528  0.33338548  0.00007655  1
  Na  Na17  1  0.49941795  0.33265966  0.25111682  1
  Na  Na18  1  0.50018062  0.33363364  0.50009806  1
  Na  Na19  1  0.50091992  0.33321912  0.74852142  1
  Na  Na20  1  0.50042143  0.66576635  -0.00002589  1
  Na  Na21  1  0.50048204  0.66649907  0.24934109  1
  Na  Na22  1  0.50079879  0.66672410  0.50058707  1
  Na  Na23  1  0.50073844  0.66558874  0.75067220  1
  Na  Na24  1  0.24874267  -0.00031922  0.12451559  1
  Na  Na25  1  0.24975775  0.00028510  0.37402467  1
  Na  Na26  1  0.24969276  0.00090594  0.62607748  1
  Na  Na27  1  0.24795055  -0.00000393  0.87576932  1
  Na  Na28  1  0.25091460  0.33352706  0.12426978  1
  Na  Na29  1  0.25036666  0.33342018  0.37338235  1
  Na  Na30  1  0.24864494  0.33315436  0.62594317  1
  Na  Na31  1  0.24872503  0.33321234  0.87620301  1
  Na  Na32  1  0.25190363  0.66711450  0.12509202  1
  Na  Na33  1  0.24895321  0.66566724  0.37487832  1
  Na  Na34  1  0.24889199  0.66631107  0.62590409  1
  Na  Na35  1  0.24917469  0.66640442  0.87433663  1
  Na  Na36  1  0.74832683  -0.00014045  0.12534781  1
  Na  Na37  1  0.75071711  0.00054025  0.37503522  1
  Na  Na38  1  0.75177055  0.00050249  0.62443540  1
  Na  Na39  1  0.74802931  -0.00047758  0.87530571  1
  Na  Na40  1  0.74956835  0.33269384  0.12476407  1
  Na  Na41  1  0.75008103  0.33274776  0.37369717  1
  Na  Na42  1  0.74981226  0.33247213  0.62519619  1
  Na  Na43  1  0.75113878  0.33391107  0.87633935  1
  Na  Na44  1  0.74875086  0.66589827  0.12521489  1
  Na  Na45  1  0.74877463  0.66646208  0.37500872  1
  Na  Na46  1  0.75052745  0.66619147  0.62511268  1
  Na  Na47  1  0.75070592  0.66600998  0.87446202  1
  Na  Na48  1  -0.00008429  0.16663185  0.00021181  1
  Na  Na49  1  -0.00195356  0.16750518  0.25141990  1
  Na  Na50  1  -0.00085581  0.16717159  0.49962304  1
  Na  Na51  1  0.00080295  0.16631802  0.74855631  1
  Na  Na52  1  -0.00047109  0.49871941  -0.00037261  1
  Na  Na53  1  0.00207498  0.49826217  0.24973233  1
  Na  Na54  1  0.00007832  0.49992046  0.49972631  1
  Na  Na55  1  -0.00282295  0.50066656  0.75049000  1
  Na  Na56  1  0.00079197  0.83330923  0.00133501  1
  Na  Na57  1  -0.00002048  0.83422702  0.24914730  1
  Na  Na58  1  0.00085643  0.83344735  0.49875857  1
  Na  Na59  1  0.00161717  0.83292607  0.75093093  1
  Na  Na60  1  0.50036128  0.16722629  -0.00031713  1
  Na  Na61  1  0.49939193  0.16664446  0.25097333  1
  Na  Na62  1  0.50074609  0.16606653  0.50025653  1
  Na  Na63  1  0.50092912  0.16717071  0.74893292  1
  Na  Na64  1  0.50207884  0.49949606  -0.00021050  1
  Na  Na65  1  0.50023851  0.49954224  0.25026053  1
  Na  Na66  1  0.49783008  0.50074573  0.50007567  1
  Na  Na67  1  0.50143761  0.49927897  0.74961092  1
  Na  Na68  1  0.50044741  0.83436864  0.00004470  1
  Na  Na69  1  0.50222267  0.83317449  0.24954223  1
  Na  Na70  1  0.50149792  0.83336679  0.50075564  1
  Na  Na71  1  0.50077893  0.83368609  0.75011676  1
  Na  Na72  1  0.25153891  0.16629281  0.12386502  1
  Na  Na73  1  0.25065348  0.16680963  0.37345991  1
  Na  Na74  1  0.24889709  0.16744775  0.62600904  1
  Na  Na75  1  0.24949588  0.16679644  0.87655312  1
  Na  Na76  1  0.25072378  0.49917540  0.12495990  1
  Na  Na77  1  0.25009893  0.49972970  0.37384490  1
  Na  Na78  1  0.25028014  0.49902648  0.62633633  1
  Na  Na79  1  0.24866206  0.50004434  0.87517230  1
  Na  Na80  1  0.24932335  0.83413363  0.12492223  1
  Na  Na81  1  0.24828164  0.83435290  0.37505600  1
  Na  Na82  1  0.24788217  0.83351907  0.62548367  1
  Na  Na83  1  0.24742940  0.83397432  0.87451910  1
  Na  Na84  1  0.75031523  0.16685612  0.12530001  1
  Na  Na85  1  0.75126101  0.16641900  0.37370206  1
  Na  Na86  1  0.74955437  0.16722964  0.62437859  1
  Na  Na87  1  0.74949985  0.16733586  0.87656001  1
  Na  Na88  1  0.74780876  0.50001013  0.12364176  1
  Na  Na89  1  0.74774320  0.50077221  0.37516739  1
  Na  Na90  1  0.75270069  0.49887847  0.62603595  1
  Na  Na91  1  0.74939897  0.50005439  0.87533732  1
  Na  Na92  1  0.74942362  0.83356619  0.12612916  1
  Na  Na93  1  0.74928225  0.83431036  0.37514690  1
  Na  Na94  1  0.75041490  0.83403995  0.62410611  1
  Na  Na95  1  0.74954945  0.83403516  0.87439030  1
  Mn  Mn96  1  0.10800724  0.74977378  0.37243428  1
  Mn  Mn97  1  0.39259719  0.91707804  0.87723587  1
  Mn  Mn98  1  0.39225588  0.58410740  0.37768266  1
  Mn  Mn99  1  0.35701774  0.75023069  0.75254985  1
  Mn  Mn100  1  0.60827130  0.08346623  0.62246067  1
  Mn  Mn101  1  0.64263175  0.24995974  0.24747236  1
  Mn  Mn102  1  0.89225027  0.91767554  0.12700969  1
  Mn  Mn103  1  0.39242728  0.91634199  0.37719119  1
  Mn  Mn104  1  0.39167839  0.25046500  0.62698670  1
  Mn  Mn105  1  0.35774439  0.08271312  0.00227292  1
  Mn  Mn106  1  0.89214173  0.58275633  0.37677601  1
  Mn  Mn107  1  0.60740154  0.41684952  0.37289836  1
  Mn  Mn108  1  0.60789732  0.75020595  0.12171965  1
  Mn  Mn109  1  0.14073877  0.58260961  0.74798775  1
  Mn  Mn110  1  0.60826971  0.08423244  0.87254160  1
  Mn  Mn111  1  0.39320805  0.58253542  0.87722054  1
  Mn  Mn112  1  0.35775298  0.75029956  0.00138307  1
  Mn  Mn113  1  0.35753755  0.41602465  0.75298741  1
  Mn  Mn114  1  0.14101959  0.91728787  0.74757732  1
  Mn  Mn115  1  0.10752511  0.08248316  0.62153785  1
  Mn  Mn116  1  0.39217003  0.24946905  0.37782411  1
  Mn  Mn117  1  0.89155008  0.58244508  0.12764933  1
  Mn  Mn118  1  0.14198944  0.58397664  0.99791239  1
  Mn  Mn119  1  0.64218149  0.58274260  0.49833559  1
  Mn  Mn120  1  0.35721604  0.08385092  0.75259486  1
  Mn  Mn121  1  0.89213438  0.25010695  0.62742682  1
  Mn  Mn122  1  0.85679348  0.75023509  0.25239070  1
  Mn  Mn123  1  0.35839552  0.41697193  0.00184170  1
  Mn  Mn124  1  0.10789007  0.74966550  0.12233380  1
  Mn  Mn125  1  0.14282716  0.58342961  0.24699654  1
  Mn  Mn126  1  0.14258281  0.24941297  0.24709053  1
  Mn  Mn127  1  0.85847620  0.74990715  0.75235781  1
  Mn  Mn128  1  0.14167804  0.24975218  0.99780320  1
  Mn  Mn129  1  0.35725746  0.74991425  0.50258385  1
  Mn  Mn130  1  0.85778557  0.08412227  0.75247923  1
  Mn  Mn131  1  0.60900373  0.74943921  0.87253045  1
  Mn  Mn132  1  0.64296273  0.91745581  0.49741195  1
  Mn  Mn133  1  0.60819011  0.41699597  0.62272094  1
  Mn  Mn134  1  0.85826028  0.41634272  0.50164914  1
  Mn  Mn135  1  0.60809390  0.74964401  0.62321092  1
  Mn  Mn136  1  0.35848691  0.75057670  0.25248718  1
  Mn  Mn137  1  0.85753198  0.41692646  0.25208079  1
  Mn  Mn138  1  0.85769258  0.08303405  0.00277531  1
  Mn  Mn139  1  0.10729295  0.41759213  0.62255086  1
  Mn  Mn140  1  0.85812580  0.75032867  0.50216054  1
  Mn  Mn141  1  0.89227054  0.91683506  0.87792740  1
  Mn  Mn142  1  0.39156839  0.91592974  0.62708568  1
  Mn  Mn143  1  0.10753518  0.08391093  0.37282587  1
  Fe  Fe144  1  0.89246124  0.24981459  0.12621468  1
  Fe  Fe145  1  0.35627710  0.41642291  0.50137542  1
  Fe  Fe146  1  0.10633855  0.74938081  0.87395544  1
  Fe  Fe147  1  0.10557932  0.41642610  0.87363966  1
  Fe  Fe148  1  0.60792137  0.75050240  0.37347919  1
  Fe  Fe149  1  0.10693572  0.74984330  0.62303481  1
  Fe  Fe150  1  0.85720881  0.08280175  0.25138052  1
  Fe  Fe151  1  0.64402103  0.58318746  0.74778916  1
  Fe  Fe152  1  0.60774143  0.08277818  0.37309786  1
  Fe  Fe153  1  0.89326658  0.91579767  0.62652969  1
  Fe  Fe154  1  0.64260523  0.25013676  0.99817224  1
  Fe  Fe155  1  0.10820685  0.41627312  0.37331184  1
  Fe  Fe156  1  0.60718761  0.08403776  0.12404629  1
  Fe  Fe157  1  0.89282862  0.58420676  0.62630770  1
  Fe  Fe158  1  0.64313654  0.91674166  0.74793017  1
  Fe  Fe159  1  0.64294562  0.58321041  0.99792375  1
  Fe  Fe160  1  0.39365652  0.58285825  0.12620815  1
  Fe  Fe161  1  0.10738954  0.41580598  0.12309118  1
  Fe  Fe162  1  0.60699141  0.41579052  0.12356687  1
  Fe  Fe163  1  0.39285848  0.91714383  0.12684520  1
  Fe  Fe164  1  0.39352356  0.25000739  0.12596587  1
  Fe  Fe165  1  0.39180153  0.58354080  0.62682556  1
  Fe  Fe166  1  0.89207565  0.58315013  0.87718849  1
  Fe  Fe167  1  0.14264030  0.91734120  0.24802560  1
  Fe  Fe168  1  0.14243194  0.58271849  0.49868243  1
  Fe  Fe169  1  0.64309238  0.24971439  0.49812682  1
  Fe  Fe170  1  0.10734303  0.08440627  0.12424538  1
  Fe  Fe171  1  0.60844959  0.41593875  0.87290984  1
  Fe  Fe172  1  0.14189786  0.25016928  0.74949009  1
  Fe  Fe173  1  0.85649693  0.41683374  0.00206331  1
  Fe  Fe174  1  0.89265046  0.91697537  0.37634058  1
  Fe  Fe175  1  0.64318188  0.25018730  0.74860737  1
  Fe  Fe176  1  0.14255622  0.91639283  0.99858041  1
  Fe  Fe177  1  0.35789071  0.08306526  0.25113567  1
  Fe  Fe178  1  0.64160342  0.58355149  0.24795199  1
  Fe  Fe179  1  0.10683595  0.08406335  0.87345316  1
  Fe  Fe180  1  0.14216366  0.91726110  0.49796124  1
  Fe  Fe181  1  0.89241936  0.24989367  0.87649086  1
  Fe  Fe182  1  0.35782749  0.41628937  0.25112980  1
  Fe  Fe183  1  0.85711270  0.08372185  0.50106245  1
  Fe  Fe184  1  0.64274327  0.91691800  0.24846279  1
  Fe  Fe185  1  0.39330462  0.25036924  0.87631983  1
  Fe  Fe186  1  0.89298616  0.25016304  0.37720163  1
  Fe  Fe187  1  0.85710757  0.41603762  0.75216611  1
  Fe  Fe188  1  0.14275670  0.25013428  0.49825391  1
  Fe  Fe189  1  0.64243398  0.91640738  0.99854270  1
  Fe  Fe190  1  0.35702038  0.08355384  0.50112027  1
  Fe  Fe191  1  0.85720965  0.74997363  0.00136965  1
  P  P192  1  0.05212365  0.24973458  0.11029448  1
  P  P193  1  0.05405374  0.25068551  0.36123485  1
  P  P194  1  0.05489254  0.25000165  0.61029465  1
  P  P195  1  0.05205922  0.25016322  0.85981392  1
  P  P196  1  0.05297318  0.58205348  0.10983156  1
  P  P197  1  0.05498179  0.58200964  0.36068355  1
  P  P198  1  0.05216896  0.58405988  0.60946479  1
  P  P199  1  0.05132207  0.58295883  0.86082768  1
  P  P200  1  0.05541153  0.91812653  0.11099277  1
  P  P201  1  0.05407037  0.91716864  0.36011774  1
  P  P202  1  0.05256239  0.91594527  0.60890527  1
  P  P203  1  0.05431766  0.91675148  0.86190224  1
  P  P204  1  0.55319223  0.24968371  0.11005117  1
  P  P205  1  0.55491019  0.24890171  0.36145695  1
  P  P206  1  0.55529109  0.25031109  0.60996735  1
  P  P207  1  0.55434446  0.25102475  0.86007143  1
  P  P208  1  0.55439157  0.58223529  0.11040407  1
  P  P209  1  0.55387291  0.58410921  0.35956651  1
  P  P210  1  0.55321478  0.58298271  0.61112126  1
  P  P211  1  0.55644958  0.58188862  0.86031839  1
  P  P212  1  0.55407112  0.91806975  0.11081638  1
  P  P213  1  0.55435799  0.91715662  0.35963589  1
  P  P214  1  0.55469414  0.91675738  0.61087894  1
  P  P215  1  0.55572061  0.91681720  0.86013531  1
  P  P216  1  0.44740843  0.08349117  0.14012929  1
  P  P217  1  0.44639629  0.08283699  0.38968292  1
  P  P218  1  0.44504544  0.08350504  0.63892329  1
  P  P219  1  0.44689227  0.08456137  0.88972285  1
  P  P220  1  0.44766682  0.41633991  0.14000540  1
  P  P221  1  0.44468005  0.41656043  0.38984134  1
  P  P222  1  0.44474427  0.41742363  0.63874494  1
  P  P223  1  0.44873081  0.41555710  0.88967857  1
  P  P224  1  0.44671167  0.75030905  0.13940505  1
  P  P225  1  0.44846129  0.75055836  0.39043182  1
  P  P226  1  0.44635050  0.74901187  0.64055214  1
  P  P227  1  0.44764901  0.74986570  0.89006159  1
  P  P228  1  0.94719444  0.08417564  0.14078147  1
  P  P229  1  0.94445892  0.08343842  0.38889278  1
  P  P230  1  0.94525726  0.08232778  0.63834590  1
  P  P231  1  0.94760680  0.08415516  0.89001729  1
  P  P232  1  0.94630568  0.41558057  0.13877664  1
  P  P233  1  0.94826197  0.41564329  0.38976741  1
  P  P234  1  0.94559168  0.41737318  0.64060258  1
  P  P235  1  0.94461483  0.41616811  0.88923292  1
  P  P236  1  0.94505069  0.75016820  0.13913701  1
  P  P237  1  0.94645283  0.75076813  0.38918715  1
  P  P238  1  0.94793921  0.75037551  0.63957797  1
  P  P239  1  0.94686213  0.74950788  0.89103974  1
  P  P240  1  0.19740076  0.08324468  0.23413571  1
  P  P241  1  0.19767386  0.08370563  0.48470548  1
  P  P242  1  0.19442335  0.08485844  0.73650821  1
  P  P243  1  0.19442529  0.08286967  0.98608190  1
  P  P244  1  0.19646926  0.41608977  0.23484417  1
  P  P245  1  0.19703354  0.41668731  0.48455963  1
  P  P246  1  0.19434307  0.41562705  0.73686035  1
  P  P247  1  0.19456954  0.41664516  0.98540874  1
  P  P248  1  0.19691180  0.75084289  0.23475776  1
  P  P249  1  0.19504109  0.74971912  0.48635988  1
  P  P250  1  0.19355056  0.74961670  0.73554056  1
  P  P251  1  0.19600866  0.75059813  0.98423105  1
  P  P252  1  0.69611890  0.08276210  0.23564934  1
  P  P253  1  0.69737285  0.08435231  0.48403597  1
  P  P254  1  0.69679100  0.08398152  0.73503199  1
  P  P255  1  0.69501373  0.08379239  0.98702379  1
  P  P256  1  0.69570840  0.41716989  0.23405679  1
  P  P257  1  0.69700320  0.41560614  0.48493223  1
  P  P258  1  0.69692850  0.41628559  0.73654914  1
  P  P259  1  0.69534171  0.41600510  0.98614643  1
  P  P260  1  0.69469220  0.75031497  0.23621518  1
  P  P261  1  0.69636205  0.74998427  0.48446636  1
  P  P262  1  0.69738207  0.74974822  0.73477057  1
  P  P263  1  0.69799215  0.74993917  0.98508065  1
  P  P264  1  0.30530287  0.25025369  0.01433535  1
  P  P265  1  0.30567678  0.24973582  0.26273324  1
  P  P266  1  0.30182189  0.25008400  0.51463996  1
  P  P267  1  0.30227145  0.25014233  0.76652071  1
  P  P268  1  0.30418410  0.58314477  0.01555487  1
  P  P269  1  0.30546115  0.58239089  0.26346544  1
  P  P270  1  0.30208405  0.58246080  0.51560106  1
  P  P271  1  0.30371887  0.58305908  0.76460803  1
  P  P272  1  0.30272961  0.91663683  0.01545303  1
  P  P273  1  0.30366997  0.91783215  0.26363723  1
  P  P274  1  0.30150525  0.91747679  0.51484474  1
  P  P275  1  0.30249129  0.91696000  0.76551615  1
  P  P276  1  0.80405574  0.25065225  0.01448403  1
  P  P277  1  0.80579487  0.24918826  0.26388053  1
  P  P278  1  0.80370572  0.24938953  0.51353139  1
  P  P279  1  0.80271865  0.25053113  0.76598217  1
  P  P280  1  0.80343716  0.58310263  0.01358906  1
  P  P281  1  0.80115762  0.58295855  0.26484913  1
  P  P282  1  0.80400604  0.58321029  0.51569456  1
  P  P283  1  0.80480689  0.58246799  0.76442360  1
  P  P284  1  0.80184271  0.91611824  0.01515806  1
  P  P285  1  0.80276475  0.91773433  0.26524555  1
  P  P286  1  0.80563475  0.91782692  0.51403540  1
  P  P287  1  0.80365695  0.91688033  0.76392338  1
  O  O288  1  0.05569055  0.24980770  0.18699089  1
  O  O289  1  0.05921914  0.24992176  0.43789927  1
  O  O290  1  0.05875996  0.24991220  0.68700596  1
  O  O291  1  0.05544269  0.25014526  0.93655206  1
  O  O292  1  0.05649054  0.58285854  0.18661794  1
  O  O293  1  0.05906470  0.58259670  0.43744472  1
  O  O294  1  0.05521879  0.58296060  0.68620747  1
  O  O295  1  0.05513507  0.58283821  0.93743817  1
  O  O296  1  0.05927832  0.91726241  0.18782289  1
  O  O297  1  0.05903222  0.91743430  0.43681588  1
  O  O298  1  0.05590061  0.91726156  0.68569761  1
  O  O299  1  0.05804645  0.91678966  0.93865461  1
  O  O300  1  0.55648463  0.24962833  0.18684291  1
  O  O301  1  0.55905111  0.24950563  0.43814172  1
  O  O302  1  0.55989176  0.25025593  0.68674450  1
  O  O303  1  0.55887728  0.25039575  0.93679039  1
  O  O304  1  0.55854266  0.58309979  0.18713310  1
  O  O305  1  0.55670679  0.58313510  0.43638550  1
  O  O306  1  0.55902121  0.58254204  0.68774184  1
  O  O307  1  0.56051477  0.58309532  0.93720447  1
  O  O308  1  0.55893026  0.91724788  0.18747086  1
  O  O309  1  0.55707198  0.91743755  0.43645314  1
  O  O310  1  0.55944150  0.91708255  0.68764201  1
  O  O311  1  0.55993855  0.91653018  0.93699898  1
  O  O312  1  0.44399114  0.08309657  0.06343804  1
  O  O313  1  0.44140543  0.08303876  0.31301030  1
  O  O314  1  0.44020061  0.08355964  0.56213804  1
  O  O315  1  0.44385358  0.08387767  0.81293398  1
  O  O316  1  0.44456448  0.41659430  0.06329405  1
  O  O317  1  0.44084951  0.41621852  0.31305892  1
  O  O318  1  0.43992577  0.41662954  0.56201337  1
  O  O319  1  0.44466195  0.41611682  0.81298530  1
  O  O320  1  0.44379778  0.75050849  0.06266431  1
  O  O321  1  0.44441433  0.75063360  0.31372267  1
  O  O322  1  0.44323072  0.74988945  0.56370518  1
  O  O323  1  0.44405228  0.74992198  0.81331365  1
  O  O324  1  0.94366654  0.08309375  0.06400552  1
  O  O325  1  0.94081418  0.08312914  0.31213043  1
  O  O326  1  0.94115022  0.08361839  0.56161763  1
  O  O327  1  0.94392387  0.08344097  0.81329570  1
  O  O328  1  0.94097434  0.41658047  0.06212253  1
  O  O329  1  0.94431674  0.41621782  0.31307165  1
  O  O330  1  0.94311042  0.41612883  0.56379574  1
  O  O331  1  0.94041206  0.41617983  0.81249823  1
  O  O332  1  0.94030645  0.75016427  0.06236906  1
  O  O333  1  0.94321685  0.75039411  0.31238420  1
  O  O334  1  0.94456297  0.75032909  0.56289521  1
  O  O335  1  0.94350205  0.75026252  0.81426073  1
  O  O336  1  0.19058873  0.08437000  0.06280046  1
  O  O337  1  0.19332062  0.08415764  0.31082291  1
  O  O338  1  0.19413015  0.08365114  0.56143590  1
  O  O339  1  0.19020683  0.08415434  0.81329439  1
  O  O340  1  0.19037015  0.41618072  0.06221857  1
  O  O341  1  0.19168104  0.41597746  0.31153633  1
  O  O342  1  0.19357036  0.41676394  0.56133311  1
  O  O343  1  0.18943137  0.41669620  0.81356631  1
  O  O344  1  0.19347886  0.74950393  0.06103856  1
  O  O345  1  0.19362543  0.75000108  0.31156283  1
  O  O346  1  0.19113949  0.74967824  0.56315076  1
  O  O347  1  0.18896913  0.74919329  0.81230589  1
  O  O348  1  0.69112471  0.08415305  0.06376748  1
  O  O349  1  0.69177910  0.08351633  0.31230088  1
  O  O350  1  0.69386717  0.08352962  0.56077272  1
  O  O351  1  0.69409594  0.08404148  0.81185130  1
  O  O352  1  0.69056849  0.41569035  0.06280127  1
  O  O353  1  0.69276753  0.41635580  0.31082917  1
  O  O354  1  0.69441850  0.41622760  0.56175745  1
  O  O355  1  0.69290791  0.41624195  0.81325995  1
  O  O356  1  0.69440314  0.74982296  0.06185323  1
  O  O357  1  0.69123459  0.75028478  0.31297036  1
  O  O358  1  0.69347338  0.74998936  0.56127025  1
  O  O359  1  0.69475280  0.74967609  0.81155017  1
  O  O360  1  0.30991570  0.24988612  0.18601076  1
  O  O361  1  0.30550852  0.25000246  0.43787530  1
  O  O362  1  0.30627114  0.25040282  0.68978539  1
  O  O363  1  0.30964349  0.25053425  0.93764796  1
  O  O364  1  0.31012245  0.58287746  0.18674632  1
  O  O365  1  0.30587108  0.58347551  0.43881413  1
  O  O366  1  0.30809187  0.58302822  0.68787173  1
  O  O367  1  0.30724164  0.58271083  0.93873011  1
  O  O368  1  0.30884380  0.91714596  0.18700706  1
  O  O369  1  0.30544575  0.91671924  0.43810872  1
  O  O370  1  0.30592811  0.91675939  0.68873142  1
  O  O371  1  0.30664718  0.91698679  0.93874599  1
  O  O372  1  0.80961710  0.24997000  0.18707827  1
  O  O373  1  0.80843094  0.25038728  0.43684184  1
  O  O374  1  0.80639230  0.24980076  0.68923144  1
  O  O375  1  0.80889463  0.24975936  0.93782654  1
  O  O376  1  0.80517732  0.58252506  0.18810841  1
  O  O377  1  0.80681508  0.58333090  0.43886550  1
  O  O378  1  0.80968503  0.58358934  0.68774266  1
  O  O379  1  0.80820169  0.58294567  0.93688164  1
  O  O380  1  0.80640176  0.91727580  0.18852449  1
  O  O381  1  0.80942823  0.91666486  0.43726794  1
  O  O382  1  0.80890641  0.91648374  0.68728582  1
  O  O383  1  0.80570275  0.91709920  0.93842542  1
  O  O384  1  0.23506255  0.25005100  0.03804124  1
  O  O385  1  0.23562309  0.24974121  0.28697058  1
  O  O386  1  0.23182896  0.25025680  0.53948758  1
  O  O387  1  0.23217014  0.25019108  0.79084738  1
  O  O388  1  0.23443993  0.58313804  0.04051140  1
  O  O389  1  0.23535937  0.58288037  0.28738424  1
  O  O390  1  0.23191904  0.58266842  0.54008358  1
  O  O391  1  0.23358939  0.58295695  0.78849816  1
  O  O392  1  0.23250380  0.91677535  0.03942851  1
  O  O393  1  0.23324423  0.91775730  0.28721954  1
  O  O394  1  0.23143349  0.91728929  0.53954627  1
  O  O395  1  0.23263414  0.91713270  0.78999213  1
  O  O396  1  0.73357765  0.25013345  0.03795014  1
  O  O397  1  0.73557415  0.24978569  0.28765167  1
  O  O398  1  0.73354226  0.24946394  0.53767864  1
  O  O399  1  0.73268875  0.25044065  0.79054682  1
  O  O400  1  0.73296935  0.58257155  0.03720101  1
  O  O401  1  0.73109770  0.58341125  0.28909246  1
  O  O402  1  0.73436874  0.58265753  0.54097329  1
  O  O403  1  0.73435081  0.58304905  0.78784696  1
  O  O404  1  0.73181990  0.91660333  0.03981465  1
  O  O405  1  0.73263761  0.91745879  0.28960490  1
  O  O406  1  0.73555497  0.91727327  0.53814775  1
  O  O407  1  0.73325644  0.91685774  0.78738687  1
  O  O408  1  0.26751648  0.08335993  0.20981917  1
  O  O409  1  0.26758564  0.08363526  0.45955619  1
  O  O410  1  0.26436976  0.08421165  0.71221279  1
  O  O411  1  0.26451469  0.08332448  0.96193864  1
  O  O412  1  0.26692498  0.41596110  0.21143368  1
  O  O413  1  0.26709710  0.41659712  0.45974296  1
  O  O414  1  0.26443635  0.41588451  0.71305315  1
  O  O415  1  0.26474872  0.41676081  0.96162364  1
  O  O416  1  0.26662148  0.75076342  0.20982332  1
  O  O417  1  0.26489558  0.74979021  0.46133446  1
  O  O418  1  0.26370684  0.75000132  0.71187107  1
  O  O419  1  0.26554796  0.75023114  0.95861544  1
  O  O420  1  0.76646347  0.08322115  0.21172514  1
  O  O421  1  0.76742774  0.08373332  0.45956052  1
  O  O422  1  0.76632060  0.08406256  0.70942711  1
  O  O423  1  0.76494759  0.08369164  0.96231672  1
  O  O424  1  0.76541509  0.41636950  0.20891173  1
  O  O425  1  0.76645120  0.41645969  0.45907971  1
  O  O426  1  0.76711595  0.41600164  0.71218431  1
  O  O427  1  0.76587463  0.41659613  0.96270531  1
  O  O428  1  0.76452311  0.75005480  0.21128479  1
  O  O429  1  0.76607866  0.75023675  0.45944127  1
  O  O430  1  0.76696381  0.74984593  0.70921020  1
  O  O431  1  0.76785746  0.75007119  0.95986573  1
  O  O432  1  0.01718294  0.08400793  0.16557714  1
  O  O433  1  0.01450481  0.08361468  0.41334068  1
  O  O434  1  0.01523486  0.08276517  0.66260334  1
  O  O435  1  0.01764051  0.08416633  0.91457871  1
  O  O436  1  0.01669075  0.41548991  0.16235813  1
  O  O437  1  0.01816492  0.41613364  0.41465136  1
  O  O438  1  0.01530250  0.41711825  0.66571351  1
  O  O439  1  0.01504562  0.41593287  0.91302465  1
  O  O440  1  0.01519789  0.75044477  0.16285364  1
  O  O441  1  0.01617348  0.75025952  0.41409762  1
  O  O442  1  0.01775568  0.75008134  0.66485964  1
  O  O443  1  0.01695016  0.74958761  0.91562327  1
  O  O444  1  0.51753293  0.08379408  0.16484762  1
  O  O445  1  0.51683420  0.08279904  0.41306548  1
  O  O446  1  0.51524099  0.08377151  0.66249171  1
  O  O447  1  0.51656828  0.08405318  0.91480690  1
  O  O448  1  0.51776562  0.41590667  0.16490201  1
  O  O449  1  0.51473959  0.41694048  0.41394927  1
  O  O450  1  0.51492349  0.41658477  0.66249078  1
  O  O451  1  0.51875463  0.41620285  0.91415881  1
  O  O452  1  0.51648856  0.75011936  0.16447321  1
  O  O453  1  0.51847997  0.75055140  0.41486598  1
  O  O454  1  0.51600159  0.74929739  0.66577680  1
  O  O455  1  0.51739074  0.74974449  0.91499951  1
  O  O456  1  0.48310100  0.24996631  0.08542054  1
  O  O457  1  0.48486966  0.24943339  0.33732708  1
  O  O458  1  0.48506406  0.25019396  0.58639033  1
  O  O459  1  0.48415267  0.25033195  0.83581721  1
  O  O460  1  0.48403931  0.58276579  0.08650089  1
  O  O461  1  0.48412551  0.58313157  0.33456344  1
  O  O462  1  0.48289862  0.58339124  0.58760368  1
  O  O463  1  0.48632937  0.58221059  0.83644967  1
  O  O464  1  0.48361851  0.91754634  0.08721028  1
  O  O465  1  0.48470908  0.91707127  0.33425177  1
  O  O466  1  0.48463890  0.91659362  0.58691623  1
  O  O467  1  0.48563748  0.91728842  0.83618492  1
  O  O468  1  0.98219162  0.24967121  0.08528466  1
  O  O469  1  0.98363808  0.24996135  0.33788360  1
  O  O470  1  0.98475986  0.25029261  0.58633838  1
  O  O471  1  0.98200804  0.25022058  0.83495581  1
  O  O472  1  0.98321315  0.58224776  0.08500754  1
  O  O473  1  0.98505968  0.58254717  0.33604441  1
  O  O474  1  0.98217985  0.58346859  0.58459889  1
  O  O475  1  0.98118798  0.58321475  0.83626579  1
  O  O476  1  0.98532292  0.91746342  0.08680025  1
  O  O477  1  0.98356823  0.91743198  0.33681901  1
  O  O478  1  0.98261501  0.91626718  0.58416562  1
  O  O479  1  0.98446308  0.91661892  0.83691567  1
  O  O480  1  0.08609142  0.31458412  0.07735700  1
  O  O481  1  0.08702304  0.31584026  0.32787889  1
  O  O482  1  0.08871202  0.31500880  0.57735456  1
  O  O483  1  0.08603956  0.31524427  0.82723263  1
  O  O484  1  0.08689137  0.64724176  0.07724172  1
  O  O485  1  0.08884990  0.64696986  0.32756345  1
  O  O486  1  0.08606882  0.64919344  0.57719806  1
  O  O487  1  0.08521031  0.64795921  0.82815015  1
  O  O488  1  0.08866140  0.98359539  0.07861560  1
  O  O489  1  0.08761553  0.98212579  0.32678973  1
  O  O490  1  0.08665611  0.98070999  0.57556548  1
  O  O491  1  0.08775908  0.98199944  0.82889786  1
  O  O492  1  0.58732132  0.31456752  0.07728266  1
  O  O493  1  0.58857943  0.31379415  0.32809786  1
  O  O494  1  0.58886533  0.31530561  0.57682336  1
  O  O495  1  0.58772720  0.31621202  0.82695781  1
  O  O496  1  0.58821483  0.64700892  0.07675981  1
  O  O497  1  0.58746499  0.64957009  0.32740293  1
  O  O498  1  0.58678379  0.64792654  0.57794348  1
  O  O499  1  0.59033890  0.64667001  0.82691194  1
  O  O500  1  0.58725705  0.98329482  0.07783839  1
  O  O501  1  0.58864153  0.98223939  0.32716063  1
  O  O502  1  0.58805798  0.98176191  0.57744882  1
  O  O503  1  0.58962161  0.98178419  0.82722285  1
  O  O504  1  0.41353376  0.01850455  0.17319598  1
  O  O505  1  0.41288243  0.01793165  0.42305152  1
  O  O506  1  0.41178853  0.01841739  0.67217427  1
  O  O507  1  0.41266584  0.01967830  0.92251703  1
  O  O508  1  0.41355184  0.35131303  0.17254423  1
  O  O509  1  0.41116386  0.35149865  0.42309740  1
  O  O510  1  0.41121071  0.35243312  0.67220861  1
  O  O511  1  0.41506700  0.35041172  0.92229537  1
  O  O512  1  0.41283987  0.68503782  0.17168721  1
  O  O513  1  0.41453905  0.68549750  0.42308799  1
  O  O514  1  0.41226849  0.68373837  0.67249969  1
  O  O515  1  0.41363664  0.68473913  0.92240907  1
  O  O516  1  0.91296370  0.01930936  0.17371153  1
  O  O517  1  0.91077161  0.01838496  0.42179544  1
  O  O518  1  0.91205542  0.01688720  0.67100379  1
  O  O519  1  0.91391897  0.01918112  0.92322325  1
  O  O520  1  0.91301258  0.35041607  0.17166644  1
  O  O521  1  0.91455281  0.35045392  0.42246442  1
  O  O522  1  0.91114527  0.35254156  0.67345056  1
  O  O523  1  0.91113762  0.35115382  0.92247513  1
  O  O524  1  0.91180647  0.68495988  0.17226407  1
  O  O525  1  0.91231315  0.68576139  0.42165822  1
  O  O526  1  0.91379068  0.68533068  0.67209509  1
  O  O527  1  0.91268247  0.68445029  0.92329306  1
  O  O528  1  0.16314198  0.01833995  0.20183558  1
  O  O529  1  0.16354534  0.01867797  0.45219354  1
  O  O530  1  0.16059559  0.01999847  0.70307818  1
  O  O531  1  0.16099949  0.01749352  0.95363233  1
  O  O532  1  0.16298186  0.35112546  0.20136444  1
  O  O533  1  0.16313082  0.35164878  0.45169517  1
  O  O534  1  0.16113680  0.35036295  0.70399311  1
  O  O535  1  0.16083129  0.35163740  0.95233579  1
  O  O536  1  0.16291336  0.68583130  0.20195059  1
  O  O537  1  0.16150299  0.68440046  0.45363670  1
  O  O538  1  0.16009821  0.68462800  0.70214147  1
  O  O539  1  0.16138938  0.68578257  0.95157732  1
  O  O540  1  0.66257678  0.01768127  0.20273437  1
  O  O541  1  0.66314846  0.01950743  0.45112402  1
  O  O542  1  0.66267559  0.01887946  0.70266797  1
  O  O543  1  0.66139424  0.01867724  0.95427664  1
  O  O544  1  0.66117203  0.35223166  0.20142419  1
  O  O545  1  0.66310803  0.35040608  0.45269575  1
  O  O546  1  0.66323326  0.35131363  0.70352517  1
  O  O547  1  0.66251984  0.35068976  0.95255976  1
  O  O548  1  0.66084494  0.68535572  0.20321754  1
  O  O549  1  0.66211978  0.68492801  0.45221922  1
  O  O550  1  0.66332051  0.68435409  0.70272603  1
  O  O551  1  0.66421775  0.68474651  0.95256736  1
  O  O552  1  0.33883676  0.31521852  0.04763950  1
  O  O553  1  0.33913207  0.31478174  0.29595070  1
  O  O554  1  0.33558578  0.31522220  0.54732538  1
  O  O555  1  0.33639091  0.31499283  0.79952898  1
  O  O556  1  0.33855019  0.64817619  0.04770590  1
  O  O557  1  0.33883164  0.64742546  0.29703955  1
  O  O558  1  0.33615305  0.64734379  0.54865473  1
  O  O559  1  0.33721752  0.64808892  0.79767376  1
  O  O560  1  0.33662920  0.98153297  0.04858035  1
  O  O561  1  0.33688593  0.98308528  0.29667176  1
  O  O562  1  0.33534682  0.98263098  0.54718877  1
  O  O563  1  0.33641521  0.98203933  0.79804447  1
  O  O564  1  0.83715052  0.31597817  0.04752620  1
  O  O565  1  0.83962417  0.31393699  0.29741527  1
  O  O566  1  0.83709959  0.31424373  0.54725201  1
  O  O567  1  0.83679038  0.31550481  0.79847464  1
  O  O568  1  0.83620720  0.64836495  0.04685547  1
  O  O569  1  0.83529662  0.64784034  0.29737805  1
  O  O570  1  0.83803030  0.64841548  0.54816708  1
  O  O571  1  0.83847101  0.64720852  0.79819571  1
  O  O572  1  0.83580762  0.98112302  0.04809432  1
  O  O573  1  0.83673432  0.98281669  0.29769946  1
  O  O574  1  0.83882911  0.98326661  0.54656474  1
  O  O575  1  0.83664592  0.98201954  0.79750913  1
  O  O576  1  0.41345160  0.14858913  0.17266518  1
  O  O577  1  0.41293645  0.14779768  0.42328104  1
  O  O578  1  0.41170011  0.14866400  0.67208199  1
  O  O579  1  0.41307364  0.14986250  0.92183349  1
  O  O580  1  0.41385201  0.48143791  0.17276181  1
  O  O581  1  0.41070261  0.48141665  0.42274774  1
  O  O582  1  0.41174275  0.48269991  0.67189842  1
  O  O583  1  0.41469483  0.48041019  0.92271043  1
  O  O584  1  0.41299728  0.81556499  0.17208798  1
  O  O585  1  0.41454408  0.81552221  0.42322267  1
  O  O586  1  0.41217232  0.81412330  0.67298023  1
  O  O587  1  0.41373752  0.81503109  0.92252170  1
  O  O588  1  0.91301148  0.14927384  0.17279187  1
  O  O589  1  0.91071305  0.14856915  0.42183034  1
  O  O590  1  0.91158685  0.14722664  0.67188146  1
  O  O591  1  0.91367077  0.14924798  0.92238613  1
  O  O592  1  0.91322302  0.48051707  0.17278884  1
  O  O593  1  0.91405330  0.48059657  0.42230242  1
  O  O594  1  0.91145301  0.48263848  0.67237459  1
  O  O595  1  0.91134314  0.48124611  0.92266218  1
  O  O596  1  0.91154994  0.81530227  0.17206940  1
  O  O597  1  0.91282959  0.81610556  0.42149048  1
  O  O598  1  0.91420556  0.81555862  0.67236306  1
  O  O599  1  0.91293623  0.81447612  0.92401872  1
  O  O600  1  0.08604831  0.18455381  0.07787926  1
  O  O601  1  0.08741860  0.18578298  0.32750194  1
  O  O602  1  0.08834626  0.18509787  0.57673778  1
  O  O603  1  0.08615906  0.18522735  0.82715372  1
  O  O604  1  0.08692313  0.51693616  0.07767214  1
  O  O605  1  0.08848432  0.51667309  0.32807985  1
  O  O606  1  0.08655606  0.51926143  0.57656846  1
  O  O607  1  0.08471849  0.51776837  0.82777069  1
  O  O608  1  0.08948649  0.85344915  0.07759620  1
  O  O609  1  0.08736826  0.85217131  0.32674355  1
  O  O610  1  0.08655355  0.85069797  0.57696214  1
  O  O611  1  0.08789457  0.85151450  0.82920195  1
  O  O612  1  0.58701328  0.18463809  0.07731911  1
  O  O613  1  0.58816195  0.18366287  0.32837278  1
  O  O614  1  0.58900193  0.18542565  0.57667512  1
  O  O615  1  0.58831344  0.18626881  0.82667887  1
  O  O616  1  0.58766206  0.51696777  0.07760473  1
  O  O617  1  0.58856904  0.51942867  0.32680052  1
  O  O618  1  0.58616411  0.51793877  0.57727849  1
  O  O619  1  0.58990982  0.51659294  0.82769416  1
  O  O620  1  0.58767778  0.85320871  0.07699286  1
  O  O621  1  0.58872558  0.85210331  0.32742787  1
  O  O622  1  0.58833534  0.85171261  0.57804043  1
  O  O623  1  0.58931279  0.85178815  0.82700568  1
  O  O624  1  0.33904343  0.18531499  0.04743828  1
  O  O625  1  0.33903791  0.18443908  0.29580086  1
  O  O626  1  0.33562557  0.18498714  0.54727382  1
  O  O627  1  0.33630357  0.18517813  0.79919526  1
  O  O628  1  0.33852959  0.51819856  0.04812364  1
  O  O629  1  0.33843040  0.51694625  0.29631774  1
  O  O630  1  0.33589229  0.51725433  0.54795262  1
  O  O631  1  0.33724951  0.51801897  0.79783073  1
  O  O632  1  0.33652900  0.85161026  0.04819584  1
  O  O633  1  0.33673459  0.85288701  0.29761660  1
  O  O634  1  0.33527261  0.85236054  0.54776946  1
  O  O635  1  0.33629387  0.85188162  0.79816889  1
  O  O636  1  0.83775716  0.18594661  0.04823624  1
  O  O637  1  0.83901788  0.18389410  0.29662524  1
  O  O638  1  0.83706794  0.18416383  0.54647325  1
  O  O639  1  0.83670585  0.18563789  0.79909297  1
  O  O640  1  0.83668224  0.51798194  0.04698120  1
  O  O641  1  0.83476958  0.51785287  0.29776835  1
  O  O642  1  0.83873337  0.51845202  0.54788368  1
  O  O643  1  0.83758946  0.51711979  0.79767696  1
  O  O644  1  0.83556630  0.85098208  0.04749254  1
  O  O645  1  0.83679512  0.85288711  0.29826142  1
  O  O646  1  0.83956280  0.85311262  0.54764937  1
  O  O647  1  0.83693056  0.85190521  0.79749318  1
  O  O648  1  0.16354215  0.14817590  0.20085539  1
  O  O649  1  0.16381774  0.14883751  0.45203952  1
  O  O650  1  0.16120614  0.15016347  0.70377894  1
  O  O651  1  0.16050176  0.14760918  0.95245932  1
  O  O652  1  0.16302110  0.48099963  0.20145769  1
  O  O653  1  0.16314905  0.48179178  0.45191587  1
  O  O654  1  0.16096213  0.48052946  0.70305273  1
  O  O655  1  0.16079656  0.48157906  0.95239212  1
  O  O656  1  0.16273108  0.81599050  0.20285442  1
  O  O657  1  0.16134972  0.81497851  0.45365346  1
  O  O658  1  0.15978037  0.81459448  0.70243740  1
  O  O659  1  0.16168470  0.81591299  0.95268422  1
  O  O660  1  0.66244938  0.14762812  0.20200099  1
  O  O661  1  0.66361027  0.14941609  0.45141682  1
  O  O662  1  0.66268126  0.14931850  0.70304481  1
  O  O663  1  0.66153664  0.14904295  0.95396763  1
  O  O664  1  0.66170049  0.48234649  0.20189604  1
  O  O665  1  0.66215755  0.48049732  0.45293717  1
  O  O666  1  0.66367989  0.48150608  0.70326599  1
  O  O667  1  0.66184481  0.48085314  0.95272172  1
  O  O668  1  0.66131918  0.81573672  0.20347320  1
  O  O669  1  0.66199081  0.81491479  0.45205822  1
  O  O670  1  0.66312230  0.81481856  0.70263970  1
  O  O671  1  0.66391783  0.81506365  0.95287487  1
