# generated using pymatgen
data_Na2MnFe(PO4)2
_symmetry_space_group_name_H-M   'P 1'
_cell_length_a   21.09403619
_cell_length_b   18.94871947
_cell_length_c   20.05300492
_cell_angle_alpha   89.99988807
_cell_angle_beta   89.99807122
_cell_angle_gamma   89.99854769
_symmetry_Int_Tables_number   1
_chemical_formula_structural   Na2MnFe(PO4)2
_chemical_formula_sum   'Na96 Mn48 Fe48 P96 O384'
_cell_volume   8015.28580995
_cell_formula_units_Z   48
loop_
 _symmetry_equiv_pos_site_id
 _symmetry_equiv_pos_as_xyz
  1  'x, y, z'
loop_
 _atom_site_type_symbol
 _atom_site_label
 _atom_site_symmetry_multiplicity
 _atom_site_fract_x
 _atom_site_fract_y
 _atom_site_fract_z
 _atom_site_occupancy
  Na  Na0  1  0.00007654  -0.00082166  0.00044022  1
  Na  Na1  1  0.00250050  0.00055079  0.25035295  1
  Na  Na2  1  0.00239630  0.00042634  0.49859880  1
  Na  Na3  1  0.00208671  0.00046755  0.75028705  1
  Na  Na4  1  -0.00009484  0.33384752  0.00050026  1
  Na  Na5  1  -0.00192102  0.33313784  0.24982801  1
  Na  Na6  1  0.00001474  0.33373905  0.49905843  1
  Na  Na7  1  0.00039365  0.33340885  0.74998895  1
  Na  Na8  1  -0.00221910  0.66607634  0.00114140  1
  Na  Na9  1  -0.00188343  0.66672601  0.24970546  1
  Na  Na10  1  -0.00078470  0.66659150  0.50030998  1
  Na  Na11  1  0.00036373  0.66732099  0.74928242  1
  Na  Na12  1  0.49889255  -0.00062413  0.00105032  1
  Na  Na13  1  0.49998052  -0.00045505  0.25064212  1
  Na  Na14  1  0.49899930  -0.00065860  0.50019157  1
  Na  Na15  1  0.49883233  -0.00014619  0.74951730  1
  Na  Na16  1  0.49896185  0.33343218  0.00056123  1
  Na  Na17  1  0.49873921  0.33315295  0.24947748  1
  Na  Na18  1  0.50001155  0.33383837  0.49925235  1
  Na  Na19  1  0.49849185  0.33328674  0.75052482  1
  Na  Na20  1  0.50047334  0.66673361  -0.00029580  1
  Na  Na21  1  0.50092096  0.66637347  0.25018654  1
  Na  Na22  1  0.50015944  0.66683022  0.49945320  1
  Na  Na23  1  0.49879752  0.66607857  0.75013596  1
  Na  Na24  1  0.25052846  0.00014837  0.12575563  1
  Na  Na25  1  0.24931967  -0.00051589  0.37488261  1
  Na  Na26  1  0.25133855  0.00023097  0.62377245  1
  Na  Na27  1  0.24966472  -0.00080455  0.87523218  1
  Na  Na28  1  0.24969168  0.33432004  0.12538283  1
  Na  Na29  1  0.24810169  0.33402393  0.37522891  1
  Na  Na30  1  0.24723782  0.33306894  0.62590195  1
  Na  Na31  1  0.24974111  0.33405076  0.87490071  1
  Na  Na32  1  0.25066427  0.66675870  0.12503467  1
  Na  Na33  1  0.25030957  0.66652255  0.37418886  1
  Na  Na34  1  0.25134942  0.66680429  0.62572370  1
  Na  Na35  1  0.25121898  0.66673599  0.87475731  1
  Na  Na36  1  0.75013789  0.00032035  0.12517161  1
  Na  Na37  1  0.74799200  -0.00095298  0.37518091  1
  Na  Na38  1  0.74821299  -0.00066998  0.62464610  1
  Na  Na39  1  0.74982218  0.00017948  0.87510306  1
  Na  Na40  1  0.75202998  0.33359812  0.12468194  1
  Na  Na41  1  0.75407923  0.33434274  0.37552665  1
  Na  Na42  1  0.75242314  0.33322594  0.62482409  1
  Na  Na43  1  0.75170893  0.33379970  0.87399331  1
  Na  Na44  1  0.75051409  0.66658728  0.12437369  1
  Na  Na45  1  0.75155393  0.66741722  0.37508373  1
  Na  Na46  1  0.74898881  0.66627722  0.62522976  1
  Na  Na47  1  0.74965422  0.66687327  0.87537273  1
  Na  Na48  1  0.00160464  0.16585319  0.00018967  1
  Na  Na49  1  -0.00045915  0.16691981  0.25094301  1
  Na  Na50  1  0.00086204  0.16595666  0.49908059  1
  Na  Na51  1  -0.00038492  0.16785186  0.75091143  1
  Na  Na52  1  -0.00204219  0.50146738  0.00080868  1
  Na  Na53  1  -0.00113248  0.50050892  0.24927765  1
  Na  Na54  1  0.00124152  0.50011854  0.49978392  1
  Na  Na55  1  0.00284661  0.49928405  0.74921747  1
  Na  Na56  1  -0.00071572  0.83278278  0.00141793  1
  Na  Na57  1  0.00037243  0.83240887  0.24954261  1
  Na  Na58  1  0.00028259  0.83261998  0.49930129  1
  Na  Na59  1  -0.00023463  0.83274094  0.74932214  1
  Na  Na60  1  0.50117048  0.16719103  0.00020294  1
  Na  Na61  1  0.50109776  0.16635180  0.24980997  1
  Na  Na62  1  0.50049724  0.16621099  0.50000586  1
  Na  Na63  1  0.49860255  0.16762263  0.74960846  1
  Na  Na64  1  0.49776306  0.50076019  0.00060075  1
  Na  Na65  1  0.49893864  0.50024756  0.25023705  1
  Na  Na66  1  0.49961029  0.50026242  0.49899222  1
  Na  Na67  1  0.49822327  0.50086723  0.75092314  1
  Na  Na68  1  0.49911375  0.83290705  0.00045330  1
  Na  Na69  1  0.50027181  0.83325998  0.25015969  1
  Na  Na70  1  0.49851967  0.83370616  0.49969274  1
  Na  Na71  1  0.49953727  0.83202845  0.74977726  1
  Na  Na72  1  0.24730312  0.16770363  0.12518421  1
  Na  Na73  1  0.24881060  0.16632623  0.37471532  1
  Na  Na74  1  0.24879969  0.16678597  0.62503231  1
  Na  Na75  1  0.25001818  0.16634618  0.87586411  1
  Na  Na76  1  0.25205017  0.49944798  0.12477154  1
  Na  Na77  1  0.24810657  0.50062608  0.37538158  1
  Na  Na78  1  0.24919416  0.50008185  0.62556067  1
  Na  Na79  1  0.25004480  0.50058678  0.87459953  1
  Na  Na80  1  0.25042302  0.83286316  0.12625706  1
  Na  Na81  1  0.25047739  0.83341089  0.37422170  1
  Na  Na82  1  0.25286388  0.83202498  0.62468149  1
  Na  Na83  1  0.25143482  0.83233471  0.87432452  1
  Na  Na84  1  0.74982133  0.16729483  0.12510263  1
  Na  Na85  1  0.75128373  0.16626469  0.37553380  1
  Na  Na86  1  0.75145633  0.16723729  0.62423966  1
  Na  Na87  1  0.75116709  0.16742472  0.87413120  1
  Na  Na88  1  0.75307911  0.49956329  0.12433651  1
  Na  Na89  1  0.75239522  0.50036538  0.37446626  1
  Na  Na90  1  0.75082552  0.50043205  0.62457790  1
  Na  Na91  1  0.75115770  0.50032881  0.87527778  1
  Na  Na92  1  0.74955834  0.83254993  0.12450059  1
  Na  Na93  1  0.74905247  0.83281984  0.37591716  1
  Na  Na94  1  0.74815271  0.83277862  0.62580688  1
  Na  Na95  1  0.74844116  0.83229876  0.87508314  1
  Mn  Mn96  1  0.64361548  0.58317935  0.24747087  1
  Mn  Mn97  1  0.35738238  0.08348422  0.00305684  1
  Mn  Mn98  1  0.14248409  0.91582189  0.74739390  1
  Mn  Mn99  1  0.60815105  0.41724860  0.12290932  1
  Mn  Mn100  1  0.14156005  0.25018305  0.74795920  1
  Mn  Mn101  1  0.85809631  0.08245141  0.50247953  1
  Mn  Mn102  1  0.14237053  0.58370469  0.49743680  1
  Mn  Mn103  1  0.60739122  0.41696073  0.87331979  1
  Mn  Mn104  1  0.35668433  0.41651974  0.50237949  1
  Mn  Mn105  1  0.89182670  0.91690834  0.12802468  1
  Mn  Mn106  1  0.39160262  0.24915089  0.37768712  1
  Mn  Mn107  1  0.60793194  0.75037414  0.37284071  1
  Mn  Mn108  1  0.10716013  0.75004812  0.12254533  1
  Mn  Mn109  1  0.64260218  0.25047194  0.74782690  1
  Mn  Mn110  1  0.60722276  0.08312351  0.62244780  1
  Mn  Mn111  1  0.89233560  0.91628739  0.37712749  1
  Mn  Mn112  1  0.14133791  0.25035715  0.24757436  1
  Mn  Mn113  1  0.64147671  0.58255841  0.74806268  1
  Mn  Mn114  1  0.89222359  0.91594517  0.87732570  1
  Mn  Mn115  1  0.14274242  0.91590471  0.99819430  1
  Mn  Mn116  1  0.64166844  0.91669892  0.99760975  1
  Mn  Mn117  1  0.89256540  0.58301597  0.62736328  1
  Mn  Mn118  1  0.10711801  0.41669706  0.12254443  1
  Mn  Mn119  1  0.14333158  0.91632135  0.49762164  1
  Mn  Mn120  1  0.35691519  0.41677101  0.75222029  1
  Mn  Mn121  1  0.64119426  0.91704520  0.74774047  1
  Mn  Mn122  1  0.39192323  0.25005343  0.12732631  1
  Mn  Mn123  1  0.35728958  0.08406757  0.25254840  1
  Mn  Mn124  1  0.39191377  0.58352395  0.37723545  1
  Mn  Mn125  1  0.10788824  0.08286718  0.87269358  1
  Mn  Mn126  1  0.60797528  0.41724928  0.62244174  1
  Mn  Mn127  1  0.60760073  0.08349388  0.87249843  1
  Mn  Mn128  1  0.39190850  0.91686342  0.87771598  1
  Mn  Mn129  1  0.64332630  0.25046299  0.49757614  1
  Mn  Mn130  1  0.35772393  0.74935767  0.25215390  1
  Mn  Mn131  1  0.10855673  0.75048967  0.62224743  1
  Mn  Mn132  1  0.85872752  0.08264613  0.75163147  1
  Mn  Mn133  1  0.85796576  0.08321842  0.00243184  1
  Mn  Mn134  1  0.89227697  0.24942490  0.12678295  1
  Mn  Mn135  1  0.85937290  0.41728944  0.75234101  1
  Mn  Mn136  1  0.89193050  0.91761894  0.62673900  1
  Mn  Mn137  1  0.85726892  0.75011759  0.75241578  1
  Mn  Mn138  1  0.60876425  0.41580543  0.37256343  1
  Mn  Mn139  1  0.64368031  0.25033421  0.24844659  1
  Mn  Mn140  1  0.14238291  0.58361184  0.99779932  1
  Mn  Mn141  1  0.35750666  0.08350397  0.75230054  1
  Mn  Mn142  1  0.39120520  0.25060397  0.62667731  1
  Mn  Mn143  1  0.60828658  0.08333065  0.12296956  1
  Fe  Fe144  1  0.85773640  0.08255710  0.25224582  1
  Fe  Fe145  1  0.64159868  0.91618652  0.49826860  1
  Fe  Fe146  1  0.35678308  0.08357038  0.50127372  1
  Fe  Fe147  1  0.10731708  0.74964764  0.37329219  1
  Fe  Fe148  1  0.64309047  0.25116765  0.99778999  1
  Fe  Fe149  1  0.89192703  0.58380962  0.12706685  1
  Fe  Fe150  1  0.60626234  0.74954101  0.87374370  1
  Fe  Fe151  1  0.64315260  0.58307215  0.49843855  1
  Fe  Fe152  1  0.10615686  0.41748701  0.37268393  1
  Fe  Fe153  1  0.35770922  0.74986429  0.50164166  1
  Fe  Fe154  1  0.10763521  0.08293419  0.37287582  1
  Fe  Fe155  1  0.39206276  0.25047633  0.87779428  1
  Fe  Fe156  1  0.14161542  0.24964197  0.49817883  1
  Fe  Fe157  1  0.35652152  0.41668033  0.25192908  1
  Fe  Fe158  1  0.14295278  0.58417883  0.74909534  1
  Fe  Fe159  1  0.89331910  0.25065160  0.87719595  1
  Fe  Fe160  1  0.39305323  0.58376080  0.12679669  1
  Fe  Fe161  1  0.64317154  0.58252820  0.99845881  1
  Fe  Fe162  1  0.35768280  0.74945504  0.75206665  1
  Fe  Fe163  1  0.85844418  0.41762185  0.50180502  1
  Fe  Fe164  1  0.60602886  0.74946591  0.62320204  1
  Fe  Fe165  1  0.39283059  0.91708236  0.37661920  1
  Fe  Fe166  1  0.39213814  0.58282741  0.87752544  1
  Fe  Fe167  1  0.85786958  0.41718015  0.00070511  1
  Fe  Fe168  1  0.39272991  0.58347792  0.62641103  1
  Fe  Fe169  1  0.85836781  0.41674184  0.25229933  1
  Fe  Fe170  1  0.35682828  0.41682658  0.00179007  1
  Fe  Fe171  1  0.14206900  0.58371581  0.24826927  1
  Fe  Fe172  1  0.85673849  0.75076273  0.25214120  1
  Fe  Fe173  1  0.14264507  0.25072325  0.99799668  1
  Fe  Fe174  1  0.10709001  0.08309407  0.12359287  1
  Fe  Fe175  1  0.10757406  0.74911434  0.87392256  1
  Fe  Fe176  1  0.85669276  0.74970547  0.00110381  1
  Fe  Fe177  1  0.89359587  0.24994303  0.37687701  1
  Fe  Fe178  1  0.14301407  0.91587608  0.24837307  1
  Fe  Fe179  1  0.10799524  0.08345482  0.62294065  1
  Fe  Fe180  1  0.10718831  0.41779937  0.87440687  1
  Fe  Fe181  1  0.89333394  0.58361025  0.37688156  1
  Fe  Fe182  1  0.64259209  0.91656499  0.24857814  1
  Fe  Fe183  1  0.85676241  0.75023298  0.50163871  1
  Fe  Fe184  1  0.39298104  0.91611874  0.62630926  1
  Fe  Fe185  1  0.10715347  0.41608339  0.62254688  1
  Fe  Fe186  1  0.89317869  0.58348757  0.87625011  1
  Fe  Fe187  1  0.35795413  0.74948809  0.00219056  1
  Fe  Fe188  1  0.60731286  0.74943460  0.12328083  1
  Fe  Fe189  1  0.39301248  0.91614013  0.12737907  1
  Fe  Fe190  1  0.60725627  0.08354869  0.37368861  1
  Fe  Fe191  1  0.89429660  0.24949616  0.62604838  1
  P  P192  1  0.05393726  0.24935102  0.10956444  1
  P  P193  1  0.05352685  0.25040850  0.36129677  1
  P  P194  1  0.05335523  0.24978902  0.60929240  1
  P  P195  1  0.05366221  0.25146001  0.86178547  1
  P  P196  1  0.05278075  0.58354599  0.11119002  1
  P  P197  1  0.05282077  0.58386977  0.35944339  1
  P  P198  1  0.05501091  0.58325648  0.61104832  1
  P  P199  1  0.05292279  0.58381014  0.86010667  1
  P  P200  1  0.05443472  0.91715640  0.11152142  1
  P  P201  1  0.05455022  0.91572600  0.35948244  1
  P  P202  1  0.05356827  0.91720067  0.60928224  1
  P  P203  1  0.05365193  0.91459653  0.86028818  1
  P  P204  1  0.55449861  0.25068347  0.10960711  1
  P  P205  1  0.55349199  0.24911234  0.35986155  1
  P  P206  1  0.55299154  0.25056970  0.60960495  1
  P  P207  1  0.55303726  0.25075052  0.86109997  1
  P  P208  1  0.55336768  0.58372972  0.10970326  1
  P  P209  1  0.55501157  0.58303995  0.36074917  1
  P  P210  1  0.55248339  0.58399434  0.60944691  1
  P  P211  1  0.55288298  0.58356810  0.86179759  1
  P  P212  1  0.55366143  0.91553998  0.11167573  1
  P  P213  1  0.55412529  0.91745815  0.36077225  1
  P  P214  1  0.55237544  0.91531690  0.60954254  1
  P  P215  1  0.55264503  0.91571114  0.86016422  1
  P  P216  1  0.44666723  0.08282059  0.14049397  1
  P  P217  1  0.44693792  0.08248991  0.39041778  1
  P  P218  1  0.44476887  0.08280129  0.63841830  1
  P  P219  1  0.44632771  0.08441391  0.89052249  1
  P  P220  1  0.44455695  0.41778237  0.13956636  1
  P  P221  1  0.44535426  0.41646576  0.38891684  1
  P  P222  1  0.44628660  0.41782126  0.63994832  1
  P  P223  1  0.44522705  0.41670577  0.89087842  1
  P  P224  1  0.44672131  0.74927654  0.13903564  1
  P  P225  1  0.44590863  0.75078341  0.39019092  1
  P  P226  1  0.44539417  0.74956134  0.63890567  1
  P  P227  1  0.44547188  0.74901782  0.88962968  1
  P  P228  1  0.94732139  0.08324021  0.14109345  1
  P  P229  1  0.94686539  0.08306101  0.38864568  1
  P  P230  1  0.94879170  0.08386538  0.63952522  1
  P  P231  1  0.94698793  0.08370565  0.89023897  1
  P  P232  1  0.94428350  0.41733925  0.13912517  1
  P  P233  1  0.94598700  0.41748183  0.38894356  1
  P  P234  1  0.94736190  0.41598832  0.63839190  1
  P  P235  1  0.94770836  0.41756013  0.89031969  1
  P  P236  1  0.94388544  0.74944432  0.13952279  1
  P  P237  1  0.94593755  0.74940238  0.38917532  1
  P  P238  1  0.94534985  0.75038715  0.63863933  1
  P  P239  1  0.94736450  0.74884733  0.89054461  1
  P  P240  1  0.19441067  0.08231787  0.23567293  1
  P  P241  1  0.19575830  0.08384921  0.48530836  1
  P  P242  1  0.19598735  0.08303665  0.73416939  1
  P  P243  1  0.19533564  0.08359568  0.98653729  1
  P  P244  1  0.19546175  0.41817982  0.23606904  1
  P  P245  1  0.19380145  0.41592258  0.48546154  1
  P  P246  1  0.19383989  0.41818455  0.73616485  1
  P  P247  1  0.19698758  0.41688713  0.98474474  1
  P  P248  1  0.19494001  0.74942264  0.23624791  1
  P  P249  1  0.19806916  0.74993138  0.48407919  1
  P  P250  1  0.19695403  0.74889159  0.73621199  1
  P  P251  1  0.19794015  0.74977700  0.98459189  1
  P  P252  1  0.69701245  0.08273015  0.23669714  1
  P  P253  1  0.69600060  0.08274824  0.48456073  1
  P  P254  1  0.69699403  0.08399247  0.73439220  1
  P  P255  1  0.69670715  0.08453262  0.98479172  1
  P  P256  1  0.69935577  0.41671641  0.23495815  1
  P  P257  1  0.69882067  0.41759859  0.48495852  1
  P  P258  1  0.69752054  0.41681265  0.73468708  1
  P  P259  1  0.69818364  0.41718490  0.98506542  1
  P  P260  1  0.69692154  0.75048080  0.23458709  1
  P  P261  1  0.69574025  0.74931905  0.48671592  1
  P  P262  1  0.69374070  0.74934782  0.73561786  1
  P  P263  1  0.69525227  0.74851897  0.98584911  1
  P  P264  1  0.30268031  0.25112825  0.01429509  1
  P  P265  1  0.30260203  0.25107708  0.26518417  1
  P  P266  1  0.30086152  0.24949395  0.51481718  1
  P  P267  1  0.30324163  0.25016861  0.76598149  1
  P  P268  1  0.30520522  0.58343625  0.01443671  1
  P  P269  1  0.30317780  0.58252232  0.26373284  1
  P  P270  1  0.30373786  0.58401370  0.51559547  1
  P  P271  1  0.30440230  0.58391925  0.76440167  1
  P  P272  1  0.30438645  0.91531188  0.01623250  1
  P  P273  1  0.30431064  0.91651654  0.26452958  1
  P  P274  1  0.30579354  0.91662326  0.51359255  1
  P  P275  1  0.30486007  0.91571167  0.76347912  1
  P  P276  1  0.80387512  0.25106228  0.01340260  1
  P  P277  1  0.80529386  0.24957595  0.26568131  1
  P  P278  1  0.80670804  0.25078918  0.51416806  1
  P  P279  1  0.80648974  0.25001912  0.76414354  1
  P  P280  1  0.80465628  0.58364659  0.01367307  1
  P  P281  1  0.80584578  0.58404081  0.26425818  1
  P  P282  1  0.80425249  0.58380132  0.51361505  1
  P  P283  1  0.80386766  0.58366319  0.76593832  1
  P  P284  1  0.80302212  0.91553262  0.01501606  1
  P  P285  1  0.80192059  0.91619780  0.26522033  1
  P  P286  1  0.80151295  0.91559327  0.51492975  1
  P  P287  1  0.80262153  0.91647832  0.76527287  1
  O  O288  1  0.05632067  0.25060316  0.18638969  1
  O  O289  1  0.05775537  0.25005847  0.43793012  1
  O  O290  1  0.05620223  0.24992924  0.68605727  1
  O  O291  1  0.05855443  0.25086461  0.93841493  1
  O  O292  1  0.05789807  0.58362770  0.18774525  1
  O  O293  1  0.05643840  0.58414376  0.43614827  1
  O  O294  1  0.05910509  0.58433812  0.68770895  1
  O  O295  1  0.05602727  0.58400747  0.93685018  1
  O  O296  1  0.05883666  0.91606114  0.18816620  1
  O  O297  1  0.05768305  0.91561647  0.43622625  1
  O  O298  1  0.05658595  0.91617790  0.68603334  1
  O  O299  1  0.05662777  0.91502737  0.93705058  1
  O  O300  1  0.55830028  0.25084056  0.18634244  1
  O  O301  1  0.55704836  0.25029344  0.43657185  1
  O  O302  1  0.55621836  0.25068129  0.68637717  1
  O  O303  1  0.55890051  0.25110793  0.93770785  1
  O  O304  1  0.55743615  0.58287303  0.18640691  1
  O  O305  1  0.55977368  0.58282993  0.43743748  1
  O  O306  1  0.55565501  0.58307577  0.68619403  1
  O  O307  1  0.55833512  0.58269613  0.93833175  1
  O  O308  1  0.55873419  0.91622453  0.18833526  1
  O  O309  1  0.55866428  0.91637238  0.43746897  1
  O  O310  1  0.55566141  0.91614033  0.68624063  1
  O  O311  1  0.55561427  0.91625150  0.93696995  1
  O  O312  1  0.44327497  0.08358205  0.06376975  1
  O  O313  1  0.44322666  0.08336698  0.31372695  1
  O  O314  1  0.44056182  0.08381190  0.56171228  1
  O  O315  1  0.44335764  0.08403279  0.81372532  1
  O  O316  1  0.44027361  0.41670987  0.06285829  1
  O  O317  1  0.44056841  0.41660441  0.31220677  1
  O  O318  1  0.44307715  0.41699064  0.56319963  1
  O  O319  1  0.44238061  0.41677171  0.81411453  1
  O  O320  1  0.44241003  0.74942702  0.06239791  1
  O  O321  1  0.44302729  0.74970130  0.31340647  1
  O  O322  1  0.44136157  0.74941753  0.56221503  1
  O  O323  1  0.44116804  0.74932790  0.81290120  1
  O  O324  1  0.94336042  0.08277329  0.06439682  1
  O  O325  1  0.94163332  0.08219853  0.31206728  1
  O  O326  1  0.94484517  0.08260891  0.56282818  1
  O  O327  1  0.94431777  0.08329464  0.81347826  1
  O  O328  1  0.94037166  0.41692643  0.06237716  1
  O  O329  1  0.94176028  0.41727834  0.31220070  1
  O  O330  1  0.94272070  0.41747063  0.56174443  1
  O  O331  1  0.94505923  0.41730734  0.81357384  1
  O  O332  1  0.93957638  0.75009009  0.06283517  1
  O  O333  1  0.94103468  0.75068094  0.31254156  1
  O  O334  1  0.94043440  0.75029606  0.56190917  1
  O  O335  1  0.94378547  0.74972488  0.81383288  1
  O  O336  1  0.19129876  0.08313891  0.06326350  1
  O  O337  1  0.19043348  0.08309518  0.31252868  1
  O  O338  1  0.19128731  0.08329874  0.56199861  1
  O  O339  1  0.19290145  0.08282157  0.81100035  1
  O  O340  1  0.19318557  0.41746566  0.06144509  1
  O  O341  1  0.19019702  0.41777333  0.31272228  1
  O  O342  1  0.18997714  0.41647089  0.56230872  1
  O  O343  1  0.18997490  0.41747927  0.81291411  1
  O  O344  1  0.19334696  0.74960375  0.06126135  1
  O  O345  1  0.19097718  0.74923044  0.31293701  1
  O  O346  1  0.19440512  0.74997113  0.56080594  1
  O  O347  1  0.19194796  0.74941829  0.81278139  1
  O  O348  1  0.69374976  0.08396577  0.06163523  1
  O  O349  1  0.69194602  0.08321081  0.31326703  1
  O  O350  1  0.69283231  0.08366889  0.56132784  1
  O  O351  1  0.69368502  0.08410630  0.81115918  1
  O  O352  1  0.69467451  0.41704208  0.06171190  1
  O  O353  1  0.69522885  0.41683207  0.31158936  1
  O  O354  1  0.69475587  0.41698043  0.56160635  1
  O  O355  1  0.69354500  0.41694607  0.81139763  1
  O  O356  1  0.69078996  0.74916678  0.06254079  1
  O  O357  1  0.69331142  0.74980651  0.31131382  1
  O  O358  1  0.69087295  0.74927436  0.56331690  1
  O  O359  1  0.68926926  0.74921783  0.81238476  1
  O  O360  1  0.30587898  0.25034309  0.18844284  1
  O  O361  1  0.30473678  0.25001401  0.43815450  1
  O  O362  1  0.30627088  0.25036761  0.68918732  1
  O  O363  1  0.30750555  0.25028025  0.93767200  1
  O  O364  1  0.30819197  0.58343235  0.18714168  1
  O  O365  1  0.30649526  0.58322619  0.43879648  1
  O  O366  1  0.30893254  0.58325869  0.68776729  1
  O  O367  1  0.30877230  0.58356402  0.93762527  1
  O  O368  1  0.30948736  0.91639907  0.18787974  1
  O  O369  1  0.30903700  0.91684354  0.43678627  1
  O  O370  1  0.30901871  0.91616194  0.68675323  1
  O  O371  1  0.30697022  0.91617676  0.93938758  1
  O  O372  1  0.80729658  0.24922064  0.18884904  1
  O  O373  1  0.81111639  0.24979794  0.43738540  1
  O  O374  1  0.81117796  0.24994431  0.68739309  1
  O  O375  1  0.80907438  0.25054257  0.93676415  1
  O  O376  1  0.80881506  0.58377606  0.18741904  1
  O  O377  1  0.80903723  0.58383938  0.43696136  1
  O  O378  1  0.80727530  0.58357948  0.68916749  1
  O  O379  1  0.80918317  0.58379975  0.93703142  1
  O  O380  1  0.80552233  0.91655647  0.18857062  1
  O  O381  1  0.80588027  0.91609882  0.43831033  1
  O  O382  1  0.80604657  0.91647760  0.68851847  1
  O  O383  1  0.80611700  0.91586633  0.93828177  1
  O  O384  1  0.23238520  0.25122565  0.03820919  1
  O  O385  1  0.23283832  0.25044865  0.29000127  1
  O  O386  1  0.23089271  0.24973422  0.53951721  1
  O  O387  1  0.23339198  0.25022062  0.79062653  1
  O  O388  1  0.23520723  0.58333782  0.03889146  1
  O  O389  1  0.23294601  0.58343179  0.28768904  1
  O  O390  1  0.23404596  0.58349229  0.54063524  1
  O  O391  1  0.23410296  0.58374884  0.78831889  1
  O  O392  1  0.23477527  0.91594633  0.04150331  1
  O  O393  1  0.23382478  0.91617203  0.28765677  1
  O  O394  1  0.23590583  0.91615560  0.53841501  1
  O  O395  1  0.23499868  0.91590858  0.78803393  1
  O  O396  1  0.73362547  0.25098333  0.03726949  1
  O  O397  1  0.73581340  0.25019075  0.29156449  1
  O  O398  1  0.73655129  0.25014910  0.53791583  1
  O  O399  1  0.73631169  0.25060048  0.78776971  1
  O  O400  1  0.73434582  0.58326761  0.03775804  1
  O  O401  1  0.73598684  0.58423687  0.28907171  1
  O  O402  1  0.73401816  0.58333654  0.53772622  1
  O  O403  1  0.73409367  0.58357811  0.79056285  1
  O  O404  1  0.73335117  0.91616177  0.04017268  1
  O  O405  1  0.73194239  0.91586765  0.29002827  1
  O  O406  1  0.73133542  0.91598663  0.53909685  1
  O  O407  1  0.73294336  0.91639846  0.79022650  1
  O  O408  1  0.26446854  0.08368279  0.21167611  1
  O  O409  1  0.26611846  0.08303599  0.46151055  1
  O  O410  1  0.26567719  0.08338197  0.70934879  1
  O  O411  1  0.26526413  0.08288217  0.96205492  1
  O  O412  1  0.26573000  0.41731212  0.21240800  1
  O  O413  1  0.26382511  0.41722163  0.46137841  1
  O  O414  1  0.26388151  0.41691530  0.71191959  1
  O  O415  1  0.26707168  0.41743255  0.96042759  1
  O  O416  1  0.26495349  0.74955066  0.21194731  1
  O  O417  1  0.26816164  0.75005312  0.45978294  1
  O  O418  1  0.26729395  0.74904701  0.71252387  1
  O  O419  1  0.26818884  0.74942851  0.96093343  1
  O  O420  1  0.76737089  0.08321656  0.21287153  1
  O  O421  1  0.76592093  0.08281602  0.45998287  1
  O  O422  1  0.76658930  0.08333498  0.70912912  1
  O  O423  1  0.76635291  0.08387864  0.95961139  1
  O  O424  1  0.76953427  0.41666466  0.21094300  1
  O  O425  1  0.76899457  0.41751716  0.46076787  1
  O  O426  1  0.76738427  0.41701951  0.71026638  1
  O  O427  1  0.76821168  0.41748959  0.96022953  1
  O  O428  1  0.76704326  0.74992629  0.21036744  1
  O  O429  1  0.76602284  0.74978462  0.46262330  1
  O  O430  1  0.76391632  0.74935612  0.71198946  1
  O  O431  1  0.76564509  0.74911353  0.96211785  1
  O  O432  1  0.01741241  0.08379862  0.16524573  1
  O  O433  1  0.01744692  0.08271791  0.41169601  1
  O  O434  1  0.01868702  0.08407216  0.66437515  1
  O  O435  1  0.01660980  0.08288293  0.91557809  1
  O  O436  1  0.01432702  0.41660401  0.16326834  1
  O  O437  1  0.01638999  0.41761338  0.41264095  1
  O  O438  1  0.01759890  0.41600000  0.66235541  1
  O  O439  1  0.01757517  0.41788329  0.91568875  1
  O  O440  1  0.01408642  0.74972201  0.16309630  1
  O  O441  1  0.01644757  0.74964705  0.41258170  1
  O  O442  1  0.01552066  0.75023515  0.66212567  1
  O  O443  1  0.01731122  0.74900307  0.91550974  1
  O  O444  1  0.51641819  0.08299338  0.16534751  1
  O  O445  1  0.51696425  0.08278408  0.41491760  1
  O  O446  1  0.51468741  0.08319901  0.66291680  1
  O  O447  1  0.51586789  0.08356507  0.91598133  1
  O  O448  1  0.51471657  0.41699170  0.16352484  1
  O  O449  1  0.51548643  0.41665001  0.41262070  1
  O  O450  1  0.51577620  0.41737102  0.66556284  1
  O  O451  1  0.51491142  0.41698039  0.91611463  1
  O  O452  1  0.51688623  0.74913926  0.16342393  1
  O  O453  1  0.51566206  0.75040490  0.41496943  1
  O  O454  1  0.51562939  0.74936206  0.66313197  1
  O  O455  1  0.51577804  0.74960597  0.91352495  1
  O  O456  1  0.48441964  0.25047032  0.08566099  1
  O  O457  1  0.48377732  0.24939816  0.33488123  1
  O  O458  1  0.48327327  0.25046158  0.58455241  1
  O  O459  1  0.48252518  0.25091979  0.83813485  1
  O  O460  1  0.48320047  0.58363694  0.08567997  1
  O  O461  1  0.48485730  0.58343135  0.33709360  1
  O  O462  1  0.48246839  0.58386958  0.58474770  1
  O  O463  1  0.48243177  0.58314595  0.83845417  1
  O  O464  1  0.48329211  0.91583542  0.08807279  1
  O  O465  1  0.48373512  0.91668144  0.33716386  1
  O  O466  1  0.48231198  0.91581819  0.58508176  1
  O  O467  1  0.48310941  0.91590703  0.83477811  1
  O  O468  1  0.98427914  0.24972864  0.08439782  1
  O  O469  1  0.98323229  0.25047305  0.33718276  1
  O  O470  1  0.98352757  0.24987886  0.58401759  1
  O  O471  1  0.98339572  0.25116760  0.83790727  1
  O  O472  1  0.98235036  0.58375131  0.08799204  1
  O  O473  1  0.98267071  0.58353562  0.33518330  1
  O  O474  1  0.98508353  0.58343380  0.58659751  1
  O  O475  1  0.98304279  0.58348675  0.83488752  1
  O  O476  1  0.98441082  0.91639338  0.08747295  1
  O  O477  1  0.98473308  0.91613219  0.33460770  1
  O  O478  1  0.98409005  0.91677092  0.58358256  1
  O  O479  1  0.98410295  0.91576508  0.83481615  1
  O  O480  1  0.08839409  0.31414796  0.07691085  1
  O  O481  1  0.08652228  0.31566473  0.32811316  1
  O  O482  1  0.08748461  0.31473184  0.57674504  1
  O  O483  1  0.08667139  0.31665818  0.82870653  1
  O  O484  1  0.08610387  0.64830578  0.07750276  1
  O  O485  1  0.08656305  0.64884045  0.32649692  1
  O  O486  1  0.08859124  0.64802006  0.57738396  1
  O  O487  1  0.08707607  0.64882411  0.82741851  1
  O  O488  1  0.08743999  0.98265882  0.07889366  1
  O  O489  1  0.08903979  0.98068071  0.32732631  1
  O  O490  1  0.08765123  0.98251358  0.57750178  1
  O  O491  1  0.08853497  0.97930844  0.82804684  1
  O  O492  1  0.58818771  0.31577043  0.07667058  1
  O  O493  1  0.58772771  0.31388743  0.32690723  1
  O  O494  1  0.58707768  0.31558465  0.57706268  1
  O  O495  1  0.58620256  0.31572265  0.82747351  1
  O  O496  1  0.58726733  0.64873607  0.07716661  1
  O  O497  1  0.58837415  0.64823699  0.32780749  1
  O  O498  1  0.58648851  0.64914667  0.57718181  1
  O  O499  1  0.58563603  0.64879014  0.82845992  1
  O  O500  1  0.58696570  0.98047701  0.07814596  1
  O  O501  1  0.58719518  0.98278412  0.32786698  1
  O  O502  1  0.58658523  0.98000643  0.57654506  1
  O  O503  1  0.58675004  0.98076688  0.82771911  1
  O  O504  1  0.41274338  0.01768684  0.17271371  1
  O  O505  1  0.41303701  0.01728804  0.42260394  1
  O  O506  1  0.41164111  0.01720440  0.67087586  1
  O  O507  1  0.41183211  0.01943312  0.92268570  1
  O  O508  1  0.41027871  0.35327302  0.17299047  1
  O  O509  1  0.41194995  0.35144286  0.42219139  1
  O  O510  1  0.41161545  0.35306491  0.67239491  1
  O  O511  1  0.41100909  0.35173036  0.92340308  1
  O  O512  1  0.41320693  0.68409398  0.17205330  1
  O  O513  1  0.41150879  0.68609855  0.42304162  1
  O  O514  1  0.41184476  0.68460063  0.67226896  1
  O  O515  1  0.41224610  0.68396716  0.92284805  1
  O  O516  1  0.91360909  0.01832497  0.17430797  1
  O  O517  1  0.91383623  0.01813665  0.42252445  1
  O  O518  1  0.91497278  0.01891605  0.67258280  1
  O  O519  1  0.91256333  0.01878417  0.92253153  1
  O  O520  1  0.91048810  0.35245845  0.17226198  1
  O  O521  1  0.91271254  0.35252465  0.42222704  1
  O  O522  1  0.91424322  0.35069251  0.67101768  1
  O  O523  1  0.91345854  0.35271441  0.92297251  1
  O  O524  1  0.91053360  0.68434728  0.17247441  1
  O  O525  1  0.91281481  0.68407532  0.42209916  1
  O  O526  1  0.91204270  0.68538755  0.67196881  1
  O  O527  1  0.91334590  0.68361869  0.92274791  1
  O  O528  1  0.16162339  0.01675596  0.20301709  1
  O  O529  1  0.16207202  0.01901096  0.45189004  1
  O  O530  1  0.16197468  0.01818253  0.70141955  1
  O  O531  1  0.16170271  0.01859133  0.95345116  1
  O  O532  1  0.16191734  0.35317443  0.20281948  1
  O  O533  1  0.16069077  0.35063861  0.45261041  1
  O  O534  1  0.15960459  0.35349793  0.70293300  1
  O  O535  1  0.16302259  0.35198277  0.95211350  1
  O  O536  1  0.16152755  0.68442095  0.20292908  1
  O  O537  1  0.16407008  0.68496992  0.45140521  1
  O  O538  1  0.16372111  0.68379988  0.70300460  1
  O  O539  1  0.16401372  0.68493183  0.95151588  1
  O  O540  1  0.66387766  0.01751235  0.20347694  1
  O  O541  1  0.66181100  0.01757795  0.45260850  1
  O  O542  1  0.66233427  0.01900301  0.70245089  1
  O  O543  1  0.66235833  0.01939008  0.95273984  1
  O  O544  1  0.66564089  0.35179138  0.20218123  1
  O  O545  1  0.66535871  0.35245024  0.45189071  1
  O  O546  1  0.66382667  0.35182161  0.70191960  1
  O  O547  1  0.66444988  0.35226661  0.95209019  1
  O  O548  1  0.66289898  0.68566554  0.20148963  1
  O  O549  1  0.66291757  0.68416125  0.45313280  1
  O  O550  1  0.66026468  0.68437757  0.70234204  1
  O  O551  1  0.66213821  0.68321461  0.95283501  1
  O  O552  1  0.33600743  0.31632441  0.04714245  1
  O  O553  1  0.33624211  0.31626344  0.29747681  1
  O  O554  1  0.33454801  0.31456818  0.54775255  1
  O  O555  1  0.33734574  0.31516104  0.79843746  1
  O  O556  1  0.33892802  0.64848621  0.04748604  1
  O  O557  1  0.33703167  0.64729508  0.29712726  1
  O  O558  1  0.33766616  0.64936941  0.54750450  1
  O  O559  1  0.33802149  0.64884513  0.79754147  1
  O  O560  1  0.33908808  0.97997160  0.04882478  1
  O  O561  1  0.33731400  0.98157684  0.29808868  1
  O  O562  1  0.33926769  0.98178902  0.54642862  1
  O  O563  1  0.33831148  0.98069980  0.79676767  1
  O  O564  1  0.83733611  0.31612061  0.04629429  1
  O  O565  1  0.84007749  0.31464471  0.29739648  1
  O  O566  1  0.83990435  0.31618656  0.54677354  1
  O  O567  1  0.84031701  0.31490055  0.79739795  1
  O  O568  1  0.83775112  0.64880560  0.04711364  1
  O  O569  1  0.83966175  0.64916911  0.29690359  1
  O  O570  1  0.83723591  0.64896479  0.54694297  1
  O  O571  1  0.83795964  0.64855697  0.79857414  1
  O  O572  1  0.83738769  0.98043663  0.04756966  1
  O  O573  1  0.83581131  0.98108514  0.29814281  1
  O  O574  1  0.83531713  0.98072120  0.54774297  1
  O  O575  1  0.83678846  0.98147907  0.79752969  1
  O  O576  1  0.41267306  0.14794731  0.17302490  1
  O  O577  1  0.41260125  0.14716644  0.42352767  1
  O  O578  1  0.41096646  0.14758284  0.67171661  1
  O  O579  1  0.41245118  0.14962311  0.92287168  1
  O  O580  1  0.41151400  0.48339316  0.17218271  1
  O  O581  1  0.41179221  0.48141768  0.42207660  1
  O  O582  1  0.41236428  0.48320979  0.67195105  1
  O  O583  1  0.41081553  0.48168531  0.92312491  1
  O  O584  1  0.41317487  0.81416350  0.17232650  1
  O  O585  1  0.41199635  0.81605592  0.42209027  1
  O  O586  1  0.41197929  0.81473484  0.67192739  1
  O  O587  1  0.41179285  0.81380735  0.92303008  1
  O  O588  1  0.91320893  0.14821374  0.17346484  1
  O  O589  1  0.91409445  0.14822537  0.42187186  1
  O  O590  1  0.91489522  0.14906453  0.67158925  1
  O  O591  1  0.91343862  0.14910874  0.92249439  1
  O  O592  1  0.91096869  0.48251497  0.17203343  1
  O  O593  1  0.91275786  0.48267492  0.42215113  1
  O  O594  1  0.91416181  0.48079164  0.67230963  1
  O  O595  1  0.91337062  0.48262137  0.92243507  1
  O  O596  1  0.91037285  0.81424952  0.17326428  1
  O  O597  1  0.91235097  0.81406682  0.42303160  1
  O  O598  1  0.91207407  0.81541445  0.67188906  1
  O  O599  1  0.91296668  0.81349890  0.92357201  1
  O  O600  1  0.08811037  0.18410731  0.07797212  1
  O  O601  1  0.08684405  0.18539945  0.32814422  1
  O  O602  1  0.08745051  0.18478372  0.57678703  1
  O  O603  1  0.08698493  0.18649001  0.82825862  1
  O  O604  1  0.08573168  0.51850157  0.07764677  1
  O  O605  1  0.08675211  0.51886776  0.32668517  1
  O  O606  1  0.08835121  0.51792646  0.57848236  1
  O  O607  1  0.08731704  0.51885937  0.82790443  1
  O  O608  1  0.08823811  0.85246656  0.07796786  1
  O  O609  1  0.08840656  0.85056492  0.32696053  1
  O  O610  1  0.08813761  0.85239886  0.57674518  1
  O  O611  1  0.08716084  0.84909285  0.82802765  1
  O  O612  1  0.58854138  0.18574070  0.07703234  1
  O  O613  1  0.58722469  0.18354634  0.32805658  1
  O  O614  1  0.58720300  0.18556632  0.57735396  1
  O  O615  1  0.58593449  0.18563084  0.82751350  1
  O  O616  1  0.58718911  0.51883248  0.07646512  1
  O  O617  1  0.58830886  0.51813618  0.32721590  1
  O  O618  1  0.58679124  0.51930836  0.57640888  1
  O  O619  1  0.58606866  0.51873588  0.82785313  1
  O  O620  1  0.58662246  0.85032862  0.07847551  1
  O  O621  1  0.58791425  0.85277463  0.32711822  1
  O  O622  1  0.58593937  0.85002550  0.57706906  1
  O  O623  1  0.58660164  0.85046250  0.82826595  1
  O  O624  1  0.33581398  0.18618791  0.04809009  1
  O  O625  1  0.33667634  0.18607511  0.29782063  1
  O  O626  1  0.33477867  0.18442140  0.54714778  1
  O  O627  1  0.33733702  0.18521733  0.79845178  1
  O  O628  1  0.33899665  0.51839650  0.04715106  1
  O  O629  1  0.33606951  0.51731261  0.29704960  1
  O  O630  1  0.33817345  0.51930899  0.54834917  1
  O  O631  1  0.33773800  0.51896941  0.79799057  1
  O  O632  1  0.33833122  0.84985969  0.04808143  1
  O  O633  1  0.33785543  0.85165163  0.29780935  1
  O  O634  1  0.33978707  0.85157997  0.54628141  1
  O  O635  1  0.33842949  0.85050908  0.79618974  1
  O  O636  1  0.83703886  0.18606470  0.04713447  1
  O  O637  1  0.83947580  0.18450074  0.29799665  1
  O  O638  1  0.84053985  0.18598530  0.54753605  1
  O  O639  1  0.83976640  0.18498732  0.79746362  1
  O  O640  1  0.83844590  0.51874656  0.04677259  1
  O  O641  1  0.83972377  0.51902592  0.29705899  1
  O  O642  1  0.83798664  0.51881859  0.54676699  1
  O  O643  1  0.83831772  0.51881759  0.79835823  1
  O  O644  1  0.83672547  0.85023598  0.04717279  1
  O  O645  1  0.83576420  0.85098308  0.29768424  1
  O  O646  1  0.83508955  0.85061156  0.54769472  1
  O  O647  1  0.83651432  0.85136522  0.79779307  1
  O  O648  1  0.15996036  0.14686779  0.20264713  1
  O  O649  1  0.16239786  0.14892969  0.45218840  1
  O  O650  1  0.16166045  0.14816629  0.70207232  1
  O  O651  1  0.16210892  0.14892228  0.95371887  1
  O  O652  1  0.16261172  0.48330265  0.20253330  1
  O  O653  1  0.15954583  0.48063042  0.45233699  1
  O  O654  1  0.16100050  0.48368774  0.70348088  1
  O  O655  1  0.16297503  0.48181625  0.95185061  1
  O  O656  1  0.16159386  0.81468873  0.20336437  1
  O  O657  1  0.16394300  0.81470739  0.45136088  1
  O  O658  1  0.16387590  0.81376412  0.70225524  1
  O  O659  1  0.16442832  0.81477803  0.95157333  1
  O  O660  1  0.66367467  0.14766890  0.20317879  1
  O  O661  1  0.66199536  0.14763653  0.45162238  1
  O  O662  1  0.66327662  0.14915070  0.70192990  1
  O  O663  1  0.66295184  0.14974540  0.95254253  1
  O  O664  1  0.66582020  0.48175412  0.20193191  1
  O  O665  1  0.66501819  0.48256142  0.45228033  1
  O  O666  1  0.66361527  0.48192154  0.70213179  1
  O  O667  1  0.66421859  0.48234115  0.95259820  1
  O  O668  1  0.66306166  0.81560260  0.20221570  1
  O  O669  1  0.66221247  0.81430478  0.45345831  1
  O  O670  1  0.66005950  0.81422492  0.70239064  1
  O  O671  1  0.66145357  0.81323959  0.95242170  1
