# generated using pymatgen
data_Na2MnFe(PO4)2
_symmetry_space_group_name_H-M   'P 1'
_cell_length_a   21.08110279
_cell_length_b   18.93339483
_cell_length_c   20.04064057
_cell_angle_alpha   90.00071759
_cell_angle_beta   90.00107577
_cell_angle_gamma   90.00022164
_symmetry_Int_Tables_number   1
_chemical_formula_structural   Na2MnFe(PO4)2
_chemical_formula_sum   'Na96 Mn48 Fe48 P96 O384'
_cell_volume   7998.95800117
_cell_formula_units_Z   48
loop_
 _symmetry_equiv_pos_site_id
 _symmetry_equiv_pos_as_xyz
  1  'x, y, z'
loop_
 _atom_site_type_symbol
 _atom_site_label
 _atom_site_symmetry_multiplicity
 _atom_site_fract_x
 _atom_site_fract_y
 _atom_site_fract_z
 _atom_site_occupancy
  Na  Na0  1  0.00162094  0.00016229  0.00111505  1
  Na  Na1  1  0.00126237  0.00041761  0.24989060  1
  Na  Na2  1  0.00028215  -0.00073189  0.49961982  1
  Na  Na3  1  0.00199710  0.00015284  0.74981413  1
  Na  Na4  1  0.00138927  0.33307782  -0.00057080  1
  Na  Na5  1  0.00007775  0.33275129  0.25135238  1
  Na  Na6  1  -0.00024937  0.33264594  0.49955582  1
  Na  Na7  1  0.00188467  0.33324396  0.75011050  1
  Na  Na8  1  0.00165667  0.66740452  0.00045327  1
  Na  Na9  1  0.00031303  0.66678563  0.25016233  1
  Na  Na10  1  0.00243801  0.66790277  0.49921233  1
  Na  Na11  1  0.00115732  0.66662151  0.75060406  1
  Na  Na12  1  0.49728394  -0.00102118  -0.00013145  1
  Na  Na13  1  0.49980418  -0.00002064  0.24936994  1
  Na  Na14  1  0.49678863  -0.00091807  0.50113798  1
  Na  Na15  1  0.49772637  0.00008413  0.74971568  1
  Na  Na16  1  0.49801854  0.33315760  0.00136316  1
  Na  Na17  1  0.49979744  0.33400121  0.24916552  1
  Na  Na18  1  0.49906114  0.33348288  0.49942063  1
  Na  Na19  1  0.49819389  0.33355966  0.74948257  1
  Na  Na20  1  0.49878357  0.66638175  -0.00033469  1
  Na  Na21  1  0.49889324  0.66669485  0.25151367  1
  Na  Na22  1  0.50015299  0.66688588  0.49977107  1
  Na  Na23  1  0.49984441  0.66647035  0.74855707  1
  Na  Na24  1  0.25146951  0.00001491  0.12502060  1
  Na  Na25  1  0.25084292  -0.00046648  0.37436224  1
  Na  Na26  1  0.25231535  0.00054407  0.62493971  1
  Na  Na27  1  0.25119349  -0.00005955  0.87510396  1
  Na  Na28  1  0.25030646  0.33377732  0.12394375  1
  Na  Na29  1  0.25067471  0.33419777  0.37477335  1
  Na  Na30  1  0.24838022  0.33307102  0.62611561  1
  Na  Na31  1  0.24838619  0.33314363  0.87584773  1
  Na  Na32  1  0.24891708  0.66645152  0.12449669  1
  Na  Na33  1  0.24993580  0.66751761  0.37428617  1
  Na  Na34  1  0.24703921  0.66619648  0.62603263  1
  Na  Na35  1  0.24770969  0.66649195  0.87566205  1
  Na  Na36  1  0.74927780  -0.00010499  0.12422270  1
  Na  Na37  1  0.74982791  -0.00029257  0.37532966  1
  Na  Na38  1  0.75080417  -0.00007276  0.62539114  1
  Na  Na39  1  0.74856910  -0.00089300  0.87500408  1
  Na  Na40  1  0.75103468  0.33287762  0.12370882  1
  Na  Na41  1  0.75007167  0.33263785  0.37447196  1
  Na  Na42  1  0.75152403  0.33353931  0.62623078  1
  Na  Na43  1  0.75202384  0.33318946  0.87485782  1
  Na  Na44  1  0.75059405  0.66706232  0.12410094  1
  Na  Na45  1  0.74958270  0.66656273  0.37463274  1
  Na  Na46  1  0.74924408  0.66581470  0.62595534  1
  Na  Na47  1  0.75124139  0.66682055  0.87540448  1
  Na  Na48  1  0.00051936  0.16685884  0.00018323  1
  Na  Na49  1  -0.00101380  0.16729658  0.25081610  1
  Na  Na50  1  0.00137637  0.16595892  0.49955252  1
  Na  Na51  1  0.00025662  0.16748239  0.75008939  1
  Na  Na52  1  0.00275477  0.49923482  0.00015350  1
  Na  Na53  1  0.00052163  0.50010892  0.25106976  1
  Na  Na54  1  0.00013489  0.50071584  0.49940899  1
  Na  Na55  1  0.00070847  0.50109217  0.75004250  1
  Na  Na56  1  0.00071614  0.83350995  0.00075738  1
  Na  Na57  1  0.00239030  0.83198565  0.24952221  1
  Na  Na58  1  0.00079699  0.83353332  0.49935779  1
  Na  Na59  1  0.00305138  0.83228102  0.75033724  1
  Na  Na60  1  0.49922121  0.16663033  -0.00003987  1
  Na  Na61  1  0.50211264  0.16566242  0.24896485  1
  Na  Na62  1  0.49902193  0.16662205  0.50006906  1
  Na  Na63  1  0.49677342  0.16709831  0.74965932  1
  Na  Na64  1  0.49629748  0.50132319  0.00037734  1
  Na  Na65  1  0.49739577  0.50086736  0.25049018  1
  Na  Na66  1  0.50024953  0.49958771  0.50001230  1
  Na  Na67  1  0.49969162  0.49988621  0.74888894  1
  Na  Na68  1  0.49862572  0.83361778  0.00053763  1
  Na  Na69  1  0.49845351  0.83366386  0.25040048  1
  Na  Na70  1  0.49665522  0.83437464  0.50023547  1
  Na  Na71  1  0.49854629  0.83355790  0.74910417  1
  Na  Na72  1  0.24887514  0.16687691  0.12509804  1
  Na  Na73  1  0.24912224  0.16701795  0.37440831  1
  Na  Na74  1  0.24993623  0.16609802  0.62553734  1
  Na  Na75  1  0.24987423  0.16626009  0.87521524  1
  Na  Na76  1  0.25079845  0.49992158  0.12405012  1
  Na  Na77  1  0.25023230  0.50040474  0.37397306  1
  Na  Na78  1  0.24955491  0.49981390  0.62633149  1
  Na  Na79  1  0.24901732  0.50039785  0.87629097  1
  Na  Na80  1  0.25075200  0.83327525  0.12438407  1
  Na  Na81  1  0.25066057  0.83311326  0.37526776  1
  Na  Na82  1  0.24992326  0.83273494  0.62490078  1
  Na  Na83  1  0.24859019  0.83373823  0.87538325  1
  Na  Na84  1  0.75018040  0.16692802  0.12378537  1
  Na  Na85  1  0.74953605  0.16682967  0.37427743  1
  Na  Na86  1  0.75093649  0.16666485  0.62620200  1
  Na  Na87  1  0.75172313  0.16633508  0.87541920  1
  Na  Na88  1  0.75167485  0.49987927  0.12387860  1
  Na  Na89  1  0.75116600  0.50003235  0.37467115  1
  Na  Na90  1  0.75028296  0.50063065  0.62597290  1
  Na  Na91  1  0.75040167  0.50081196  0.87465007  1
  Na  Na92  1  0.74918010  0.83296140  0.12439539  1
  Na  Na93  1  0.74953081  0.83343683  0.37522689  1
  Na  Na94  1  0.75075489  0.83315356  0.62541393  1
  Na  Na95  1  0.75035699  0.83301198  0.87530896  1
  Mn  Mn96  1  0.35829692  0.08353931  0.25245503  1
  Mn  Mn97  1  0.10768929  0.41727200  0.62220206  1
  Mn  Mn98  1  0.64188686  0.24993785  0.74843165  1
  Mn  Mn99  1  0.14219514  0.25018885  0.24723653  1
  Mn  Mn100  1  0.85843814  0.75024121  0.75199546  1
  Mn  Mn101  1  0.89263329  0.58399795  0.37713648  1
  Mn  Mn102  1  0.64251554  0.25044697  0.99696181  1
  Mn  Mn103  1  0.85861024  0.08236428  0.00194079  1
  Mn  Mn104  1  0.64145100  0.91626458  0.99756421  1
  Mn  Mn105  1  0.39215562  0.24936085  0.37709491  1
  Mn  Mn106  1  0.64182029  0.91631604  0.49815354  1
  Mn  Mn107  1  0.60730449  0.75038431  0.62266096  1
  Mn  Mn108  1  0.14293561  0.91703228  0.99788087  1
  Mn  Mn109  1  0.35662049  0.41657112  0.75317491  1
  Mn  Mn110  1  0.89244729  0.91698113  0.12818355  1
  Mn  Mn111  1  0.10838801  0.08277043  0.62238858  1
  Mn  Mn112  1  0.14297174  0.58369827  0.24715220  1
  Mn  Mn113  1  0.39225672  0.24997262  0.12751686  1
  Mn  Mn114  1  0.60780689  0.41624754  0.62280967  1
  Mn  Mn115  1  0.14298446  0.91682024  0.49747205  1
  Mn  Mn116  1  0.60756704  0.41746701  0.12259328  1
  Mn  Mn117  1  0.85855791  0.74970303  0.50229442  1
  Mn  Mn118  1  0.60786287  0.41645413  0.37234154  1
  Mn  Mn119  1  0.85975132  0.41714710  0.00210486  1
  Mn  Mn120  1  0.35626958  0.74955361  0.75267242  1
  Mn  Mn121  1  0.60655528  0.41664883  0.87342564  1
  Mn  Mn122  1  0.89350786  0.58258410  0.12720358  1
  Mn  Mn123  1  0.89216326  0.24938519  0.37724332  1
  Mn  Mn124  1  0.10855550  0.41662278  0.37277172  1
  Mn  Mn125  1  0.85870114  0.41691502  0.75253134  1
  Mn  Mn126  1  0.64222674  0.25042345  0.49807086  1
  Mn  Mn127  1  0.85802854  0.41694270  0.50278868  1
  Mn  Mn128  1  0.85851951  0.08264086  0.75254490  1
  Mn  Mn129  1  0.60722093  0.74981579  0.87268885  1
  Mn  Mn130  1  0.60700763  0.75057753  0.37300488  1
  Mn  Mn131  1  0.39145334  0.58377951  0.37833441  1
  Mn  Mn132  1  0.39138870  0.58362249  0.62695624  1
  Mn  Mn133  1  0.85856045  0.08317519  0.50226455  1
  Mn  Mn134  1  0.89321155  0.91673364  0.87690080  1
  Mn  Mn135  1  0.39040210  0.24985249  0.62698191  1
  Mn  Mn136  1  0.89268626  0.91653107  0.37588314  1
  Mn  Mn137  1  0.64169779  0.58310701  0.99770793  1
  Mn  Mn138  1  0.60766398  0.08308533  0.37312565  1
  Mn  Mn139  1  0.64242915  0.58313759  0.24715551  1
  Mn  Mn140  1  0.35745712  0.74983444  0.00237357  1
  Mn  Mn141  1  0.60595807  0.08366314  0.87263256  1
  Mn  Mn142  1  0.10781108  0.08368423  0.12294726  1
  Mn  Mn143  1  0.60656993  0.08349139  0.62322756  1
  Fe  Fe144  1  0.64266245  0.58354433  0.74856883  1
  Fe  Fe145  1  0.14381812  0.91658164  0.24845106  1
  Fe  Fe146  1  0.10801296  0.41672579  0.12377907  1
  Fe  Fe147  1  0.14172167  0.58347607  0.74829457  1
  Fe  Fe148  1  0.39131825  0.58333096  0.87623202  1
  Fe  Fe149  1  0.89317013  0.58387300  0.62680638  1
  Fe  Fe150  1  0.10854522  0.08314591  0.87338928  1
  Fe  Fe151  1  0.89329771  0.25024695  0.12646133  1
  Fe  Fe152  1  0.35601397  0.74946659  0.50210102  1
  Fe  Fe153  1  0.35600876  0.41637977  0.00148768  1
  Fe  Fe154  1  0.39177522  0.91625253  0.87636308  1
  Fe  Fe155  1  0.10825107  0.08242103  0.37298063  1
  Fe  Fe156  1  0.10784815  0.41680668  0.87353483  1
  Fe  Fe157  1  0.10776713  0.74958890  0.12343624  1
  Fe  Fe158  1  0.60689157  0.74990439  0.12401888  1
  Fe  Fe159  1  0.39204341  0.91683067  0.37652570  1
  Fe  Fe160  1  0.35619017  0.08341636  0.75235073  1
  Fe  Fe161  1  0.14306529  0.91689311  0.74811766  1
  Fe  Fe162  1  0.14265195  0.25016138  0.49883642  1
  Fe  Fe163  1  0.14286749  0.58285670  0.99823837  1
  Fe  Fe164  1  0.35682971  0.08406363  0.00180269  1
  Fe  Fe165  1  0.89388716  0.58343103  0.87669226  1
  Fe  Fe166  1  0.10713714  0.75026950  0.62303268  1
  Fe  Fe167  1  0.35715211  0.41685074  0.25146383  1
  Fe  Fe168  1  0.60756234  0.08265585  0.12310297  1
  Fe  Fe169  1  0.89459579  0.25007820  0.87639061  1
  Fe  Fe170  1  0.14264280  0.24935616  0.74838598  1
  Fe  Fe171  1  0.10849231  0.75085616  0.37243223  1
  Fe  Fe172  1  0.64188622  0.91679436  0.24847542  1
  Fe  Fe173  1  0.14245111  0.24985663  0.99840498  1
  Fe  Fe174  1  0.35718316  0.74978592  0.25140431  1
  Fe  Fe175  1  0.35664453  0.41678763  0.50129499  1
  Fe  Fe176  1  0.39151717  0.91633046  0.62732984  1
  Fe  Fe177  1  0.89320493  0.91640174  0.62708873  1
  Fe  Fe178  1  0.39307669  0.91592824  0.12728698  1
  Fe  Fe179  1  0.39177813  0.58445586  0.12658828  1
  Fe  Fe180  1  0.85814573  0.41645584  0.25095694  1
  Fe  Fe181  1  0.89341999  0.24982900  0.62680004  1
  Fe  Fe182  1  0.64170307  0.91644982  0.74802654  1
  Fe  Fe183  1  0.85656909  0.08278427  0.25128307  1
  Fe  Fe184  1  0.14256658  0.58292202  0.49868651  1
  Fe  Fe185  1  0.64301265  0.58318722  0.49879562  1
  Fe  Fe186  1  0.35666011  0.08384983  0.50123956  1
  Fe  Fe187  1  0.85815864  0.75014007  0.00195147  1
  Fe  Fe188  1  0.39074288  0.25047208  0.87736137  1
  Fe  Fe189  1  0.10716694  0.75039173  0.87359199  1
  Fe  Fe190  1  0.64342302  0.24982141  0.24772191  1
  Fe  Fe191  1  0.85735756  0.75054753  0.25113027  1
  P  P192  1  0.05320966  0.25080230  0.10964982  1
  P  P193  1  0.05540806  0.24897007  0.36137584  1
  P  P194  1  0.05423995  0.24982041  0.61042268  1
  P  P195  1  0.05530053  0.24965874  0.86090054  1
  P  P196  1  0.05488844  0.58325873  0.10980319  1
  P  P197  1  0.05559680  0.58434259  0.36101852  1
  P  P198  1  0.05386151  0.58438269  0.61040006  1
  P  P199  1  0.05462172  0.58360559  0.86126169  1
  P  P200  1  0.05515841  0.91586920  0.11157792  1
  P  P201  1  0.05505338  0.91660653  0.35911835  1
  P  P202  1  0.05381504  0.91593424  0.61091591  1
  P  P203  1  0.05483561  0.91691268  0.85984373  1
  P  P204  1  0.55502897  0.24945701  0.11086984  1
  P  P205  1  0.55393787  0.24997373  0.35871257  1
  P  P206  1  0.55214837  0.24994659  0.60983725  1
  P  P207  1  0.55032784  0.25033979  0.86010779  1
  P  P208  1  0.55159653  0.58443566  0.11035168  1
  P  P209  1  0.55419701  0.58333048  0.36108220  1
  P  P210  1  0.55468211  0.58329498  0.61008008  1
  P  P211  1  0.55147021  0.58305141  0.85933192  1
  P  P212  1  0.55355828  0.91609308  0.11144458  1
  P  P213  1  0.55200345  0.91682548  0.35963637  1
  P  P214  1  0.55220030  0.91686176  0.61102311  1
  P  P215  1  0.55149589  0.91667336  0.85932475  1
  P  P216  1  0.44648888  0.08270886  0.13849728  1
  P  P217  1  0.44600437  0.08250118  0.39061641  1
  P  P218  1  0.44302764  0.08268713  0.63963628  1
  P  P219  1  0.44326497  0.08342497  0.88938057  1
  P  P220  1  0.44411170  0.41781209  0.13927562  1
  P  P221  1  0.44464703  0.41657464  0.38966253  1
  P  P222  1  0.44434451  0.41682816  0.63895289  1
  P  P223  1  0.44475957  0.41686772  0.89076745  1
  P  P224  1  0.44668956  0.74980190  0.14065112  1
  P  P225  1  0.44401433  0.75104710  0.38978728  1
  P  P226  1  0.44421833  0.75028024  0.63879878  1
  P  P227  1  0.44582742  0.74976011  0.88962606  1
  P  P228  1  0.94627041  0.08432319  0.14085804  1
  P  P229  1  0.94713626  0.08262260  0.38861957  1
  P  P230  1  0.94725779  0.08309040  0.63996080  1
  P  P231  1  0.94917607  0.08355674  0.88991432  1
  P  P232  1  0.94862421  0.41567627  0.14068106  1
  P  P233  1  0.94574189  0.41663489  0.38909925  1
  P  P234  1  0.94708322  0.41695217  0.63989618  1
  P  P235  1  0.94891560  0.41691618  0.88950469  1
  P  P236  1  0.94683608  0.74979355  0.13963127  1
  P  P237  1  0.94733952  0.75061499  0.38852342  1
  P  P238  1  0.94832470  0.75002582  0.63990894  1
  P  P239  1  0.94775025  0.74961726  0.89051382  1
  P  P240  1  0.19613519  0.08219249  0.23588296  1
  P  P241  1  0.19739245  0.08363045  0.48440794  1
  P  P242  1  0.19638665  0.08297522  0.73639182  1
  P  P243  1  0.19724233  0.08378129  0.98475743  1
  P  P244  1  0.19766171  0.41692516  0.23387044  1
  P  P245  1  0.19753085  0.41696182  0.48529808  1
  P  P246  1  0.19434949  0.41674353  0.73693411  1
  P  P247  1  0.19525865  0.41661544  0.98614504  1
  P  P248  1  0.19666597  0.75118459  0.23517878  1
  P  P249  1  0.19564090  0.74936561  0.48568140  1
  P  P250  1  0.19378488  0.75025268  0.73605886  1
  P  P251  1  0.19479448  0.74935109  0.98585907  1
  P  P252  1  0.69678638  0.08310528  0.23431681  1
  P  P253  1  0.69690947  0.08331445  0.48527085  1
  P  P254  1  0.69613080  0.08263203  0.73542265  1
  P  P255  1  0.69540037  0.08312481  0.98539381  1
  P  P256  1  0.69846561  0.41603386  0.23439158  1
  P  P257  1  0.69696589  0.41752108  0.48497439  1
  P  P258  1  0.69655594  0.41745668  0.73573436  1
  P  P259  1  0.69752093  0.41688862  0.98431275  1
  P  P260  1  0.69693157  0.75069754  0.23448065  1
  P  P261  1  0.69670120  0.74915912  0.48513958  1
  P  P262  1  0.69620632  0.74990637  0.73543597  1
  P  P263  1  0.69647307  0.74965620  0.98584660  1
  P  P264  1  0.30287371  0.24988599  0.01389746  1
  P  P265  1  0.30325696  0.25085519  0.26472077  1
  P  P266  1  0.30153304  0.25016958  0.51462965  1
  P  P267  1  0.30183275  0.24949565  0.76589829  1
  P  P268  1  0.30362473  0.58289422  0.01411208  1
  P  P269  1  0.30486907  0.58381513  0.26336838  1
  P  P270  1  0.30134219  0.58358842  0.51518014  1
  P  P271  1  0.30133676  0.58355997  0.76590707  1
  P  P272  1  0.30556143  0.91736750  0.01446900  1
  P  P273  1  0.30455754  0.91554333  0.26411261  1
  P  P274  1  0.30499510  0.91651069  0.51414790  1
  P  P275  1  0.30320082  0.91674786  0.76442198  1
  P  P276  1  0.80651801  0.24990373  0.01407896  1
  P  P277  1  0.80412963  0.24956204  0.26300114  1
  P  P278  1  0.80409987  0.24985162  0.51617457  1
  P  P279  1  0.80591173  0.24976550  0.76512593  1
  P  P280  1  0.80551125  0.58425731  0.01363166  1
  P  P281  1  0.80415652  0.58371635  0.26430998  1
  P  P282  1  0.80317987  0.58373160  0.51593803  1
  P  P283  1  0.80477295  0.58382127  0.76487905  1
  P  P284  1  0.80383566  0.91559433  0.01493423  1
  P  P285  1  0.80170876  0.91666304  0.26446485  1
  P  P286  1  0.80441680  0.91628828  0.51583863  1
  P  P287  1  0.80325667  0.91635275  0.76433827  1
  O  O288  1  0.05655403  0.25008403  0.18642070  1
  O  O289  1  0.05974036  0.24981265  0.43817127  1
  O  O290  1  0.05915817  0.24962044  0.68714107  1
  O  O291  1  0.05955042  0.24938497  0.93767585  1
  O  O292  1  0.05727673  0.58327876  0.18665501  1
  O  O293  1  0.05952305  0.58351227  0.43781387  1
  O  O294  1  0.05823643  0.58345683  0.68714868  1
  O  O295  1  0.05895363  0.58321461  0.93796823  1
  O  O296  1  0.05953523  0.91632841  0.18826551  1
  O  O297  1  0.05757412  0.91669580  0.43593795  1
  O  O298  1  0.05886051  0.91686648  0.68755852  1
  O  O299  1  0.05734767  0.91726266  0.93663561  1
  O  O300  1  0.55968062  0.25015468  0.18760560  1
  O  O301  1  0.55676353  0.25027321  0.43554562  1
  O  O302  1  0.55567780  0.25005566  0.68661465  1
  O  O303  1  0.55492091  0.25031645  0.93680461  1
  O  O304  1  0.55564126  0.58347448  0.18706151  1
  O  O305  1  0.55897851  0.58308330  0.43776356  1
  O  O306  1  0.55912377  0.58326611  0.68683925  1
  O  O307  1  0.55541130  0.58316683  0.93610052  1
  O  O308  1  0.55822407  0.91648472  0.18812701  1
  O  O309  1  0.55575529  0.91664350  0.43636921  1
  O  O310  1  0.55757164  0.91669522  0.68766431  1
  O  O311  1  0.55546668  0.91656588  0.93610458  1
  O  O312  1  0.44137598  0.08382187  0.06186719  1
  O  O313  1  0.44364751  0.08351732  0.31375698  1
  O  O314  1  0.43911549  0.08384447  0.56282924  1
  O  O315  1  0.43942588  0.08367624  0.81250522  1
  O  O316  1  0.43940265  0.41670427  0.06252703  1
  O  O317  1  0.44032361  0.41672607  0.31288322  1
  O  O318  1  0.43958753  0.41687796  0.56217809  1
  O  O319  1  0.44245360  0.41674716  0.81388255  1
  O  O320  1  0.44323228  0.74959819  0.06385023  1
  O  O321  1  0.44033134  0.74994930  0.31301976  1
  O  O322  1  0.43995145  0.74922807  0.56204668  1
  O  O323  1  0.44286152  0.74966517  0.81288639  1
  O  O324  1  0.94374069  0.08288107  0.06404764  1
  O  O325  1  0.94139198  0.08281670  0.31202594  1
  O  O326  1  0.94461886  0.08287256  0.56314754  1
  O  O327  1  0.94524612  0.08288053  0.81323824  1
  O  O328  1  0.94547671  0.41647108  0.06392583  1
  O  O329  1  0.94119259  0.41654877  0.31231687  1
  O  O330  1  0.94451199  0.41696942  0.56306944  1
  O  O331  1  0.94525379  0.41711532  0.81285231  1
  O  O332  1  0.94211084  0.75035354  0.06297285  1
  O  O333  1  0.94163620  0.75040683  0.31189428  1
  O  O334  1  0.94511689  0.75007666  0.56318058  1
  O  O335  1  0.94418118  0.75005820  0.81378656  1
  O  O336  1  0.19357045  0.08318732  0.06149290  1
  O  O337  1  0.19224174  0.08264331  0.31262546  1
  O  O338  1  0.19403623  0.08266834  0.56121764  1
  O  O339  1  0.19218941  0.08275477  0.81307654  1
  O  O340  1  0.19120324  0.41657975  0.06284013  1
  O  O341  1  0.19382978  0.41694365  0.31058850  1
  O  O342  1  0.19396150  0.41698347  0.56205268  1
  O  O343  1  0.19082195  0.41706823  0.81378149  1
  O  O344  1  0.19127949  0.75012727  0.06263589  1
  O  O345  1  0.19251283  0.75061569  0.31195879  1
  O  O346  1  0.19094620  0.75019079  0.56242809  1
  O  O347  1  0.19028771  0.75038922  0.81290404  1
  O  O348  1  0.69079234  0.08311691  0.06215763  1
  O  O349  1  0.69352334  0.08297186  0.31107595  1
  O  O350  1  0.69332099  0.08327549  0.56201154  1
  O  O351  1  0.69254513  0.08328066  0.81222455  1
  O  O352  1  0.69363223  0.41691426  0.06107818  1
  O  O353  1  0.69446680  0.41656606  0.31108561  1
  O  O354  1  0.69399513  0.41681401  0.56177781  1
  O  O355  1  0.69314466  0.41666753  0.81246444  1
  O  O356  1  0.69097824  0.74952643  0.06245510  1
  O  O357  1  0.69289223  0.75020205  0.31118221  1
  O  O358  1  0.69345191  0.75000976  0.56189810  1
  O  O359  1  0.69347153  0.75007672  0.81224209  1
  O  O360  1  0.30621689  0.24984661  0.18789442  1
  O  O361  1  0.30513772  0.25010889  0.43797437  1
  O  O362  1  0.30515141  0.25030385  0.68917557  1
  O  O363  1  0.30689174  0.24998909  0.93720848  1
  O  O364  1  0.30817532  0.58429508  0.18657194  1
  O  O365  1  0.30480425  0.58393005  0.43839792  1
  O  O366  1  0.30557863  0.58370616  0.68924444  1
  O  O367  1  0.30795881  0.58402995  0.93742476  1
  O  O368  1  0.30912783  0.91620562  0.18734530  1
  O  O369  1  0.30823337  0.91652671  0.43730811  1
  O  O370  1  0.30738294  0.91589564  0.68768197  1
  O  O371  1  0.30896946  0.91605199  0.93764979  1
  O  O372  1  0.80870009  0.24997667  0.18632032  1
  O  O373  1  0.80702173  0.24963804  0.43928387  1
  O  O374  1  0.81046293  0.24989475  0.68836091  1
  O  O375  1  0.81165688  0.24992148  0.93731315  1
  O  O376  1  0.80725740  0.58371657  0.18752150  1
  O  O377  1  0.80722832  0.58398061  0.43919565  1
  O  O378  1  0.80994272  0.58380576  0.68818548  1
  O  O379  1  0.81031780  0.58344876  0.93688280  1
  O  O380  1  0.80544468  0.91650497  0.18778781  1
  O  O381  1  0.80783859  0.91628838  0.43904254  1
  O  O382  1  0.80911803  0.91637937  0.68771801  1
  O  O383  1  0.80736514  0.91631861  0.93815324  1
  O  O384  1  0.23260420  0.25016434  0.03814359  1
  O  O385  1  0.23364546  0.25066407  0.28987008  1
  O  O386  1  0.23159600  0.24973576  0.53989332  1
  O  O387  1  0.23173179  0.24982170  0.79038474  1
  O  O388  1  0.23321266  0.58297917  0.03777939  1
  O  O389  1  0.23503586  0.58387788  0.28820067  1
  O  O390  1  0.23141983  0.58322261  0.54023793  1
  O  O391  1  0.23110436  0.58357748  0.78979520  1
  O  O392  1  0.23556013  0.91683620  0.03876883  1
  O  O393  1  0.23430330  0.91620881  0.28805644  1
  O  O394  1  0.23503361  0.91654943  0.53894024  1
  O  O395  1  0.23292292  0.91650994  0.78841131  1
  O  O396  1  0.73616278  0.25010120  0.03711137  1
  O  O397  1  0.73383576  0.24938887  0.28715087  1
  O  O398  1  0.73444801  0.25013674  0.54133558  1
  O  O399  1  0.73571114  0.24974228  0.78893599  1
  O  O400  1  0.73541592  0.58356170  0.03760151  1
  O  O401  1  0.73446072  0.58367681  0.28954991  1
  O  O402  1  0.73309775  0.58346087  0.54021329  1
  O  O403  1  0.73426281  0.58389624  0.78815830  1
  O  O404  1  0.73399052  0.91616658  0.03954664  1
  O  O405  1  0.73169533  0.91669977  0.28937368  1
  O  O406  1  0.73451671  0.91624592  0.54043927  1
  O  O407  1  0.73281080  0.91615230  0.78759923  1
  O  O408  1  0.26604426  0.08297875  0.21132864  1
  O  O409  1  0.26748355  0.08321145  0.45982347  1
  O  O410  1  0.26659585  0.08314969  0.71215861  1
  O  O411  1  0.26733117  0.08321930  0.96043498  1
  O  O412  1  0.26769720  0.41694645  0.20952180  1
  O  O413  1  0.26741067  0.41728925  0.46020095  1
  O  O414  1  0.26420252  0.41653301  0.71224201  1
  O  O415  1  0.26561553  0.41671867  0.96218285  1
  O  O416  1  0.26691761  0.75006307  0.21112233  1
  O  O417  1  0.26605407  0.75020935  0.46209376  1
  O  O418  1  0.26375497  0.74982905  0.71158638  1
  O  O419  1  0.26482925  0.75003111  0.96147444  1
  O  O420  1  0.76686115  0.08319395  0.20945409  1
  O  O421  1  0.76661948  0.08326081  0.46016981  1
  O  O422  1  0.76597901  0.08301861  0.71077478  1
  O  O423  1  0.76556632  0.08280303  0.96162615  1
  O  O424  1  0.76862954  0.41637142  0.20986197  1
  O  O425  1  0.76659625  0.41677192  0.45961329  1
  O  O426  1  0.76638567  0.41727161  0.71093224  1
  O  O427  1  0.76741395  0.41696946  0.95987710  1
  O  O428  1  0.76720098  0.75015711  0.21028848  1
  O  O429  1  0.76637216  0.74977632  0.45991925  1
  O  O430  1  0.76582295  0.74969925  0.70998013  1
  O  O431  1  0.76685287  0.74989855  0.96231334  1
  O  O432  1  0.01602637  0.08389531  0.16588205  1
  O  O433  1  0.01754701  0.08237428  0.41209105  1
  O  O434  1  0.01693246  0.08349466  0.66529718  1
  O  O435  1  0.01923532  0.08335270  0.91458048  1
  O  O436  1  0.01862554  0.41639810  0.16565327  1
  O  O437  1  0.01583052  0.41658499  0.41303019  1
  O  O438  1  0.01665822  0.41711138  0.66546385  1
  O  O439  1  0.01905067  0.41653671  0.91409476  1
  O  O440  1  0.01734312  0.74919653  0.16299550  1
  O  O441  1  0.01782429  0.75102940  0.41167516  1
  O  O442  1  0.01823400  0.74974564  0.66500773  1
  O  O443  1  0.01800012  0.75039570  0.91472712  1
  O  O444  1  0.51684025  0.08248675  0.16219539  1
  O  O445  1  0.51546887  0.08267426  0.41636191  1
  O  O446  1  0.51302834  0.08335346  0.66394646  1
  O  O447  1  0.51326789  0.08293419  0.91384450  1
  O  O448  1  0.51431853  0.41738878  0.16304146  1
  O  O449  1  0.51476571  0.41657352  0.41342863  1
  O  O450  1  0.51442352  0.41679898  0.66276404  1
  O  O451  1  0.51423519  0.41702274  0.91673587  1
  O  O452  1  0.51662315  0.75003092  0.16560210  1
  O  O453  1  0.51399777  0.75063898  0.41421060  1
  O  O454  1  0.51420887  0.75025373  0.66294139  1
  O  O455  1  0.51536647  0.74994935  0.91529513  1
  O  O456  1  0.48474219  0.24986787  0.08723562  1
  O  O457  1  0.48420351  0.24970016  0.33358150  1
  O  O458  1  0.48236347  0.24993810  0.58501588  1
  O  O459  1  0.48009087  0.25044307  0.83612908  1
  O  O460  1  0.48144690  0.58422236  0.08602852  1
  O  O461  1  0.48390098  0.58351400  0.33770134  1
  O  O462  1  0.48447651  0.58334346  0.58626090  1
  O  O463  1  0.48124781  0.58310588  0.83499691  1
  O  O464  1  0.48316694  0.91601176  0.08760875  1
  O  O465  1  0.48187141  0.91694304  0.33533534  1
  O  O466  1  0.48174032  0.91667508  0.58783924  1
  O  O467  1  0.48118997  0.91672636  0.83539561  1
  O  O468  1  0.98324727  0.25003590  0.08494325  1
  O  O469  1  0.98533773  0.24958531  0.33737744  1
  O  O470  1  0.98386657  0.24959191  0.58689302  1
  O  O471  1  0.98490967  0.25013217  0.83695440  1
  O  O472  1  0.98529924  0.58339841  0.08433622  1
  O  O473  1  0.98568147  0.58398063  0.33656128  1
  O  O474  1  0.98359950  0.58407965  0.58634283  1
  O  O475  1  0.98426402  0.58379221  0.83718962  1
  O  O476  1  0.98511131  0.91671076  0.08746404  1
  O  O477  1  0.98545919  0.91618383  0.33355521  1
  O  O478  1  0.98357633  0.91628902  0.58698428  1
  O  O479  1  0.98518302  0.91634888  0.83434311  1
  O  O480  1  0.08705828  0.31599328  0.07727299  1
  O  O481  1  0.08899135  0.31394013  0.32800197  1
  O  O482  1  0.08749151  0.31496683  0.57708449  1
  O  O483  1  0.08880571  0.31471630  0.82786102  1
  O  O484  1  0.08945094  0.64820741  0.07766204  1
  O  O485  1  0.08912085  0.64964505  0.32837990  1
  O  O486  1  0.08752353  0.64948804  0.57766189  1
  O  O487  1  0.08792038  0.64884266  0.82822229  1
  O  O488  1  0.08899000  0.98073032  0.07828710  1
  O  O489  1  0.08935730  0.98171571  0.32690716  1
  O  O490  1  0.08739504  0.98073869  0.57724103  1
  O  O491  1  0.08896610  0.98196815  0.82723681  1
  O  O492  1  0.58828332  0.31458964  0.07747089  1
  O  O493  1  0.58819614  0.31490802  0.32603887  1
  O  O494  1  0.58610891  0.31499776  0.57719790  1
  O  O495  1  0.58415388  0.31532822  0.82728456  1
  O  O496  1  0.58523944  0.64972361  0.07789596  1
  O  O497  1  0.58739727  0.64853922  0.32791126  1
  O  O498  1  0.58825532  0.64833323  0.57689689  1
  O  O499  1  0.58550202  0.64804689  0.82659293  1
  O  O500  1  0.58672981  0.98101489  0.07773558  1
  O  O501  1  0.58606874  0.98172936  0.32680040  1
  O  O502  1  0.58509725  0.98200031  0.57750917  1
  O  O503  1  0.58520558  0.98167877  0.82644514  1
  O  O504  1  0.41302547  0.01760493  0.17149572  1
  O  O505  1  0.41141927  0.01736886  0.42220580  1
  O  O506  1  0.40961267  0.01728224  0.67228727  1
  O  O507  1  0.40936423  0.01831951  0.92197249  1
  O  O508  1  0.41046371  0.35288875  0.17282725  1
  O  O509  1  0.41096583  0.35154516  0.42275409  1
  O  O510  1  0.41074174  0.35182048  0.67212612  1
  O  O511  1  0.41022206  0.35183404  0.92301415  1
  O  O512  1  0.41250012  0.68489866  0.17333800  1
  O  O513  1  0.40993740  0.68631653  0.42335052  1
  O  O514  1  0.41072657  0.68536963  0.67229880  1
  O  O515  1  0.41167698  0.68460722  0.92201228  1
  O  O516  1  0.91164404  0.01970431  0.17384706  1
  O  O517  1  0.91391931  0.01752648  0.42191488  1
  O  O518  1  0.91340681  0.01784480  0.67251121  1
  O  O519  1  0.91533737  0.01849587  0.92283131  1
  O  O520  1  0.91472156  0.35043849  0.17296148  1
  O  O521  1  0.91225961  0.35157963  0.42212949  1
  O  O522  1  0.91317113  0.35169479  0.67213760  1
  O  O523  1  0.91512791  0.35188291  0.92215991  1
  O  O524  1  0.91327925  0.68485620  0.17282486  1
  O  O525  1  0.91458110  0.68551855  0.42245063  1
  O  O526  1  0.91435976  0.68494760  0.67248682  1
  O  O527  1  0.91433147  0.68439701  0.92325410  1
  O  O528  1  0.16298410  0.01692570  0.20291947  1
  O  O529  1  0.16339180  0.01868929  0.45145838  1
  O  O530  1  0.16323605  0.01792735  0.70281475  1
  O  O531  1  0.16324794  0.01892987  0.95168658  1
  O  O532  1  0.16360473  0.35201550  0.20106843  1
  O  O533  1  0.16383889  0.35172284  0.45277844  1
  O  O534  1  0.16069901  0.35151691  0.70435313  1
  O  O535  1  0.16183580  0.35161003  0.95285532  1
  O  O536  1  0.16248400  0.68648893  0.20194012  1
  O  O537  1  0.16267684  0.68415010  0.45252298  1
  O  O538  1  0.15986155  0.68513474  0.70337119  1
  O  O539  1  0.16137294  0.68404619  0.95323619  1
  O  O540  1  0.66267437  0.01797014  0.20171395  1
  O  O541  1  0.66286967  0.01815643  0.45277005  1
  O  O542  1  0.66226980  0.01735283  0.70306931  1
  O  O543  1  0.66164225  0.01809756  0.95252957  1
  O  O544  1  0.66470336  0.35099208  0.20172439  1
  O  O545  1  0.66249755  0.35264284  0.45241291  1
  O  O546  1  0.66255145  0.35244119  0.70290796  1
  O  O547  1  0.66363348  0.35181348  0.95162667  1
  O  O548  1  0.66289340  0.68584023  0.20123353  1
  O  O549  1  0.66283116  0.68385322  0.45299407  1
  O  O550  1  0.66191527  0.68464240  0.70353669  1
  O  O551  1  0.66327810  0.68462278  0.95225791  1
  O  O552  1  0.33656264  0.31486768  0.04682263  1
  O  O553  1  0.33725815  0.31607494  0.29662982  1
  O  O554  1  0.33500105  0.31539418  0.54745218  1
  O  O555  1  0.33579616  0.31434682  0.79900846  1
  O  O556  1  0.33698905  0.64782734  0.04798762  1
  O  O557  1  0.33848566  0.64881002  0.29649913  1
  O  O558  1  0.33485837  0.64882958  0.54796431  1
  O  O559  1  0.33507508  0.64846318  0.79906811  1
  O  O560  1  0.33902864  0.98268327  0.04696920  1
  O  O561  1  0.33841846  0.98031276  0.29755984  1
  O  O562  1  0.33872560  0.98164143  0.54684205  1
  O  O563  1  0.33671503  0.98185811  0.79724749  1
  O  O564  1  0.84005947  0.31484658  0.04757966  1
  O  O565  1  0.83755432  0.31453082  0.29644290  1
  O  O566  1  0.83866677  0.31478942  0.54845440  1
  O  O567  1  0.83967982  0.31477348  0.79828055  1
  O  O568  1  0.83868582  0.64957042  0.04654972  1
  O  O569  1  0.83808162  0.64903371  0.29674575  1
  O  O570  1  0.83699977  0.64876009  0.54893101  1
  O  O571  1  0.83826519  0.64879455  0.79824414  1
  O  O572  1  0.83804974  0.98051548  0.04764343  1
  O  O573  1  0.83563888  0.98186411  0.29697691  1
  O  O574  1  0.83861659  0.98124372  0.54849273  1
  O  O575  1  0.83641249  0.98137627  0.79804910  1
  O  O576  1  0.41342565  0.14770157  0.17239626  1
  O  O577  1  0.41139562  0.14741122  0.42313122  1
  O  O578  1  0.40877405  0.14731364  0.67302224  1
  O  O579  1  0.40983274  0.14863479  0.92253952  1
  O  O580  1  0.41081124  0.48311813  0.17204614  1
  O  O581  1  0.41089857  0.48149041  0.42306815  1
  O  O582  1  0.41087973  0.48185586  0.67225315  1
  O  O583  1  0.41009414  0.48201164  0.92254306  1
  O  O584  1  0.41242488  0.81485909  0.17305488  1
  O  O585  1  0.41039832  0.81640761  0.42206199  1
  O  O586  1  0.41049821  0.81543608  0.67150320  1
  O  O587  1  0.41157727  0.81485268  0.92194486  1
  O  O588  1  0.91241298  0.14980725  0.17257628  1
  O  O589  1  0.91409460  0.14766884  0.42233610  1
  O  O590  1  0.91301675  0.14817913  0.67212217  1
  O  O591  1  0.91533444  0.14864290  0.92234463  1
  O  O592  1  0.91419181  0.48049684  0.17339859  1
  O  O593  1  0.91246565  0.48186512  0.42211896  1
  O  O594  1  0.91297639  0.48220305  0.67205739  1
  O  O595  1  0.91550867  0.48205552  0.92251555  1
  O  O596  1  0.91372491  0.81476834  0.17350879  1
  O  O597  1  0.91401680  0.81554704  0.42192808  1
  O  O598  1  0.91456805  0.81513696  0.67272705  1
  O  O599  1  0.91359223  0.81444389  0.92344390  1
  O  O600  1  0.08775066  0.18605185  0.07679340  1
  O  O601  1  0.08857051  0.18365619  0.32851466  1
  O  O602  1  0.08799132  0.18504207  0.57704184  1
  O  O603  1  0.08837309  0.18450380  0.82741059  1
  O  O604  1  0.08907466  0.51809494  0.07760338  1
  O  O605  1  0.08937444  0.51940523  0.32788785  1
  O  O606  1  0.08756423  0.51952023  0.57682099  1
  O  O607  1  0.08791679  0.51865404  0.82765513  1
  O  O608  1  0.08830242  0.85059682  0.07856082  1
  O  O609  1  0.08981821  0.85168761  0.32697274  1
  O  O610  1  0.08705198  0.85068268  0.57789212  1
  O  O611  1  0.08934722  0.85184583  0.82781690  1
  O  O612  1  0.58800431  0.18410578  0.07787682  1
  O  O613  1  0.58838654  0.18485544  0.32668272  1
  O  O614  1  0.58608252  0.18484529  0.57736876  1
  O  O615  1  0.58384390  0.18521061  0.82712457  1
  O  O616  1  0.58537572  0.51954823  0.07707681  1
  O  O617  1  0.58732234  0.51839386  0.32727495  1
  O  O618  1  0.58832250  0.51834845  0.57683446  1
  O  O619  1  0.58540027  0.51803478  0.82665405  1
  O  O620  1  0.58655965  0.85061162  0.07841441  1
  O  O621  1  0.58586467  0.85187531  0.32662829  1
  O  O622  1  0.58537261  0.85192270  0.57729725  1
  O  O623  1  0.58529100  0.85164604  0.82649457  1
  O  O624  1  0.33616730  0.18469526  0.04711092  1
  O  O625  1  0.33736019  0.18583781  0.29734615  1
  O  O626  1  0.33546007  0.18502160  0.54713684  1
  O  O627  1  0.33569373  0.18436586  0.79822698  1
  O  O628  1  0.33706330  0.51780481  0.04693203  1
  O  O629  1  0.33840483  0.51850593  0.29597926  1
  O  O630  1  0.33547064  0.51857548  0.54751275  1
  O  O631  1  0.33516968  0.51863218  0.79884161  1
  O  O632  1  0.33952338  0.85254581  0.04787126  1
  O  O633  1  0.33760857  0.85028351  0.29716216  1
  O  O634  1  0.33861435  0.85137651  0.54713782  1
  O  O635  1  0.33669882  0.85190850  0.79810973  1
  O  O636  1  0.83969191  0.18485218  0.04755665  1
  O  O637  1  0.83733633  0.18418508  0.29619370  1
  O  O638  1  0.83846014  0.18487057  0.54855849  1
  O  O639  1  0.83969768  0.18482722  0.79830536  1
  O  O640  1  0.83937309  0.51937318  0.04694614  1
  O  O641  1  0.83831094  0.51852611  0.29648869  1
  O  O642  1  0.83731905  0.51883714  0.54871052  1
  O  O643  1  0.83831421  0.51889218  0.79837615  1
  O  O644  1  0.83758197  0.85033197  0.04735289  1
  O  O645  1  0.83571461  0.85157500  0.29710879  1
  O  O646  1  0.83861327  0.85129454  0.54852184  1
  O  O647  1  0.83662209  0.85131597  0.79768276  1
  O  O648  1  0.16213604  0.14712363  0.20290953  1
  O  O649  1  0.16338825  0.14868790  0.45221838  1
  O  O650  1  0.16305426  0.14822002  0.70343938  1
  O  O651  1  0.16348064  0.14891175  0.95218758  1
  O  O652  1  0.16375271  0.48189562  0.20109911  1
  O  O653  1  0.16350060  0.48194533  0.45266645  1
  O  O654  1  0.16088747  0.48195610  0.70395394  1
  O  O655  1  0.16183250  0.48170386  0.95284775  1
  O  O656  1  0.16354435  0.81637600  0.20208725  1
  O  O657  1  0.16209118  0.81420975  0.45200952  1
  O  O658  1  0.16045781  0.81540200  0.70278328  1
  O  O659  1  0.16082384  0.81411217  0.95262270  1
  O  O660  1  0.66276448  0.14811691  0.20157070  1
  O  O661  1  0.66292863  0.14836456  0.45266938  1
  O  O662  1  0.66206284  0.14773669  0.70286462  1
  O  O663  1  0.66214994  0.14826036  0.95211970  1
  O  O664  1  0.66461660  0.48117775  0.20148361  1
  O  O665  1  0.66325796  0.48295605  0.45278139  1
  O  O666  1  0.66271900  0.48284745  0.70360604  1
  O  O667  1  0.66340864  0.48197176  0.95196614  1
  O  O668  1  0.66315516  0.81585560  0.20182118  1
  O  O669  1  0.66226887  0.81410703  0.45256088  1
  O  O670  1  0.66196693  0.81495708  0.70295561  1
  O  O671  1  0.66304322  0.81469989  0.95247581  1
