# generated using pymatgen
data_Na2MnFe(PO4)2
_symmetry_space_group_name_H-M   'P 1'
_cell_length_a   21.08708125
_cell_length_b   18.93959929
_cell_length_c   20.04601123
_cell_angle_alpha   90.00003047
_cell_angle_beta   89.99996168
_cell_angle_gamma   90.00154201
_symmetry_Int_Tables_number   1
_chemical_formula_structural   Na2MnFe(PO4)2
_chemical_formula_sum   'Na96 Mn48 Fe48 P96 O384'
_cell_volume   8005.99338362
_cell_formula_units_Z   48
loop_
 _symmetry_equiv_pos_site_id
 _symmetry_equiv_pos_as_xyz
  1  'x, y, z'
loop_
 _atom_site_type_symbol
 _atom_site_label
 _atom_site_symmetry_multiplicity
 _atom_site_fract_x
 _atom_site_fract_y
 _atom_site_fract_z
 _atom_site_occupancy
  Na  Na0  1  -0.00239350  -0.00009512  -0.00017624  1
  Na  Na1  1  -0.00015336  0.00009279  0.24890629  1
  Na  Na2  1  -0.00119464  -0.00002103  0.50055543  1
  Na  Na3  1  -0.00228218  0.00044003  0.74991447  1
  Na  Na4  1  0.00017387  0.33321977  0.00059835  1
  Na  Na5  1  0.00204246  0.33410522  0.24923370  1
  Na  Na6  1  -0.00094672  0.33315095  0.49968433  1
  Na  Na7  1  -0.00152026  0.33304696  0.74951286  1
  Na  Na8  1  -0.00161735  0.66585063  -0.00011545  1
  Na  Na9  1  0.00153031  0.66671476  0.24952875  1
  Na  Na10  1  0.00249384  0.66738817  0.50000238  1
  Na  Na11  1  -0.00127802  0.66568661  0.75100552  1
  Na  Na12  1  0.49882441  -0.00060336  0.00074158  1
  Na  Na13  1  0.49907002  -0.00001547  0.24994521  1
  Na  Na14  1  0.49926421  -0.00003385  0.49907407  1
  Na  Na15  1  0.50003952  -0.00014397  0.75037177  1
  Na  Na16  1  0.50219550  0.33314439  0.00022485  1
  Na  Na17  1  0.50292417  0.33384082  0.25051559  1
  Na  Na18  1  0.50164275  0.33320894  0.50057136  1
  Na  Na19  1  0.50114332  0.33275967  0.75018165  1
  Na  Na20  1  0.50071075  0.66651242  0.00022763  1
  Na  Na21  1  0.50033078  0.66646552  0.24981182  1
  Na  Na22  1  0.50127325  0.66638855  0.49984410  1
  Na  Na23  1  0.50237315  0.66718105  0.74958799  1
  Na  Na24  1  0.25187285  0.00069716  0.12568300  1
  Na  Na25  1  0.25050024  -0.00010281  0.37505001  1
  Na  Na26  1  0.25047280  0.00003195  0.62451504  1
  Na  Na27  1  0.25022786  -0.00026798  0.87397154  1
  Na  Na28  1  0.24680103  0.33274246  0.12563474  1
  Na  Na29  1  0.24768514  0.33256315  0.37488592  1
  Na  Na30  1  0.25075661  0.33353749  0.62523938  1
  Na  Na31  1  0.24849592  0.33293886  0.87511993  1
  Na  Na32  1  0.24908460  0.66683989  0.12610204  1
  Na  Na33  1  0.24654565  0.66559537  0.37574771  1
  Na  Na34  1  0.24787377  0.66581264  0.62478420  1
  Na  Na35  1  0.24869778  0.66596676  0.87387228  1
  Na  Na36  1  0.75086914  0.00005863  0.12560458  1
  Na  Na37  1  0.75127196  0.00040414  0.37565832  1
  Na  Na38  1  0.75134213  0.00065741  0.62370078  1
  Na  Na39  1  0.75156642  0.00085368  0.87584181  1
  Na  Na40  1  0.74938845  0.33343440  0.12468937  1
  Na  Na41  1  0.74835020  0.33295135  0.37488569  1
  Na  Na42  1  0.75029828  0.33343748  0.62507507  1
  Na  Na43  1  0.75056591  0.33317867  0.87528013  1
  Na  Na44  1  0.75227089  0.66728810  0.12471140  1
  Na  Na45  1  0.74912267  0.66556225  0.37478336  1
  Na  Na46  1  0.74939860  0.66615646  0.62519305  1
  Na  Na47  1  0.75121059  0.66703385  0.87453801  1
  Na  Na48  1  -0.00069875  0.16732608  -0.00004100  1
  Na  Na49  1  0.00190345  0.16545085  0.24904081  1
  Na  Na50  1  -0.00125511  0.16682985  0.50035526  1
  Na  Na51  1  -0.00252161  0.16733336  0.75021461  1
  Na  Na52  1  -0.00147954  0.50069506  0.00034290  1
  Na  Na53  1  0.00096972  0.49939205  0.25041387  1
  Na  Na54  1  0.00014734  0.49991123  0.49960127  1
  Na  Na55  1  -0.00123492  0.50029909  0.74970777  1
  Na  Na56  1  -0.00239264  0.83406204  -0.00030763  1
  Na  Na57  1  0.00136530  0.83311043  0.24867422  1
  Na  Na58  1  0.00089062  0.83316538  0.49991509  1
  Na  Na59  1  -0.00040307  0.83239612  0.75069226  1
  Na  Na60  1  0.50323423  0.16625674  0.00059352  1
  Na  Na61  1  0.50146386  0.16705757  0.25071551  1
  Na  Na62  1  0.50136233  0.16706330  0.49909851  1
  Na  Na63  1  0.50254000  0.16686632  0.75037999  1
  Na  Na64  1  0.50101954  0.49978922  -0.00045779  1
  Na  Na65  1  0.50200500  0.49913188  0.25053894  1
  Na  Na66  1  0.50107070  0.50027425  0.50057325  1
  Na  Na67  1  0.50117760  0.50029464  0.74967515  1
  Na  Na68  1  0.49884654  0.83339365  0.00132614  1
  Na  Na69  1  0.49869430  0.83369485  0.24882073  1
  Na  Na70  1  0.49897381  0.83379739  0.49975128  1
  Na  Na71  1  0.50045171  0.83252702  0.75000699  1
  Na  Na72  1  0.24888935  0.16699465  0.12578076  1
  Na  Na73  1  0.24905364  0.16679164  0.37508883  1
  Na  Na74  1  0.24985704  0.16724046  0.62485690  1
  Na  Na75  1  0.24875567  0.16768509  0.87419818  1
  Na  Na76  1  0.24692218  0.50042378  0.12552736  1
  Na  Na77  1  0.24664405  0.50058213  0.37480188  1
  Na  Na78  1  0.24888023  0.50024684  0.62540967  1
  Na  Na79  1  0.24783960  0.50052130  0.87492443  1
  Na  Na80  1  0.25165768  0.83290613  0.12616857  1
  Na  Na81  1  0.24966503  0.83370714  0.37567815  1
  Na  Na82  1  0.24958750  0.83348005  0.62421515  1
  Na  Na83  1  0.25083357  0.83312252  0.87380422  1
  Na  Na84  1  0.74746270  0.16774953  0.12464152  1
  Na  Na85  1  0.74864483  0.16710551  0.37526647  1
  Na  Na86  1  0.75019289  0.16701642  0.62465806  1
  Na  Na87  1  0.75060095  0.16649796  0.87546622  1
  Na  Na88  1  0.75214327  0.49965073  0.12510180  1
  Na  Na89  1  0.75122231  0.49956970  0.37401356  1
  Na  Na90  1  0.75101252  0.50029885  0.62537615  1
  Na  Na91  1  0.75151970  0.50044913  0.87548626  1
  Na  Na92  1  0.75116721  0.83334701  0.12548431  1
  Na  Na93  1  0.74997597  0.83351245  0.37573204  1
  Na  Na94  1  0.74971599  0.83295916  0.62399225  1
  Na  Na95  1  0.75100099  0.83250339  0.87468122  1
  Mn  Mn96  1  0.39186410  0.58307267  0.37726477  1
  Mn  Mn97  1  0.10759346  0.75004279  0.12154108  1
  Mn  Mn98  1  0.35712505  0.41687917  0.00269052  1
  Mn  Mn99  1  0.10652457  0.41648745  0.87304248  1
  Mn  Mn100  1  0.39226086  0.58325988  0.87695796  1
  Mn  Mn101  1  0.60772573  0.75024216  0.37261100  1
  Mn  Mn102  1  0.10717669  0.75025535  0.87316669  1
  Mn  Mn103  1  0.60837614  0.41679963  0.62248307  1
  Mn  Mn104  1  0.39235282  0.91620197  0.87741147  1
  Mn  Mn105  1  0.35775961  0.41691137  0.50152690  1
  Mn  Mn106  1  0.35791444  0.08372252  0.00242284  1
  Mn  Mn107  1  0.89342049  0.58409410  0.37747310  1
  Mn  Mn108  1  0.60760892  0.75002779  0.12260415  1
  Mn  Mn109  1  0.10799506  0.08322195  0.12196791  1
  Mn  Mn110  1  0.64368290  0.58355215  0.99798691  1
  Mn  Mn111  1  0.35679805  0.74955315  0.25288483  1
  Mn  Mn112  1  0.89172299  0.91587089  0.62760590  1
  Mn  Mn113  1  0.35806299  0.08401987  0.50257445  1
  Mn  Mn114  1  0.85834785  0.74918367  0.50233796  1
  Mn  Mn115  1  0.60901647  0.08231122  0.87275332  1
  Mn  Mn116  1  0.85766386  0.41672744  0.75260425  1
  Mn  Mn117  1  0.14256064  0.91662476  0.99789546  1
  Mn  Mn118  1  0.39280890  0.25020559  0.12693329  1
  Mn  Mn119  1  0.85728383  0.08401218  0.25248240  1
  Mn  Mn120  1  0.39272390  0.25061250  0.37686142  1
  Mn  Mn121  1  0.39167752  0.58235213  0.12694005  1
  Mn  Mn122  1  0.89229384  0.25019152  0.12768486  1
  Mn  Mn123  1  0.10652783  0.08299429  0.62294131  1
  Mn  Mn124  1  0.35844674  0.08410468  0.75167026  1
  Mn  Mn125  1  0.14188840  0.91672450  0.49745057  1
  Mn  Mn126  1  0.64239754  0.91678231  0.74728404  1
  Mn  Mn127  1  0.35747756  0.41670303  0.75211069  1
  Mn  Mn128  1  0.14188855  0.91696979  0.74734088  1
  Mn  Mn129  1  0.64263652  0.91641972  0.99845312  1
  Mn  Mn130  1  0.10664975  0.08354469  0.87272548  1
  Mn  Mn131  1  0.60797428  0.08299203  0.37242419  1
  Mn  Mn132  1  0.64293628  0.58347169  0.24717489  1
  Mn  Mn133  1  0.89225794  0.24918843  0.37663518  1
  Mn  Mn134  1  0.35794902  0.74933219  0.75143293  1
  Mn  Mn135  1  0.35725377  0.41627940  0.25214352  1
  Mn  Mn136  1  0.10680766  0.41674332  0.62258093  1
  Mn  Mn137  1  0.35703170  0.74892921  0.50229616  1
  Mn  Mn138  1  0.39275604  0.25013278  0.87745559  1
  Mn  Mn139  1  0.64217666  0.91669603  0.49738789  1
  Mn  Mn140  1  0.85832855  0.75014328  0.25279031  1
  Mn  Mn141  1  0.89124644  0.91661178  0.87747256  1
  Mn  Mn142  1  0.14137597  0.25015766  0.49815956  1
  Mn  Mn143  1  0.60895105  0.41764229  0.87274980  1
  Fe  Fe144  1  0.60761717  0.75032405  0.62333012  1
  Fe  Fe145  1  0.64335389  0.25075522  0.49893704  1
  Fe  Fe146  1  0.64309344  0.58250485  0.49865928  1
  Fe  Fe147  1  0.60796675  0.08278686  0.62344538  1
  Fe  Fe148  1  0.64269582  0.24977034  0.24788831  1
  Fe  Fe149  1  0.85731258  0.41604407  0.25165502  1
  Fe  Fe150  1  0.39252324  0.91717652  0.12728611  1
  Fe  Fe151  1  0.14165375  0.25005147  0.74776145  1
  Fe  Fe152  1  0.64362179  0.58331926  0.74815618  1
  Fe  Fe153  1  0.89196236  0.25049261  0.87719162  1
  Fe  Fe154  1  0.60878169  0.41739745  0.37340150  1
  Fe  Fe155  1  0.14229550  0.24935008  0.24851402  1
  Fe  Fe156  1  0.60704458  0.08314546  0.12387346  1
  Fe  Fe157  1  0.10740822  0.75110966  0.37295571  1
  Fe  Fe158  1  0.10677179  0.74998824  0.62423279  1
  Fe  Fe159  1  0.85743134  0.41650305  0.50058553  1
  Fe  Fe160  1  0.85748079  0.08415687  0.50135909  1
  Fe  Fe161  1  0.39373632  0.24991240  0.62701374  1
  Fe  Fe162  1  0.10684060  0.41601810  0.37295131  1
  Fe  Fe163  1  0.60822252  0.74992423  0.87349201  1
  Fe  Fe164  1  0.10653382  0.41677700  0.12300322  1
  Fe  Fe165  1  0.10715591  0.08297267  0.37350876  1
  Fe  Fe166  1  0.14187090  0.58283087  0.49876845  1
  Fe  Fe167  1  0.35763708  0.74922706  0.00102279  1
  Fe  Fe168  1  0.85683172  0.08337088  0.00250144  1
  Fe  Fe169  1  0.39295332  0.58324676  0.62685226  1
  Fe  Fe170  1  0.89335827  0.91664316  0.37561242  1
  Fe  Fe171  1  0.14136648  0.58309748  0.74751069  1
  Fe  Fe172  1  0.89234509  0.91635225  0.12750424  1
  Fe  Fe173  1  0.85704893  0.75024471  0.75115201  1
  Fe  Fe174  1  0.35711612  0.08388877  0.25161011  1
  Fe  Fe175  1  0.85740166  0.75022083  0.00200616  1
  Fe  Fe176  1  0.39324487  0.91665637  0.62601790  1
  Fe  Fe177  1  0.60850285  0.41673156  0.12307932  1
  Fe  Fe178  1  0.39244781  0.91655129  0.37620857  1
  Fe  Fe179  1  0.64397584  0.25024808  0.99838404  1
  Fe  Fe180  1  0.14213918  0.24986094  0.99754891  1
  Fe  Fe181  1  0.89254769  0.58362017  0.62632994  1
  Fe  Fe182  1  0.89231434  0.58286139  0.87703726  1
  Fe  Fe183  1  0.85654524  0.08319293  0.75156422  1
  Fe  Fe184  1  0.64366491  0.25017054  0.74828745  1
  Fe  Fe185  1  0.64253792  0.91697483  0.24830160  1
  Fe  Fe186  1  0.89356120  0.58338375  0.12686854  1
  Fe  Fe187  1  0.14204523  0.58352192  0.99801599  1
  Fe  Fe188  1  0.85755450  0.41646246  0.00257669  1
  Fe  Fe189  1  0.14174527  0.58323768  0.24771318  1
  Fe  Fe190  1  0.89133771  0.25050132  0.62677264  1
  Fe  Fe191  1  0.14280820  0.91728221  0.24798825  1
  P  P192  1  0.05517697  0.25057316  0.11047141  1
  P  P193  1  0.05350766  0.24938362  0.35941951  1
  P  P194  1  0.05185783  0.24996577  0.61105611  1
  P  P195  1  0.05273722  0.25014278  0.86028162  1
  P  P196  1  0.05391275  0.58253853  0.11040234  1
  P  P197  1  0.05540986  0.58326336  0.36077192  1
  P  P198  1  0.05331421  0.58396324  0.61071546  1
  P  P199  1  0.05331189  0.58316108  0.86071764  1
  P  P200  1  0.05281760  0.91687742  0.11035435  1
  P  P201  1  0.05287721  0.91736849  0.35921824  1
  P  P202  1  0.05272405  0.91581954  0.61021200  1
  P  P203  1  0.05253853  0.91693578  0.85991549  1
  P  P204  1  0.55623547  0.24992431  0.11085813  1
  P  P205  1  0.55636965  0.25114813  0.36094057  1
  P  P206  1  0.55506744  0.24918635  0.61082223  1
  P  P207  1  0.55644118  0.25012841  0.86060139  1
  P  P208  1  0.55370323  0.58238192  0.10976906  1
  P  P209  1  0.55500713  0.58257753  0.36106936  1
  P  P210  1  0.55463527  0.58403556  0.61072497  1
  P  P211  1  0.55486059  0.58441903  0.85942712  1
  P  P212  1  0.55319593  0.91767791  0.11153828  1
  P  P213  1  0.55254320  0.91655637  0.35893031  1
  P  P214  1  0.55277036  0.91674299  0.60997984  1
  P  P215  1  0.55378683  0.91530320  0.86035926  1
  P  P216  1  0.44703762  0.08363216  0.14073967  1
  P  P217  1  0.44535720  0.08312506  0.38852574  1
  P  P218  1  0.44858818  0.08381798  0.63963301  1
  P  P219  1  0.44760420  0.08375655  0.89040031  1
  P  P220  1  0.44850946  0.41620204  0.14028687  1
  P  P221  1  0.44871914  0.41659606  0.39018425  1
  P  P222  1  0.44682846  0.41664371  0.63979404  1
  P  P223  1  0.44716441  0.41665609  0.89025093  1
  P  P224  1  0.44469338  0.74985069  0.13898574  1
  P  P225  1  0.44622557  0.75039542  0.38990192  1
  P  P226  1  0.44785775  0.74950546  0.63932960  1
  P  P227  1  0.44778599  0.74929830  0.89049271  1
  P  P228  1  0.94511461  0.08300262  0.13885960  1
  P  P229  1  0.94723348  0.08251293  0.38999446  1
  P  P230  1  0.94366486  0.08437893  0.63949470  1
  P  P231  1  0.94373982  0.08452946  0.88953812  1
  P  P232  1  0.94583717  0.41728760  0.13960052  1
  P  P233  1  0.94624855  0.41620793  0.38890238  1
  P  P234  1  0.94432944  0.41702017  0.63826486  1
  P  P235  1  0.94520753  0.41651640  0.89067732  1
  P  P236  1  0.94535092  0.74984326  0.13866010  1
  P  P237  1  0.94854384  0.75090364  0.38963475  1
  P  P238  1  0.94706436  0.74869995  0.64060469  1
  P  P239  1  0.94427812  0.74897596  0.88942738  1
  P  P240  1  0.19601342  0.08280510  0.23646769  1
  P  P241  1  0.19576290  0.08335732  0.48436205  1
  P  P242  1  0.19624351  0.08437146  0.73458844  1
  P  P243  1  0.19679054  0.08377345  0.98447812  1
  P  P244  1  0.19378188  0.41625168  0.23576613  1
  P  P245  1  0.19534695  0.41714817  0.48459115  1
  P  P246  1  0.19526445  0.41628363  0.73515115  1
  P  P247  1  0.19450528  0.41674455  0.98626434  1
  P  P248  1  0.19422983  0.75075837  0.23652863  1
  P  P249  1  0.19404269  0.74917340  0.48595677  1
  P  P250  1  0.19548068  0.74935901  0.73417473  1
  P  P251  1  0.19795977  0.74963338  0.98478379  1
  P  P252  1  0.69587346  0.08291435  0.23471592  1
  P  P253  1  0.69658363  0.08408151  0.48627390  1
  P  P254  1  0.69761654  0.08389447  0.73435605  1
  P  P255  1  0.69676652  0.08356880  0.98685961  1
  P  P256  1  0.69657710  0.41624427  0.23528959  1
  P  P257  1  0.69770172  0.41709022  0.48478471  1
  P  P258  1  0.69704524  0.41705985  0.73527010  1
  P  P259  1  0.69761304  0.41653124  0.98631720  1
  P  P260  1  0.69684171  0.75100048  0.23497080  1
  P  P261  1  0.69565565  0.74887255  0.48608053  1
  P  P262  1  0.69638688  0.74927378  0.73546106  1
  P  P263  1  0.69792375  0.75007258  0.98468172  1
  P  P264  1  0.30161259  0.25033209  0.01529698  1
  P  P265  1  0.30208734  0.24957427  0.26480567  1
  P  P266  1  0.30391215  0.25044125  0.51565900  1
  P  P267  1  0.30337621  0.25027582  0.76400197  1
  P  P268  1  0.30138551  0.58380995  0.01495289  1
  P  P269  1  0.30116732  0.58281420  0.26521159  1
  P  P270  1  0.30208393  0.58285698  0.51566174  1
  P  P271  1  0.30277092  0.58315953  0.76364254  1
  P  P272  1  0.30417835  0.91573301  0.01571147  1
  P  P273  1  0.30401230  0.91756691  0.26466112  1
  P  P274  1  0.30508940  0.91655744  0.51441759  1
  P  P275  1  0.30499144  0.91661587  0.76323192  1
  P  P276  1  0.80395846  0.25019984  0.01417635  1
  P  P277  1  0.80181576  0.25072441  0.26476244  1
  P  P278  1  0.80307248  0.25049295  0.51479089  1
  P  P279  1  0.80388161  0.24940727  0.76447688  1
  P  P280  1  0.80605219  0.58344300  0.01445633  1
  P  P281  1  0.80549794  0.58249754  0.26378365  1
  P  P282  1  0.80324203  0.58245154  0.51514582  1
  P  P283  1  0.80443747  0.58436975  0.76418919  1
  P  P284  1  0.80408321  0.91651308  0.01594238  1
  P  P285  1  0.80371126  0.91688575  0.26505095  1
  P  P286  1  0.80514795  0.91705594  0.51325699  1
  P  P287  1  0.80306502  0.91656755  0.76455243  1
  O  O288  1  0.05946278  0.24935719  0.18721349  1
  O  O289  1  0.05569314  0.24962130  0.43623583  1
  O  O290  1  0.05680123  0.25002072  0.68770823  1
  O  O291  1  0.05790949  0.24992114  0.93697761  1
  O  O292  1  0.05845365  0.58331732  0.18713295  1
  O  O293  1  0.05849869  0.58296680  0.43760307  1
  O  O294  1  0.05745390  0.58290280  0.68749321  1
  O  O295  1  0.05830249  0.58352733  0.93742018  1
  O  O296  1  0.05834911  0.91715107  0.18693863  1
  O  O297  1  0.05598752  0.91736991  0.43596146  1
  O  O298  1  0.05557953  0.91675032  0.68695543  1
  O  O299  1  0.05597976  0.91700655  0.93666571  1
  O  O300  1  0.55974957  0.25017882  0.18773241  1
  O  O301  1  0.56051696  0.25043926  0.43774480  1
  O  O302  1  0.56004906  0.24998518  0.68752274  1
  O  O303  1  0.56110046  0.25020774  0.93739988  1
  O  O304  1  0.55696238  0.58303805  0.18653948  1
  O  O305  1  0.55927621  0.58285100  0.43781623  1
  O  O306  1  0.55969050  0.58326152  0.68736036  1
  O  O307  1  0.55818195  0.58339541  0.93617876  1
  O  O308  1  0.55811393  0.91693741  0.18813077  1
  O  O309  1  0.55665217  0.91671122  0.43565721  1
  O  O310  1  0.55637216  0.91671657  0.68667343  1
  O  O311  1  0.55677183  0.91613889  0.93713565  1
  O  O312  1  0.44364398  0.08428780  0.06398972  1
  O  O313  1  0.44098216  0.08411159  0.31182492  1
  O  O314  1  0.44504554  0.08427398  0.56290519  1
  O  O315  1  0.44425867  0.08438497  0.81362387  1
  O  O316  1  0.44389040  0.41624725  0.06361944  1
  O  O317  1  0.44416010  0.41645612  0.31351796  1
  O  O318  1  0.44393740  0.41673646  0.56307959  1
  O  O319  1  0.44351429  0.41650880  0.81349558  1
  O  O320  1  0.44063664  0.74891925  0.06224107  1
  O  O321  1  0.44299761  0.74944374  0.31310565  1
  O  O322  1  0.44391835  0.74909085  0.56268679  1
  O  O323  1  0.44378928  0.74909498  0.81378067  1
  O  O324  1  0.94051549  0.08393793  0.06213001  1
  O  O325  1  0.94357806  0.08357622  0.31326285  1
  O  O326  1  0.93995947  0.08403966  0.56265265  1
  O  O327  1  0.93977264  0.08371683  0.81273675  1
  O  O328  1  0.94118472  0.41617537  0.06289514  1
  O  O329  1  0.94144976  0.41590766  0.31223415  1
  O  O330  1  0.94068708  0.41677199  0.56148756  1
  O  O331  1  0.94267145  0.41644462  0.81382298  1
  O  O332  1  0.94136399  0.75012743  0.06192142  1
  O  O333  1  0.94471699  0.74996678  0.31296900  1
  O  O334  1  0.94395197  0.74937620  0.56383619  1
  O  O335  1  0.94035931  0.74978039  0.81267584  1
  O  O336  1  0.19399248  0.08306113  0.06132042  1
  O  O337  1  0.19132282  0.08258585  0.31308986  1
  O  O338  1  0.19214892  0.08315425  0.56109959  1
  O  O339  1  0.19283037  0.08364179  0.81133311  1
  O  O340  1  0.19067396  0.41688784  0.06301304  1
  O  O341  1  0.19002739  0.41613582  0.31257829  1
  O  O342  1  0.19244712  0.41632243  0.56136564  1
  O  O343  1  0.19221136  0.41630491  0.81189658  1
  O  O344  1  0.19421539  0.75034433  0.06154347  1
  O  O345  1  0.19046271  0.75107622  0.31335636  1
  O  O346  1  0.19012898  0.75025636  0.56267310  1
  O  O347  1  0.19252906  0.75005967  0.81096281  1
  O  O348  1  0.69168679  0.08270193  0.06342325  1
  O  O349  1  0.69358860  0.08255270  0.31157682  1
  O  O350  1  0.69172615  0.08299137  0.56290337  1
  O  O351  1  0.69455061  0.08296666  0.81114036  1
  O  O352  1  0.69295358  0.41723281  0.06296705  1
  O  O353  1  0.69234304  0.41720778  0.31200628  1
  O  O354  1  0.69427536  0.41729073  0.56164198  1
  O  O355  1  0.69476745  0.41722797  0.81202920  1
  O  O356  1  0.69364176  0.74994442  0.06137137  1
  O  O357  1  0.69358983  0.75031361  0.31175313  1
  O  O358  1  0.69126204  0.74992543  0.56283885  1
  O  O359  1  0.69219285  0.75004945  0.81214066  1
  O  O360  1  0.30622905  0.25026276  0.18818192  1
  O  O361  1  0.30723974  0.25024100  0.43887249  1
  O  O362  1  0.30935850  0.25001347  0.68740324  1
  O  O363  1  0.30591475  0.25047789  0.93861712  1
  O  O364  1  0.30564911  0.58278341  0.18856589  1
  O  O365  1  0.30599799  0.58304685  0.43893545  1
  O  O366  1  0.30868864  0.58327817  0.68706053  1
  O  O367  1  0.30529926  0.58311430  0.93824630  1
  O  O368  1  0.30901852  0.91710503  0.18795014  1
  O  O369  1  0.30926997  0.91653061  0.43765762  1
  O  O370  1  0.30993062  0.91662029  0.68647398  1
  O  O371  1  0.30671600  0.91654283  0.93882547  1
  O  O372  1  0.80577225  0.25019924  0.18812904  1
  O  O373  1  0.80637645  0.25015998  0.43808046  1
  O  O374  1  0.80796519  0.25044923  0.68775484  1
  O  O375  1  0.80792554  0.25030381  0.93747171  1
  O  O376  1  0.80973807  0.58335577  0.18706080  1
  O  O377  1  0.80721626  0.58350514  0.43841120  1
  O  O378  1  0.80880115  0.58380713  0.68750801  1
  O  O379  1  0.80898448  0.58325599  0.93759109  1
  O  O380  1  0.80871389  0.91655825  0.18837394  1
  O  O381  1  0.80967045  0.91630165  0.43654290  1
  O  O382  1  0.80553056  0.91617091  0.68775731  1
  O  O383  1  0.80636672  0.91651563  0.93910430  1
  O  O384  1  0.23146607  0.25013558  0.03943035  1
  O  O385  1  0.23187638  0.24963786  0.28895525  1
  O  O386  1  0.23395541  0.25040472  0.54009124  1
  O  O387  1  0.23284085  0.25034885  0.78697126  1
  O  O388  1  0.23131513  0.58357296  0.03957988  1
  O  O389  1  0.23086253  0.58295875  0.28880627  1
  O  O390  1  0.23182418  0.58285260  0.53960734  1
  O  O391  1  0.23214795  0.58319672  0.78642540  1
  O  O392  1  0.23460480  0.91671945  0.04133888  1
  O  O393  1  0.23358064  0.91687862  0.28812835  1
  O  O394  1  0.23488083  0.91684792  0.53808292  1
  O  O395  1  0.23485969  0.91650451  0.78698618  1
  O  O396  1  0.73376396  0.25032045  0.03843565  1
  O  O397  1  0.73176842  0.24990183  0.28914918  1
  O  O398  1  0.73295774  0.25061085  0.53950867  1
  O  O399  1  0.73361456  0.25011276  0.78849041  1
  O  O400  1  0.73621408  0.58351709  0.03942218  1
  O  O401  1  0.73548822  0.58284605  0.28784861  1
  O  O402  1  0.73313382  0.58282555  0.53949907  1
  O  O403  1  0.73415321  0.58358342  0.78815171  1
  O  O404  1  0.73445620  0.91655078  0.04136914  1
  O  O405  1  0.73335647  0.91716668  0.28859363  1
  O  O406  1  0.73508571  0.91676313  0.53739558  1
  O  O407  1  0.73369108  0.91673109  0.79055808  1
  O  O408  1  0.26631405  0.08339775  0.21242714  1
  O  O409  1  0.26565139  0.08359827  0.45998176  1
  O  O410  1  0.26595029  0.08405175  0.70948022  1
  O  O411  1  0.26632173  0.08367758  0.95893588  1
  O  O412  1  0.26379886  0.41643085  0.21127400  1
  O  O413  1  0.26496671  0.41659700  0.45916864  1
  O  O414  1  0.26487430  0.41671529  0.70983980  1
  O  O415  1  0.26427705  0.41669762  0.96126121  1
  O  O416  1  0.26419031  0.75027288  0.21221816  1
  O  O417  1  0.26404924  0.74950036  0.46155661  1
  O  O418  1  0.26518785  0.74952429  0.70901357  1
  O  O419  1  0.26779900  0.74951790  0.95969370  1
  O  O420  1  0.76547683  0.08379810  0.20930602  1
  O  O421  1  0.76694327  0.08420099  0.46243557  1
  O  O422  1  0.76758283  0.08358211  0.70959003  1
  O  O423  1  0.76712954  0.08346842  0.96317195  1
  O  O424  1  0.76690343  0.41657728  0.21133478  1
  O  O425  1  0.76774691  0.41657665  0.46006727  1
  O  O426  1  0.76656072  0.41688830  0.70967704  1
  O  O427  1  0.76788392  0.41688792  0.96239504  1
  O  O428  1  0.76658702  0.75045860  0.21019356  1
  O  O429  1  0.76569816  0.74912871  0.46182478  1
  O  O430  1  0.76668845  0.74968860  0.71133431  1
  O  O431  1  0.76816649  0.74987265  0.96089619  1
  O  O432  1  0.01526701  0.08319776  0.16248441  1
  O  O433  1  0.01725099  0.08322071  0.41463847  1
  O  O434  1  0.01360742  0.08352292  0.66391834  1
  O  O435  1  0.01372882  0.08373770  0.91388050  1
  O  O436  1  0.01627085  0.41680484  0.16296336  1
  O  O437  1  0.01669051  0.41633846  0.41233728  1
  O  O438  1  0.01409370  0.41692925  0.66323486  1
  O  O439  1  0.01477988  0.41679437  0.91603683  1
  O  O440  1  0.01535047  0.74958464  0.16286185  1
  O  O441  1  0.01863708  0.75072522  0.41398376  1
  O  O442  1  0.01691457  0.74916575  0.66565799  1
  O  O443  1  0.01425377  0.74991505  0.91391294  1
  O  O444  1  0.51711630  0.08377828  0.16529013  1
  O  O445  1  0.51548658  0.08333175  0.41256694  1
  O  O446  1  0.51858618  0.08337294  0.66462777  1
  O  O447  1  0.51732741  0.08292125  0.91533367  1
  O  O448  1  0.51875149  0.41618486  0.16410930  1
  O  O449  1  0.51880488  0.41671638  0.41450564  1
  O  O450  1  0.51662463  0.41657914  0.66500102  1
  O  O451  1  0.51708338  0.41678898  0.91467857  1
  O  O452  1  0.51475123  0.74989345  0.16321369  1
  O  O453  1  0.51589759  0.75032003  0.41496632  1
  O  O454  1  0.51799962  0.74970681  0.66385613  1
  O  O455  1  0.51785709  0.74963553  0.91498432  1
  O  O456  1  0.48628777  0.24981383  0.08622599  1
  O  O457  1  0.48630524  0.25035573  0.33678367  1
  O  O458  1  0.48469538  0.25014209  0.58721501  1
  O  O459  1  0.48629401  0.25013423  0.83693434  1
  O  O460  1  0.48405256  0.58267055  0.08460820  1
  O  O461  1  0.48506308  0.58300139  0.33658623  1
  O  O462  1  0.48417029  0.58337546  0.58725800  1
  O  O463  1  0.48510265  0.58364552  0.83446768  1
  O  O464  1  0.48280733  0.91712790  0.08792444  1
  O  O465  1  0.48236452  0.91662971  0.33495726  1
  O  O466  1  0.48277666  0.91673894  0.58515348  1
  O  O467  1  0.48423137  0.91578007  0.83494773  1
  O  O468  1  0.98496849  0.25013186  0.08686655  1
  O  O469  1  0.98396766  0.24945708  0.33350610  1
  O  O470  1  0.98158789  0.25016684  0.58723363  1
  O  O471  1  0.98220726  0.25049081  0.83720540  1
  O  O472  1  0.98351520  0.58317571  0.08695452  1
  O  O473  1  0.98549765  0.58327690  0.33591063  1
  O  O474  1  0.98312632  0.58347533  0.58645442  1
  O  O475  1  0.98279247  0.58268293  0.83754943  1
  O  O476  1  0.98238792  0.91681863  0.08715314  1
  O  O477  1  0.98285848  0.91693376  0.33420359  1
  O  O478  1  0.98308945  0.91608771  0.58497106  1
  O  O479  1  0.98271812  0.91654162  0.83518272  1
  O  O480  1  0.08817451  0.31604406  0.07775801  1
  O  O481  1  0.08795958  0.31440101  0.32728749  1
  O  O482  1  0.08526727  0.31489250  0.57763914  1
  O  O483  1  0.08605692  0.31515239  0.82690794  1
  O  O484  1  0.08750266  0.64724034  0.07657928  1
  O  O485  1  0.08916393  0.64841897  0.32809574  1
  O  O486  1  0.08686355  0.64919021  0.57823038  1
  O  O487  1  0.08643976  0.64814427  0.82718956  1
  O  O488  1  0.08597929  0.98180683  0.07673706  1
  O  O489  1  0.08661789  0.98258472  0.32653559  1
  O  O490  1  0.08688484  0.98065448  0.57737069  1
  O  O491  1  0.08611121  0.98207390  0.82718754  1
  O  O492  1  0.59017131  0.31492494  0.07790866  1
  O  O493  1  0.58971374  0.31644265  0.32822669  1
  O  O494  1  0.58894812  0.31403891  0.57728994  1
  O  O495  1  0.59006371  0.31506077  0.82729459  1
  O  O496  1  0.58795387  0.64742247  0.07732212  1
  O  O497  1  0.58875051  0.64751495  0.32786538  1
  O  O498  1  0.58787291  0.64910662  0.57752610  1
  O  O499  1  0.58873137  0.64983273  0.82740982  1
  O  O500  1  0.58611228  0.98304824  0.07839137  1
  O  O501  1  0.58652556  0.98153545  0.32618213  1
  O  O502  1  0.58660800  0.98183416  0.57725205  1
  O  O503  1  0.58813706  0.98018288  0.82766429  1
  O  O504  1  0.41278039  0.01860633  0.17302818  1
  O  O505  1  0.41211706  0.01774718  0.42113704  1
  O  O506  1  0.41443409  0.01872456  0.67183485  1
  O  O507  1  0.41312599  0.01869326  0.92226577  1
  O  O508  1  0.41501131  0.35109900  0.17335510  1
  O  O509  1  0.41504938  0.35153318  0.42301946  1
  O  O510  1  0.41293510  0.35142295  0.67218211  1
  O  O511  1  0.41340778  0.35167488  0.92312488  1
  O  O512  1  0.41121283  0.68489225  0.17246901  1
  O  O513  1  0.41220887  0.68538180  0.42267203  1
  O  O514  1  0.41425727  0.68440601  0.67243436  1
  O  O515  1  0.41391298  0.68423275  0.92335666  1
  O  O516  1  0.91173993  0.01785435  0.17172701  1
  O  O517  1  0.91344125  0.01729964  0.42223258  1
  O  O518  1  0.90950436  0.01953268  0.67245582  1
  O  O519  1  0.90957609  0.01976857  0.92267819  1
  O  O520  1  0.91233301  0.35248359  0.17343948  1
  O  O521  1  0.91283636  0.35128251  0.42232461  1
  O  O522  1  0.91050894  0.35205421  0.67129773  1
  O  O523  1  0.91108398  0.35140512  0.92306945  1
  O  O524  1  0.91194538  0.68464167  0.17161452  1
  O  O525  1  0.91495462  0.68591638  0.42289809  1
  O  O526  1  0.91298810  0.68358113  0.67283312  1
  O  O527  1  0.91117248  0.68352007  0.92207641  1
  O  O528  1  0.16309077  0.01756013  0.20281776  1
  O  O529  1  0.16186810  0.01836214  0.45143230  1
  O  O530  1  0.16211808  0.01938450  0.70189235  1
  O  O531  1  0.16255233  0.01873693  0.95210933  1
  O  O532  1  0.16005383  0.35116413  0.20291568  1
  O  O533  1  0.16057309  0.35241945  0.45204753  1
  O  O534  1  0.16131053  0.35107908  0.70266558  1
  O  O535  1  0.16067148  0.35154417  0.95354205  1
  O  O536  1  0.16046410  0.68560643  0.20384156  1
  O  O537  1  0.16045130  0.68383013  0.45365301  1
  O  O538  1  0.16107692  0.68421660  0.70218966  1
  O  O539  1  0.16352350  0.68464700  0.95264008  1
  O  O540  1  0.66195837  0.01767837  0.20229863  1
  O  O541  1  0.66342012  0.01917330  0.45239135  1
  O  O542  1  0.66345683  0.01908232  0.70132891  1
  O  O543  1  0.66381724  0.01851950  0.95303327  1
  O  O544  1  0.66322477  0.35098929  0.20252293  1
  O  O545  1  0.66341860  0.35215640  0.45251791  1
  O  O546  1  0.66287578  0.35195975  0.70306824  1
  O  O547  1  0.66433659  0.35141011  0.95334593  1
  O  O548  1  0.66274650  0.68609114  0.20219655  1
  O  O549  1  0.66234790  0.68348484  0.45359128  1
  O  O550  1  0.66302556  0.68401404  0.70261262  1
  O  O551  1  0.66420021  0.68520063  0.95153557  1
  O  O552  1  0.33519870  0.31532227  0.04844733  1
  O  O553  1  0.33562466  0.31464171  0.29798972  1
  O  O554  1  0.33800908  0.31546028  0.54806049  1
  O  O555  1  0.33633607  0.31536025  0.79770042  1
  O  O556  1  0.33513727  0.64893328  0.04741681  1
  O  O557  1  0.33458055  0.64785698  0.29834591  1
  O  O558  1  0.33585029  0.64780910  0.54871642  1
  O  O559  1  0.33579650  0.64821104  0.79726746  1
  O  O560  1  0.33914087  0.98047263  0.04817848  1
  O  O561  1  0.33720292  0.98277991  0.29771300  1
  O  O562  1  0.33891815  0.98143961  0.54755195  1
  O  O563  1  0.33831059  0.98167210  0.79646919  1
  O  O564  1  0.83738212  0.31527175  0.04738357  1
  O  O565  1  0.83534355  0.31586100  0.29740010  1
  O  O566  1  0.83691810  0.31560514  0.54737177  1
  O  O567  1  0.83780466  0.31408964  0.79806062  1
  O  O568  1  0.83993987  0.64859123  0.04698806  1
  O  O569  1  0.83903503  0.64736851  0.29739714  1
  O  O570  1  0.83731189  0.64720081  0.54845645  1
  O  O571  1  0.83764390  0.64952768  0.79722571  1
  O  O572  1  0.83844907  0.98150103  0.04819510  1
  O  O573  1  0.83737815  0.98189039  0.29808943  1
  O  O574  1  0.83840309  0.98237322  0.54589605  1
  O  O575  1  0.83736189  0.98176503  0.79646119  1
  O  O576  1  0.41309407  0.14859925  0.17371213  1
  O  O577  1  0.41208805  0.14807912  0.42207944  1
  O  O578  1  0.41500801  0.14902022  0.67256330  1
  O  O579  1  0.41410859  0.14888046  0.92337383  1
  O  O580  1  0.41470640  0.48119462  0.17325156  1
  O  O581  1  0.41473634  0.48156845  0.42294082  1
  O  O582  1  0.41290428  0.48191684  0.67212633  1
  O  O583  1  0.41324997  0.48184851  0.92265048  1
  O  O584  1  0.41110978  0.81517846  0.17147391  1
  O  O585  1  0.41217500  0.81567999  0.42169741  1
  O  O586  1  0.41416912  0.81468675  0.67187576  1
  O  O587  1  0.41346218  0.81410241  0.92316316  1
  O  O588  1  0.91192615  0.14801125  0.17254100  1
  O  O589  1  0.91276566  0.14725352  0.42297610  1
  O  O590  1  0.91028652  0.14960152  0.67232662  1
  O  O591  1  0.91049145  0.14992698  0.92227885  1
  O  O592  1  0.91278987  0.48250976  0.17260982  1
  O  O593  1  0.91286771  0.48114178  0.42238474  1
  O  O594  1  0.91087719  0.48231330  0.67104759  1
  O  O595  1  0.91081450  0.48155533  0.92273706  1
  O  O596  1  0.91201672  0.81499779  0.17189441  1
  O  O597  1  0.91473002  0.81593344  0.42199243  1
  O  O598  1  0.91255519  0.81343968  0.67338530  1
  O  O599  1  0.90999794  0.81362388  0.92265871  1
  O  O600  1  0.08890322  0.18591888  0.07669657  1
  O  O601  1  0.08786695  0.18422855  0.32734715  1
  O  O602  1  0.08517001  0.18498288  0.57773543  1
  O  O603  1  0.08584654  0.18519751  0.82658961  1
  O  O604  1  0.08681992  0.51722501  0.07740550  1
  O  O605  1  0.08900676  0.51812381  0.32787673  1
  O  O606  1  0.08714717  0.51926979  0.57709195  1
  O  O607  1  0.08658213  0.51819322  0.82725317  1
  O  O608  1  0.08585741  0.85175561  0.07685218  1
  O  O609  1  0.08722294  0.85251629  0.32665082  1
  O  O610  1  0.08665915  0.85050980  0.57827421  1
  O  O611  1  0.08671152  0.85191580  0.82766602  1
  O  O612  1  0.59008165  0.18466470  0.07836771  1
  O  O613  1  0.59030725  0.18633032  0.32763827  1
  O  O614  1  0.58812190  0.18400700  0.57760883  1
  O  O615  1  0.59009045  0.18512857  0.82747368  1
  O  O616  1  0.58785139  0.51721745  0.07763914  1
  O  O617  1  0.58864269  0.51736279  0.32833747  1
  O  O618  1  0.58830554  0.51913388  0.57704397  1
  O  O619  1  0.58958617  0.51981921  0.82651443  1
  O  O620  1  0.58667054  0.85285837  0.07784001  1
  O  O621  1  0.58638883  0.85165506  0.32603444  1
  O  O622  1  0.58663938  0.85162577  0.57739097  1
  O  O623  1  0.58774656  0.85001456  0.82830290  1
  O  O624  1  0.33543266  0.18527638  0.04804801  1
  O  O625  1  0.33579691  0.18453174  0.29748439  1
  O  O626  1  0.33799554  0.18549726  0.54846957  1
  O  O627  1  0.33650775  0.18527507  0.79769168  1
  O  O628  1  0.33511039  0.51877491  0.04812375  1
  O  O629  1  0.33469001  0.51775730  0.29819760  1
  O  O630  1  0.33597737  0.51788090  0.54835325  1
  O  O631  1  0.33565778  0.51818537  0.79751633  1
  O  O632  1  0.33800969  0.85027382  0.04749722  1
  O  O633  1  0.33755981  0.85269899  0.29824296  1
  O  O634  1  0.33848236  0.85148817  0.54762874  1
  O  O635  1  0.33826121  0.85139947  0.79634103  1
  O  O636  1  0.83719088  0.18517556  0.04748132  1
  O  O637  1  0.83574125  0.18583195  0.29775449  1
  O  O638  1  0.83695068  0.18557488  0.54767403  1
  O  O639  1  0.83696973  0.18411100  0.79730581  1
  O  O640  1  0.83998768  0.51843482  0.04728188  1
  O  O641  1  0.83882647  0.51715682  0.29639961  1
  O  O642  1  0.83699534  0.51723158  0.54740491  1
  O  O643  1  0.83831708  0.51958992  0.79769956  1
  O  O644  1  0.83834143  0.85135280  0.04806696  1
  O  O645  1  0.83723712  0.85200331  0.29857389  1
  O  O646  1  0.83854873  0.85202538  0.54671411  1
  O  O647  1  0.83738281  0.85149069  0.79667828  1
  O  O648  1  0.16228635  0.14771580  0.20332302  1
  O  O649  1  0.16145286  0.14827687  0.45192599  1
  O  O650  1  0.16214724  0.14963953  0.70246468  1
  O  O651  1  0.16238274  0.14900063  0.95269698  1
  O  O652  1  0.15987917  0.48133384  0.20289562  1
  O  O653  1  0.16120366  0.48244640  0.45279186  1
  O  O654  1  0.16082629  0.48131417  0.70294595  1
  O  O655  1  0.16074411  0.48190145  0.95347686  1
  O  O656  1  0.16105918  0.81601488  0.20336355  1
  O  O657  1  0.16029105  0.81401994  0.45231689  1
  O  O658  1  0.16108581  0.81416625  0.70142515  1
  O  O659  1  0.16411295  0.81474692  0.95206019  1
  O  O660  1  0.66107497  0.14778624  0.20281594  1
  O  O661  1  0.66321286  0.14924547  0.45356958  1
  O  O662  1  0.66376969  0.14911454  0.70217964  1
  O  O663  1  0.66374934  0.14872286  0.95362513  1
  O  O664  1  0.66299458  0.48097679  0.20151088  1
  O  O665  1  0.66406842  0.48221883  0.45197141  1
  O  O666  1  0.66300565  0.48218111  0.70294553  1
  O  O667  1  0.66430611  0.48149106  0.95278289  1
  O  O668  1  0.66306777  0.81635234  0.20279452  1
  O  O669  1  0.66207210  0.81385187  0.45277157  1
  O  O670  1  0.66264713  0.81403400  0.70179439  1
  O  O671  1  0.66432134  0.81515211  0.95182715  1
