# generated using pymatgen
data_Na2MnFe(PO4)2
_symmetry_space_group_name_H-M   'P 1'
_cell_length_a   21.08596886
_cell_length_b   18.93858949
_cell_length_c   20.04516837
_cell_angle_alpha   90.00007380
_cell_angle_beta   90.00245426
_cell_angle_gamma   90.00009812
_symmetry_Int_Tables_number   1
_chemical_formula_structural   Na2MnFe(PO4)2
_chemical_formula_sum   'Na96 Mn48 Fe48 P96 O384'
_cell_volume   8004.80762545
_cell_formula_units_Z   48
loop_
 _symmetry_equiv_pos_site_id
 _symmetry_equiv_pos_as_xyz
  1  'x, y, z'
loop_
 _atom_site_type_symbol
 _atom_site_label
 _atom_site_symmetry_multiplicity
 _atom_site_fract_x
 _atom_site_fract_y
 _atom_site_fract_z
 _atom_site_occupancy
  Na  Na0  1  0.00004170  -0.00064646  0.00020794  1
  Na  Na1  1  -0.00024902  -0.00041727  0.25093533  1
  Na  Na2  1  0.00159760  0.00065105  0.49993933  1
  Na  Na3  1  0.00247441  0.00066339  0.74932267  1
  Na  Na4  1  0.00083835  0.33337505  0.00095436  1
  Na  Na5  1  -0.00069937  0.33309205  0.24978203  1
  Na  Na6  1  -0.00206182  0.33285794  0.49941812  1
  Na  Na7  1  -0.00039525  0.33328042  0.75019576  1
  Na  Na8  1  0.00128974  0.66715451  -0.00010712  1
  Na  Na9  1  0.00143701  0.66685460  0.24926236  1
  Na  Na10  1  -0.00171793  0.66610593  0.49988432  1
  Na  Na11  1  -0.00158681  0.66643573  0.75053689  1
  Na  Na12  1  0.50153917  0.00051345  0.00035048  1
  Na  Na13  1  0.49987386  0.00047478  0.25038226  1
  Na  Na14  1  0.49725196  -0.00084414  0.49970230  1
  Na  Na15  1  0.49765337  -0.00091526  0.75002456  1
  Na  Na16  1  0.49971358  0.33308207  0.00020474  1
  Na  Na17  1  0.49995109  0.33427589  0.24940592  1
  Na  Na18  1  0.49901976  0.33343719  0.49925229  1
  Na  Na19  1  0.49940811  0.33318020  0.75009176  1
  Na  Na20  1  0.49947897  0.66655373  -0.00099062  1
  Na  Na21  1  0.50075925  0.66728651  0.24913743  1
  Na  Na22  1  0.49936801  0.66624223  0.50084720  1
  Na  Na23  1  0.49992866  0.66707055  0.75154083  1
  Na  Na24  1  0.25020748  0.00028216  0.12469031  1
  Na  Na25  1  0.24926144  0.00010649  0.37558316  1
  Na  Na26  1  0.24881231  -0.00019979  0.62579933  1
  Na  Na27  1  0.24870913  -0.00066466  0.87445117  1
  Na  Na28  1  0.25109671  0.33368007  0.12557621  1
  Na  Na29  1  0.25148278  0.33370853  0.37419553  1
  Na  Na30  1  0.25200172  0.33385887  0.62507194  1
  Na  Na31  1  0.25061950  0.33340640  0.87439004  1
  Na  Na32  1  0.24871741  0.66615346  0.12514028  1
  Na  Na33  1  0.25035439  0.66636424  0.37453476  1
  Na  Na34  1  0.25280848  0.66771087  0.62503033  1
  Na  Na35  1  0.24952700  0.66657180  0.87499193  1
  Na  Na36  1  0.75079853  0.00033382  0.12481110  1
  Na  Na37  1  0.75135852  0.00027715  0.37412523  1
  Na  Na38  1  0.75233125  0.00067472  0.62456443  1
  Na  Na39  1  0.75020680  -0.00030879  0.87614595  1
  Na  Na40  1  0.74852075  0.33307630  0.12574070  1
  Na  Na41  1  0.75129585  0.33397359  0.37454610  1
  Na  Na42  1  0.75091339  0.33351909  0.62430997  1
  Na  Na43  1  0.74914851  0.33361769  0.87573281  1
  Na  Na44  1  0.74969456  0.66711494  0.12613313  1
  Na  Na45  1  0.74985428  0.66653050  0.37465991  1
  Na  Na46  1  0.75045755  0.66725206  0.62445029  1
  Na  Na47  1  0.74923839  0.66702052  0.87537944  1
  Na  Na48  1  0.00277448  0.16584148  0.00007350  1
  Na  Na49  1  0.00009034  0.16677517  0.24939538  1
  Na  Na50  1  0.00010847  0.16611751  0.49952437  1
  Na  Na51  1  0.00093294  0.16605722  0.75041401  1
  Na  Na52  1  -0.00002956  0.50103061  0.00072538  1
  Na  Na53  1  -0.00065976  0.50037913  0.25010166  1
  Na  Na54  1  -0.00206112  0.50030804  0.49888121  1
  Na  Na55  1  0.00013745  0.50030269  0.75053722  1
  Na  Na56  1  -0.00021955  0.83283370  0.00011529  1
  Na  Na57  1  0.00131686  0.83286553  0.25046088  1
  Na  Na58  1  0.00033381  0.83342740  0.50087833  1
  Na  Na59  1  -0.00006354  0.83241506  0.74920411  1
  Na  Na60  1  0.50044677  0.16644843  -0.00006225  1
  Na  Na61  1  0.49878681  0.16696368  0.25080573  1
  Na  Na62  1  0.49768861  0.16639965  0.49947319  1
  Na  Na63  1  0.49840905  0.16674475  0.74995226  1
  Na  Na64  1  0.50086641  0.49964764  -0.00010858  1
  Na  Na65  1  0.49827345  0.50031387  0.24914232  1
  Na  Na66  1  0.49812001  0.50086070  0.50073767  1
  Na  Na67  1  0.49993065  0.50054763  0.75016420  1
  Na  Na68  1  0.49952723  0.83352244  -0.00019646  1
  Na  Na69  1  0.50219492  0.83226996  0.24861636  1
  Na  Na70  1  0.50089341  0.83241442  0.49997761  1
  Na  Na71  1  0.49805970  0.83406876  0.75135719  1
  Na  Na72  1  0.24915029  0.16685925  0.12547220  1
  Na  Na73  1  0.25012244  0.16641793  0.37493900  1
  Na  Na74  1  0.25027491  0.16569133  0.62556466  1
  Na  Na75  1  0.24774705  0.16751723  0.87419131  1
  Na  Na76  1  0.25214347  0.49994700  0.12559246  1
  Na  Na77  1  0.25243088  0.50044842  0.37476624  1
  Na  Na78  1  0.25291997  0.50005253  0.62438489  1
  Na  Na79  1  0.25087394  0.50055795  0.87422935  1
  Na  Na80  1  0.24833936  0.83343375  0.12401281  1
  Na  Na81  1  0.24782954  0.83431855  0.37474263  1
  Na  Na82  1  0.24974987  0.83388438  0.62577232  1
  Na  Na83  1  0.25056786  0.83237681  0.87542911  1
  Na  Na84  1  0.74948763  0.16665619  0.12500815  1
  Na  Na85  1  0.75246933  0.16576943  0.37479548  1
  Na  Na86  1  0.75197932  0.16614926  0.62402225  1
  Na  Na87  1  0.74914246  0.16619032  0.87595683  1
  Na  Na88  1  0.75026043  0.49937842  0.12571982  1
  Na  Na89  1  0.75066161  0.49948501  0.37396309  1
  Na  Na90  1  0.75081011  0.49994763  0.62480027  1
  Na  Na91  1  0.74779436  0.50150525  0.87574544  1
  Na  Na92  1  0.74891450  0.83355576  0.12612022  1
  Na  Na93  1  0.74985926  0.83288935  0.37442774  1
  Na  Na94  1  0.75038363  0.83275334  0.62453033  1
  Na  Na95  1  0.75126573  0.83228560  0.87566437  1
  Mn  Mn96  1  0.35827449  0.41713082  0.75222717  1
  Mn  Mn97  1  0.60739507  0.41666944  0.62231007  1
  Mn  Mn98  1  0.39178522  0.24934163  0.87799175  1
  Mn  Mn99  1  0.64249909  0.24974893  0.49774390  1
  Mn  Mn100  1  0.85711627  0.41713908  0.00274459  1
  Mn  Mn101  1  0.89223169  0.25009233  0.12706697  1
  Mn  Mn102  1  0.14200803  0.25030693  0.74702426  1
  Mn  Mn103  1  0.89216506  0.25017192  0.62754604  1
  Mn  Mn104  1  0.39235618  0.58376812  0.87784529  1
  Mn  Mn105  1  0.10867391  0.41704437  0.87326710  1
  Mn  Mn106  1  0.10765359  0.41679864  0.62180455  1
  Mn  Mn107  1  0.39154720  0.25056141  0.37733932  1
  Mn  Mn108  1  0.10816826  0.74985632  0.37315353  1
  Mn  Mn109  1  0.89229584  0.58307134  0.37691220  1
  Mn  Mn110  1  0.10797413  0.08271844  0.12315394  1
  Mn  Mn111  1  0.60752750  0.75057750  0.87321284  1
  Mn  Mn112  1  0.64235443  0.91748629  0.24794553  1
  Mn  Mn113  1  0.85781401  0.74988639  0.25211089  1
  Mn  Mn114  1  0.10766042  0.74937430  0.62276752  1
  Mn  Mn115  1  0.35869148  0.75090243  0.50258133  1
  Mn  Mn116  1  0.14272118  0.25046025  0.49747509  1
  Mn  Mn117  1  0.89276675  0.91619801  0.62736038  1
  Mn  Mn118  1  0.64222967  0.24945654  0.24819633  1
  Mn  Mn119  1  0.64198929  0.91715852  0.49823619  1
  Mn  Mn120  1  0.64152118  0.58276427  0.24760131  1
  Mn  Mn121  1  0.89273041  0.91650721  0.87687917  1
  Mn  Mn122  1  0.35684072  0.08265425  0.75214847  1
  Mn  Mn123  1  0.14304226  0.58330849  0.49823720  1
  Mn  Mn124  1  0.10810067  0.41620741  0.37283810  1
  Mn  Mn125  1  0.64205693  0.91662019  0.74744962  1
  Mn  Mn126  1  0.64203393  0.58282198  0.49775893  1
  Mn  Mn127  1  0.14237768  0.58370495  0.74684028  1
  Mn  Mn128  1  0.64234605  0.24970940  0.74682872  1
  Mn  Mn129  1  0.10848842  0.41743611  0.12314530  1
  Mn  Mn130  1  0.89310847  0.91706754  0.37754774  1
  Mn  Mn131  1  0.89249649  0.24994949  0.87785839  1
  Mn  Mn132  1  0.89183433  0.58334886  0.87778791  1
  Mn  Mn133  1  0.35758129  0.75060165  0.25158883  1
  Mn  Mn134  1  0.60750035  0.08268605  0.62262093  1
  Mn  Mn135  1  0.35728108  0.08357956  0.00261090  1
  Mn  Mn136  1  0.85759473  0.41677212  0.75306394  1
  Mn  Mn137  1  0.85771115  0.08309708  0.00246956  1
  Mn  Mn138  1  0.39147788  0.91553287  0.37675877  1
  Mn  Mn139  1  0.60789282  0.08292621  0.87225377  1
  Mn  Mn140  1  0.60768285  0.41640507  0.87301647  1
  Mn  Mn141  1  0.60755853  0.08343054  0.37308763  1
  Mn  Mn142  1  0.14183432  0.91657127  0.99714364  1
  Mn  Mn143  1  0.39267219  0.91700071  0.12747481  1
  Fe  Fe144  1  0.14309161  0.25041484  0.24837370  1
  Fe  Fe145  1  0.14303301  0.91660422  0.49893454  1
  Fe  Fe146  1  0.85739803  0.74978533  0.00224848  1
  Fe  Fe147  1  0.85827937  0.08280312  0.75193994  1
  Fe  Fe148  1  0.10733326  0.75023626  0.87299593  1
  Fe  Fe149  1  0.39272959  0.58336532  0.12595792  1
  Fe  Fe150  1  0.60717997  0.74988019  0.12224750  1
  Fe  Fe151  1  0.10702545  0.74972820  0.12311029  1
  Fe  Fe152  1  0.89314318  0.24968589  0.37598628  1
  Fe  Fe153  1  0.85784334  0.08386719  0.25157959  1
  Fe  Fe154  1  0.14326621  0.25104881  0.99871591  1
  Fe  Fe155  1  0.60694341  0.41712358  0.37337262  1
  Fe  Fe156  1  0.64313965  0.91632331  0.99854884  1
  Fe  Fe157  1  0.35829260  0.41620461  0.50184411  1
  Fe  Fe158  1  0.39245781  0.24995808  0.12622526  1
  Fe  Fe159  1  0.85673145  0.75027876  0.75188091  1
  Fe  Fe160  1  0.89290744  0.58375738  0.12660384  1
  Fe  Fe161  1  0.85700581  0.41597051  0.25152140  1
  Fe  Fe162  1  0.10711514  0.08367150  0.62263429  1
  Fe  Fe163  1  0.14319759  0.58264965  0.99884027  1
  Fe  Fe164  1  0.64282311  0.58383706  0.74804079  1
  Fe  Fe165  1  0.85848723  0.08309407  0.50164758  1
  Fe  Fe166  1  0.85718557  0.41690313  0.50153344  1
  Fe  Fe167  1  0.39173390  0.91623937  0.62694971  1
  Fe  Fe168  1  0.35751513  0.75053294  0.75186670  1
  Fe  Fe169  1  0.60741176  0.08359813  0.12391833  1
  Fe  Fe170  1  0.14342088  0.58323436  0.24798640  1
  Fe  Fe171  1  0.35760661  0.41709211  0.00183659  1
  Fe  Fe172  1  0.64156015  0.24981329  0.99893849  1
  Fe  Fe173  1  0.39231920  0.24959838  0.62632382  1
  Fe  Fe174  1  0.89259492  0.91600606  0.12667951  1
  Fe  Fe175  1  0.39286197  0.58405682  0.37603095  1
  Fe  Fe176  1  0.60691573  0.75046082  0.62404322  1
  Fe  Fe177  1  0.35780458  0.41653023  0.25155655  1
  Fe  Fe178  1  0.60654999  0.41657034  0.12323538  1
  Fe  Fe179  1  0.89176883  0.58320536  0.62686454  1
  Fe  Fe180  1  0.35632307  0.08342189  0.50193131  1
  Fe  Fe181  1  0.14235480  0.91668856  0.24789988  1
  Fe  Fe182  1  0.10767073  0.08397935  0.37310782  1
  Fe  Fe183  1  0.39339356  0.58420709  0.62731540  1
  Fe  Fe184  1  0.60767782  0.74937010  0.37404450  1
  Fe  Fe185  1  0.64266730  0.58383249  0.99931738  1
  Fe  Fe186  1  0.35637244  0.74940727  0.00217941  1
  Fe  Fe187  1  0.35695162  0.08324669  0.25125671  1
  Fe  Fe188  1  0.85699987  0.74968633  0.50179241  1
  Fe  Fe189  1  0.10746548  0.08259921  0.87303844  1
  Fe  Fe190  1  0.14312063  0.91584499  0.74840584  1
  Fe  Fe191  1  0.39196779  0.91701439  0.87740940  1
  P  P192  1  0.05554857  0.25033271  0.11074744  1
  P  P193  1  0.05327317  0.24932609  0.35931923  1
  P  P194  1  0.05312314  0.24944114  0.60940786  1
  P  P195  1  0.05513244  0.24976897  0.86133862  1
  P  P196  1  0.05442545  0.58389454  0.11076363  1
  P  P197  1  0.05438172  0.58302053  0.35918538  1
  P  P198  1  0.05147482  0.58339756  0.60946952  1
  P  P199  1  0.05495854  0.58429344  0.86128700  1
  P  P200  1  0.05335093  0.91576895  0.11121298  1
  P  P201  1  0.05589719  0.91759649  0.36102541  1
  P  P202  1  0.05553301  0.91701703  0.61071717  1
  P  P203  1  0.05418915  0.91581542  0.85922562  1
  P  P204  1  0.55241153  0.25001555  0.11024465  1
  P  P205  1  0.55312729  0.25088828  0.36022173  1
  P  P206  1  0.55165588  0.24947808  0.60947156  1
  P  P207  1  0.55419284  0.24980905  0.86064641  1
  P  P208  1  0.55260343  0.58310540  0.10932759  1
  P  P209  1  0.55218526  0.58294843  0.36018085  1
  P  P210  1  0.55352436  0.58472071  0.61169564  1
  P  P211  1  0.55545269  0.58366809  0.86076887  1
  P  P212  1  0.55426337  0.91704692  0.10958605  1
  P  P213  1  0.55314945  0.91597285  0.35999081  1
  P  P214  1  0.55140400  0.91579613  0.61028283  1
  P  P215  1  0.55307200  0.91647349  0.86108495  1
  P  P216  1  0.44717613  0.08432995  0.14047098  1
  P  P217  1  0.44407834  0.08286091  0.38937911  1
  P  P218  1  0.44469428  0.08289224  0.63868939  1
  P  P219  1  0.44618381  0.08227932  0.89032351  1
  P  P220  1  0.44535896  0.41671328  0.13869566  1
  P  P221  1  0.44587982  0.41795500  0.38894823  1
  P  P222  1  0.44543034  0.41652529  0.63880762  1
  P  P223  1  0.44592246  0.41678475  0.89108954  1
  P  P224  1  0.44659765  0.74923145  0.13809017  1
  P  P225  1  0.44794847  0.74926264  0.38952630  1
  P  P226  1  0.44700394  0.75042085  0.64101017  1
  P  P227  1  0.44429302  0.75109283  0.88997267  1
  P  P228  1  0.94616558  0.08234756  0.14046936  1
  P  P229  1  0.94665393  0.08426899  0.38907832  1
  P  P230  1  0.94641489  0.08303966  0.63956806  1
  P  P231  1  0.94725375  0.08286321  0.88925193  1
  P  P232  1  0.94608753  0.41778230  0.14055720  1
  P  P233  1  0.94491990  0.41550272  0.38882161  1
  P  P234  1  0.94528184  0.41776281  0.63916200  1
  P  P235  1  0.94710510  0.41688166  0.89103155  1
  P  P236  1  0.94640808  0.74970699  0.13873660  1
  P  P237  1  0.94632715  0.75008307  0.39069183  1
  P  P238  1  0.94452186  0.74888429  0.63950869  1
  P  P239  1  0.94591575  0.75002806  0.88980934  1
  P  P240  1  0.19633542  0.08345027  0.23642542  1
  P  P241  1  0.19571787  0.08292776  0.48585272  1
  P  P242  1  0.19406462  0.08207982  0.73552591  1
  P  P243  1  0.19581767  0.08412429  0.98447457  1
  P  P244  1  0.19819510  0.41705947  0.23537829  1
  P  P245  1  0.19898904  0.41697783  0.48472805  1
  P  P246  1  0.19699374  0.41716678  0.73414542  1
  P  P247  1  0.19856337  0.41714899  0.98559581  1
  P  P248  1  0.19570932  0.75000880  0.23429524  1
  P  P249  1  0.19742766  0.75049462  0.48528889  1
  P  P250  1  0.19686017  0.75067157  0.73609968  1
  P  P251  1  0.19538699  0.74886599  0.98572097  1
  P  P252  1  0.69760466  0.08356527  0.23455643  1
  P  P253  1  0.69850536  0.08315750  0.48472675  1
  P  P254  1  0.69849807  0.08288095  0.73455770  1
  P  P255  1  0.69483516  0.08290823  0.98673159  1
  P  P256  1  0.69537793  0.41630006  0.23571518  1
  P  P257  1  0.69722173  0.41668587  0.48407237  1
  P  P258  1  0.69647950  0.41752230  0.73481543  1
  P  P259  1  0.69457992  0.41701424  0.98699035  1
  P  P260  1  0.69427782  0.74978030  0.23559973  1
  P  P261  1  0.69601999  0.74991961  0.48572797  1
  P  P262  1  0.69684837  0.74974178  0.73463926  1
  P  P263  1  0.69640046  0.75003674  0.98678561  1
  P  P264  1  0.30264164  0.25056034  0.01572477  1
  P  P265  1  0.30391433  0.24976261  0.26306049  1
  P  P266  1  0.30388681  0.24980879  0.51580261  1
  P  P267  1  0.30444072  0.24970555  0.76392403  1
  P  P268  1  0.30298343  0.58371887  0.01545115  1
  P  P269  1  0.30472555  0.58327944  0.26376056  1
  P  P270  1  0.30623850  0.58309001  0.51424861  1
  P  P271  1  0.30509638  0.58472019  0.76394994  1
  P  P272  1  0.30400185  0.91589952  0.01401096  1
  P  P273  1  0.30170260  0.91709500  0.26447854  1
  P  P274  1  0.30253375  0.91747068  0.51564288  1
  P  P275  1  0.30394987  0.91576225  0.76478184  1
  P  P276  1  0.80149664  0.25006044  0.01524255  1
  P  P277  1  0.80432068  0.24993429  0.26514373  1
  P  P278  1  0.80524643  0.25008088  0.51317643  1
  P  P279  1  0.80349673  0.24898263  0.76558852  1
  P  P280  1  0.80259215  0.58446703  0.01607272  1
  P  P281  1  0.80444216  0.58259654  0.26352019  1
  P  P282  1  0.80387081  0.58316067  0.51494829  1
  P  P283  1  0.80300168  0.58445903  0.76424420  1
  P  P284  1  0.80330250  0.91549208  0.01570155  1
  P  P285  1  0.80513252  0.91724942  0.26377656  1
  P  P286  1  0.80390043  0.91644051  0.51459257  1
  P  P287  1  0.80352438  0.91644020  0.76506149  1
  O  O288  1  0.06001086  0.25060104  0.18749437  1
  O  O289  1  0.05690689  0.25015280  0.43604289  1
  O  O290  1  0.05618367  0.25020772  0.68620453  1
  O  O291  1  0.05950154  0.25082818  0.93813643  1
  O  O292  1  0.05949719  0.58284018  0.18742268  1
  O  O293  1  0.05760034  0.58288991  0.43595775  1
  O  O294  1  0.05572030  0.58361999  0.68619698  1
  O  O295  1  0.05954450  0.58337493  0.93802666  1
  O  O296  1  0.05820410  0.91654631  0.18790493  1
  O  O297  1  0.05983010  0.91678225  0.43780826  1
  O  O298  1  0.05936409  0.91581142  0.68743704  1
  O  O299  1  0.05634989  0.91578728  0.93611007  1
  O  O300  1  0.55590778  0.25003650  0.18697091  1
  O  O301  1  0.55622948  0.24996742  0.43674877  1
  O  O302  1  0.55558821  0.24936680  0.68624067  1
  O  O303  1  0.55874471  0.24976617  0.93742658  1
  O  O304  1  0.55577688  0.58319443  0.18627477  1
  O  O305  1  0.55551764  0.58268759  0.43679404  1
  O  O306  1  0.55832925  0.58391492  0.68840508  1
  O  O307  1  0.55980495  0.58392301  0.93747143  1
  O  O308  1  0.55698682  0.91714605  0.18639075  1
  O  O309  1  0.55602110  0.91683801  0.43676982  1
  O  O310  1  0.55522053  0.91680934  0.68700408  1
  O  O311  1  0.55877165  0.91629178  0.93764159  1
  O  O312  1  0.44348108  0.08354580  0.06379920  1
  O  O313  1  0.43967595  0.08304888  0.31266383  1
  O  O314  1  0.44063769  0.08278230  0.56192602  1
  O  O315  1  0.44254316  0.08280023  0.81356857  1
  O  O316  1  0.44083695  0.41665696  0.06202483  1
  O  O317  1  0.44121297  0.41675704  0.31221092  1
  O  O318  1  0.44204436  0.41642455  0.56197390  1
  O  O319  1  0.44299035  0.41700753  0.81426712  1
  O  O320  1  0.44126047  0.74970202  0.06154051  1
  O  O321  1  0.44414181  0.75028356  0.31278443  1
  O  O322  1  0.44406282  0.75038940  0.56437675  1
  O  O323  1  0.44045839  0.75035479  0.81319073  1
  O  O324  1  0.94335050  0.08308033  0.06361245  1
  O  O325  1  0.94186947  0.08346870  0.31242862  1
  O  O326  1  0.94158172  0.08287969  0.56282309  1
  O  O327  1  0.94231727  0.08301314  0.81257987  1
  O  O328  1  0.94300170  0.41707242  0.06375182  1
  O  O329  1  0.94090246  0.41649005  0.31210847  1
  O  O330  1  0.94105046  0.41713118  0.56237946  1
  O  O331  1  0.94360427  0.41693875  0.81423097  1
  O  O332  1  0.94185725  0.74969804  0.06204157  1
  O  O333  1  0.94340062  0.75006285  0.31388352  1
  O  O334  1  0.94031629  0.74987622  0.56276114  1
  O  O335  1  0.94068478  0.74979536  0.81314115  1
  O  O336  1  0.19323633  0.08280682  0.06128727  1
  O  O337  1  0.19217809  0.08361164  0.31317257  1
  O  O338  1  0.19127246  0.08376474  0.56252244  1
  O  O339  1  0.19028904  0.08295320  0.81232420  1
  O  O340  1  0.19508397  0.41725854  0.06218431  1
  O  O341  1  0.19459279  0.41717417  0.31213045  1
  O  O342  1  0.19471291  0.41708253  0.56133488  1
  O  O343  1  0.19362176  0.41719810  0.81094768  1
  O  O344  1  0.19055259  0.74984742  0.06239635  1
  O  O345  1  0.19333428  0.74980054  0.31110361  1
  O  O346  1  0.19426350  0.74961595  0.56206959  1
  O  O347  1  0.19213162  0.74988478  0.81274707  1
  O  O348  1  0.69080794  0.08336008  0.06347222  1
  O  O349  1  0.69348400  0.08338137  0.31120563  1
  O  O350  1  0.69398147  0.08313539  0.56141005  1
  O  O351  1  0.69415197  0.08261460  0.81126836  1
  O  O352  1  0.69063386  0.41670634  0.06380082  1
  O  O353  1  0.69043209  0.41687495  0.31232978  1
  O  O354  1  0.69304484  0.41679198  0.56081417  1
  O  O355  1  0.69337780  0.41697748  0.81161129  1
  O  O356  1  0.69156896  0.74994709  0.06349525  1
  O  O357  1  0.69003215  0.74936254  0.31240083  1
  O  O358  1  0.69087077  0.75008030  0.56235714  1
  O  O359  1  0.69314637  0.75049597  0.81134659  1
  O  O360  1  0.30854980  0.24960933  0.18682247  1
  O  O361  1  0.30617812  0.24998460  0.43824077  1
  O  O362  1  0.30895081  0.24949168  0.68724558  1
  O  O363  1  0.30586379  0.24971397  0.93892840  1
  O  O364  1  0.30950883  0.58400836  0.18710738  1
  O  O365  1  0.30981359  0.58421965  0.43739312  1
  O  O366  1  0.30968564  0.58432992  0.68721099  1
  O  O367  1  0.30630676  0.58383509  0.93868184  1
  O  O368  1  0.30591039  0.91640313  0.18780549  1
  O  O369  1  0.30594321  0.91635168  0.43890292  1
  O  O370  1  0.30844253  0.91639357  0.68805435  1
  O  O371  1  0.30780089  0.91661476  0.93726136  1
  O  O372  1  0.80667983  0.25001816  0.18832812  1
  O  O373  1  0.80901834  0.24977105  0.43647762  1
  O  O374  1  0.80668009  0.24969842  0.68874790  1
  O  O375  1  0.80572346  0.25000101  0.93859206  1
  O  O376  1  0.80860913  0.58354986  0.18688540  1
  O  O377  1  0.80666165  0.58326648  0.43812196  1
  O  O378  1  0.80757150  0.58366012  0.68761170  1
  O  O379  1  0.80596337  0.58407124  0.93930245  1
  O  O380  1  0.80904924  0.91631681  0.18702832  1
  O  O381  1  0.80667753  0.91636185  0.43782137  1
  O  O382  1  0.80663652  0.91655238  0.68831560  1
  O  O383  1  0.80709498  0.91598440  0.93900144  1
  O  O384  1  0.23260842  0.25028565  0.04042456  1
  O  O385  1  0.23368864  0.25023554  0.28760681  1
  O  O386  1  0.23444835  0.24987845  0.54099605  1
  O  O387  1  0.23436543  0.25001654  0.78772180  1
  O  O388  1  0.23292372  0.58348844  0.04009970  1
  O  O389  1  0.23425838  0.58355104  0.28725158  1
  O  O390  1  0.23630679  0.58372641  0.53896674  1
  O  O391  1  0.23510487  0.58380885  0.78798247  1
  O  O392  1  0.23394341  0.91648380  0.03824312  1
  O  O393  1  0.23165362  0.91679360  0.28884548  1
  O  O394  1  0.23250834  0.91704401  0.54029276  1
  O  O395  1  0.23358923  0.91616488  0.78845452  1
  O  O396  1  0.73139503  0.24981365  0.03959336  1
  O  O397  1  0.73473986  0.24979681  0.29065035  1
  O  O398  1  0.73542355  0.25007373  0.53820612  1
  O  O399  1  0.73383207  0.24949988  0.79070829  1
  O  O400  1  0.73251303  0.58380412  0.04066954  1
  O  O401  1  0.73435196  0.58300612  0.28789723  1
  O  O402  1  0.73412245  0.58325900  0.54004007  1
  O  O403  1  0.73277109  0.58441484  0.78834419  1
  O  O404  1  0.73316932  0.91629927  0.04001063  1
  O  O405  1  0.73519756  0.91679963  0.28821808  1
  O  O406  1  0.73434247  0.91688012  0.54023727  1
  O  O407  1  0.73398103  0.91605903  0.79065734  1
  O  O408  1  0.26647252  0.08340416  0.21184972  1
  O  O409  1  0.26612476  0.08352580  0.46213580  1
  O  O410  1  0.26415541  0.08259936  0.71159186  1
  O  O411  1  0.26539033  0.08346661  0.95895916  1
  O  O412  1  0.26831802  0.41689773  0.21090596  1
  O  O413  1  0.26912481  0.41658961  0.46045751  1
  O  O414  1  0.26682098  0.41718239  0.70968177  1
  O  O415  1  0.26850938  0.41720701  0.96043233  1
  O  O416  1  0.26536318  0.75005700  0.20884234  1
  O  O417  1  0.26699138  0.75057612  0.45990398  1
  O  O418  1  0.26709906  0.75089704  0.71212240  1
  O  O419  1  0.26583233  0.74930712  0.96231560  1
  O  O420  1  0.76779684  0.08387295  0.21050308  1
  O  O421  1  0.76875720  0.08299773  0.46080744  1
  O  O422  1  0.76863484  0.08302491  0.71043807  1
  O  O423  1  0.76489364  0.08272572  0.96238030  1
  O  O424  1  0.76583867  0.41585474  0.21240272  1
  O  O425  1  0.76746791  0.41702457  0.46023969  1
  O  O426  1  0.76615142  0.41699691  0.70974107  1
  O  O427  1  0.76447106  0.41748136  0.96221626  1
  O  O428  1  0.76448015  0.75000660  0.21209773  1
  O  O429  1  0.76649138  0.74957001  0.46226856  1
  O  O430  1  0.76696518  0.75018132  0.71033736  1
  O  O431  1  0.76668845  0.74985905  0.96286755  1
  O  O432  1  0.01590578  0.08295939  0.16546391  1
  O  O433  1  0.01705813  0.08373007  0.41271723  1
  O  O434  1  0.01687285  0.08305460  0.66275943  1
  O  O435  1  0.01760371  0.08224366  0.91288534  1
  O  O436  1  0.01588576  0.41713711  0.16539915  1
  O  O437  1  0.01500004  0.41637608  0.41312384  1
  O  O438  1  0.01518777  0.41717735  0.66368436  1
  O  O439  1  0.01680533  0.41722224  0.91594049  1
  O  O440  1  0.01667045  0.74960979  0.16282438  1
  O  O441  1  0.01607880  0.74982202  0.41564124  1
  O  O442  1  0.01465847  0.74946496  0.66345824  1
  O  O443  1  0.01641327  0.75029969  0.91295867  1
  O  O444  1  0.51737033  0.08371027  0.16492062  1
  O  O445  1  0.51411367  0.08301558  0.41334710  1
  O  O446  1  0.51455232  0.08274249  0.66357135  1
  O  O447  1  0.51594316  0.08277666  0.91496109  1
  O  O448  1  0.51586431  0.41700000  0.16237320  1
  O  O449  1  0.51605938  0.41710860  0.41299690  1
  O  O450  1  0.51520285  0.41698353  0.66392939  1
  O  O451  1  0.51563859  0.41662584  0.91582873  1
  O  O452  1  0.51714126  0.74976463  0.16127655  1
  O  O453  1  0.51787487  0.74916977  0.41446690  1
  O  O454  1  0.51687427  0.75057355  0.66641721  1
  O  O455  1  0.51444083  0.75031969  0.91381807  1
  O  O456  1  0.48229089  0.25013264  0.08556850  1
  O  O457  1  0.48308394  0.25078648  0.33509807  1
  O  O458  1  0.48164628  0.24960006  0.58497012  1
  O  O459  1  0.48409235  0.24999964  0.83688518  1
  O  O460  1  0.48254282  0.58291678  0.08469491  1
  O  O461  1  0.48241033  0.58353843  0.33470841  1
  O  O462  1  0.48318852  0.58417252  0.58801830  1
  O  O463  1  0.48519260  0.58373920  0.83730526  1
  O  O464  1  0.48445034  0.91677950  0.08459403  1
  O  O465  1  0.48360212  0.91616409  0.33430489  1
  O  O466  1  0.48139446  0.91566396  0.58560150  1
  O  O467  1  0.48260940  0.91643434  0.83798100  1
  O  O468  1  0.98533906  0.24992632  0.08695882  1
  O  O469  1  0.98322810  0.24968131  0.33482897  1
  O  O470  1  0.98349712  0.24934642  0.58432060  1
  O  O471  1  0.98518340  0.24989726  0.83691980  1
  O  O472  1  0.98396779  0.58366306  0.08729327  1
  O  O473  1  0.98450416  0.58350676  0.33462253  1
  O  O474  1  0.98144933  0.58354168  0.58518342  1
  O  O475  1  0.98483995  0.58386219  0.83742216  1
  O  O476  1  0.98310390  0.91610009  0.08722110  1
  O  O477  1  0.98582218  0.91665187  0.33696183  1
  O  O478  1  0.98548030  0.91676332  0.58646299  1
  O  O479  1  0.98471429  0.91618440  0.83346793  1
  O  O480  1  0.08893178  0.31544203  0.07751627  1
  O  O481  1  0.08750746  0.31416750  0.32634002  1
  O  O482  1  0.08704967  0.31444425  0.57657388  1
  O  O483  1  0.08870250  0.31471111  0.82790239  1
  O  O484  1  0.08769939  0.64897106  0.07757616  1
  O  O485  1  0.08873345  0.64790882  0.32673570  1
  O  O486  1  0.08547116  0.64840642  0.57678971  1
  O  O487  1  0.08800537  0.64977348  0.82831369  1
  O  O488  1  0.08687431  0.98068205  0.07776951  1
  O  O489  1  0.08894121  0.98303695  0.32810534  1
  O  O490  1  0.08902307  0.98229373  0.57800518  1
  O  O491  1  0.08901683  0.98062899  0.82730194  1
  O  O492  1  0.58631844  0.31507740  0.07749927  1
  O  O493  1  0.58685482  0.31605970  0.32794981  1
  O  O494  1  0.58554443  0.31461446  0.57698180  1
  O  O495  1  0.58761530  0.31491027  0.82759708  1
  O  O496  1  0.58664035  0.64803223  0.07664337  1
  O  O497  1  0.58665991  0.64785873  0.32783351  1
  O  O498  1  0.58635895  0.65017022  0.57876928  1
  O  O499  1  0.58891898  0.64867850  0.82748483  1
  O  O500  1  0.58822919  0.98227590  0.07741520  1
  O  O501  1  0.58744822  0.98105330  0.32757938  1
  O  O502  1  0.58519434  0.98068585  0.57703392  1
  O  O503  1  0.58612636  0.98137094  0.82720511  1
  O  O504  1  0.41286927  0.01952127  0.17347039  1
  O  O505  1  0.41028081  0.01802698  0.42243500  1
  O  O506  1  0.41095441  0.01764303  0.67146892  1
  O  O507  1  0.41238035  0.01714536  0.92281463  1
  O  O508  1  0.41228106  0.35163275  0.17225925  1
  O  O509  1  0.41179833  0.35310914  0.42249570  1
  O  O510  1  0.41195193  0.35120881  0.67140784  1
  O  O511  1  0.41150440  0.35196673  0.92352171  1
  O  O512  1  0.41381435  0.68403199  0.17150754  1
  O  O513  1  0.41401957  0.68425393  0.42183083  1
  O  O514  1  0.41285901  0.68538095  0.67363346  1
  O  O515  1  0.41046203  0.68619933  0.92327326  1
  O  O516  1  0.91224647  0.01717608  0.17265422  1
  O  O517  1  0.91319682  0.01947533  0.42296631  1
  O  O518  1  0.91317693  0.01803217  0.67312609  1
  O  O519  1  0.91369818  0.01786080  0.92236893  1
  O  O520  1  0.91154739  0.35287643  0.17301970  1
  O  O521  1  0.91180130  0.35005016  0.42149480  1
  O  O522  1  0.91152489  0.35275672  0.67229082  1
  O  O523  1  0.91316809  0.35180304  0.92353886  1
  O  O524  1  0.91303487  0.68457898  0.17193118  1
  O  O525  1  0.91181553  0.68518030  0.42292594  1
  O  O526  1  0.91114290  0.68370358  0.67247512  1
  O  O527  1  0.91265517  0.68516787  0.92365777  1
  O  O528  1  0.16283998  0.01834626  0.20326543  1
  O  O529  1  0.16257621  0.01764447  0.45295162  1
  O  O530  1  0.16088863  0.01667787  0.70291949  1
  O  O531  1  0.16104720  0.01935342  0.95188379  1
  O  O532  1  0.16431885  0.35207265  0.20279298  1
  O  O533  1  0.16512102  0.35193555  0.45188804  1
  O  O534  1  0.16313843  0.35204914  0.70163608  1
  O  O535  1  0.16472793  0.35198753  0.95301544  1
  O  O536  1  0.16145158  0.68490018  0.20201441  1
  O  O537  1  0.16337911  0.68550706  0.45258341  1
  O  O538  1  0.16369756  0.68577938  0.70218857  1
  O  O539  1  0.16233532  0.68360511  0.95271269  1
  O  O540  1  0.66381356  0.01867233  0.20150609  1
  O  O541  1  0.66475265  0.01814958  0.45189115  1
  O  O542  1  0.66480022  0.01776382  0.70166850  1
  O  O543  1  0.66160093  0.01743215  0.95388747  1
  O  O544  1  0.66168234  0.35144478  0.20253720  1
  O  O545  1  0.66352907  0.35170679  0.45123590  1
  O  O546  1  0.66227844  0.35257842  0.70211943  1
  O  O547  1  0.66120924  0.35176770  0.95405495  1
  O  O548  1  0.66079540  0.68475980  0.20218776  1
  O  O549  1  0.66258772  0.68491120  0.45225380  1
  O  O550  1  0.66304243  0.68467121  0.70193047  1
  O  O551  1  0.66292944  0.68502412  0.95366598  1
  O  O552  1  0.33671200  0.31561890  0.04800846  1
  O  O553  1  0.33759792  0.31489031  0.29635601  1
  O  O554  1  0.33856242  0.31475373  0.54730203  1
  O  O555  1  0.33807665  0.31466482  0.79700598  1
  O  O556  1  0.33677760  0.64880758  0.04829871  1
  O  O557  1  0.33810950  0.64820625  0.29746042  1
  O  O558  1  0.34040872  0.64775415  0.54756044  1
  O  O559  1  0.33805716  0.65003889  0.79707163  1
  O  O560  1  0.33771683  0.98077257  0.04726652  1
  O  O561  1  0.33538572  0.98211295  0.29709408  1
  O  O562  1  0.33616630  0.98270496  0.54805829  1
  O  O563  1  0.33747565  0.98068226  0.79829159  1
  O  O564  1  0.83513233  0.31511172  0.04812924  1
  O  O565  1  0.83865875  0.31500991  0.29728262  1
  O  O566  1  0.83871862  0.31550382  0.54586425  1
  O  O567  1  0.83770371  0.31403472  0.79811415  1
  O  O568  1  0.83650405  0.64958204  0.04861098  1
  O  O569  1  0.83807402  0.64740060  0.29698544  1
  O  O570  1  0.83809840  0.64812385  0.54744091  1
  O  O571  1  0.83638005  0.64971046  0.79720690  1
  O  O572  1  0.83773963  0.98026995  0.04843754  1
  O  O573  1  0.83856325  0.98270507  0.29621178  1
  O  O574  1  0.83859577  0.98136882  0.54668719  1
  O  O575  1  0.83760371  0.98161046  0.79747452  1
  O  O576  1  0.41343099  0.14953171  0.17289108  1
  O  O577  1  0.41032150  0.14807662  0.42246675  1
  O  O578  1  0.41109844  0.14805576  0.67153019  1
  O  O579  1  0.41218208  0.14727110  0.92311335  1
  O  O580  1  0.41197826  0.48183387  0.17191051  1
  O  O581  1  0.41272670  0.48319772  0.42165216  1
  O  O582  1  0.41161805  0.48177024  0.67134914  1
  O  O583  1  0.41189828  0.48187076  0.92365223  1
  O  O584  1  0.41346872  0.81416389  0.17202129  1
  O  O585  1  0.41417522  0.81425058  0.42260079  1
  O  O586  1  0.41246768  0.81539772  0.67336763  1
  O  O587  1  0.41078495  0.81615044  0.92281777  1
  O  O588  1  0.91173630  0.14732091  0.17292186  1
  O  O589  1  0.91348355  0.14950770  0.42211021  1
  O  O590  1  0.91310731  0.14795068  0.67308638  1
  O  O591  1  0.91428101  0.14786155  0.92301602  1
  O  O592  1  0.91211133  0.48301481  0.17264097  1
  O  O593  1  0.91070301  0.48012199  0.42221261  1
  O  O594  1  0.91187658  0.48308110  0.67200940  1
  O  O595  1  0.91281482  0.48192930  0.92328133  1
  O  O596  1  0.91317447  0.81476228  0.17210979  1
  O  O597  1  0.91230605  0.81508445  0.42323290  1
  O  O598  1  0.91081566  0.81376634  0.67302070  1
  O  O599  1  0.91252911  0.81501759  0.92319684  1
  O  O600  1  0.08931975  0.18542433  0.07781037  1
  O  O601  1  0.08721787  0.18417163  0.32690974  1
  O  O602  1  0.08728829  0.18423199  0.57744873  1
  O  O603  1  0.08850118  0.18434731  0.82882147  1
  O  O604  1  0.08789846  0.51903431  0.07698702  1
  O  O605  1  0.08825126  0.51792320  0.32645344  1
  O  O606  1  0.08530612  0.51846151  0.57652071  1
  O  O607  1  0.08865322  0.51950715  0.82782664  1
  O  O608  1  0.08663003  0.85067790  0.07804344  1
  O  O609  1  0.08992595  0.85291894  0.32762918  1
  O  O610  1  0.08937140  0.85225704  0.57723567  1
  O  O611  1  0.08839999  0.85051430  0.82716188  1
  O  O612  1  0.58634411  0.18495232  0.07757987  1
  O  O613  1  0.58687929  0.18578495  0.32745127  1
  O  O614  1  0.58546414  0.18443492  0.57673041  1
  O  O615  1  0.58744287  0.18472172  0.82733293  1
  O  O616  1  0.58675462  0.51807096  0.07719983  1
  O  O617  1  0.58579673  0.51773390  0.32726328  1
  O  O618  1  0.58688004  0.51999664  0.57774878  1
  O  O619  1  0.58883560  0.51870516  0.82742210  1
  O  O620  1  0.58856294  0.85206537  0.07707199  1
  O  O621  1  0.58738202  0.85075394  0.32824689  1
  O  O622  1  0.58550649  0.85054694  0.57828713  1
  O  O623  1  0.58613216  0.85139478  0.82752107  1
  O  O624  1  0.33671167  0.18566384  0.04867930  1
  O  O625  1  0.33699710  0.18462695  0.29675000  1
  O  O626  1  0.33809428  0.18466365  0.54742683  1
  O  O627  1  0.33747637  0.18453594  0.79735809  1
  O  O628  1  0.33721624  0.51885105  0.04800984  1
  O  O629  1  0.33813623  0.51816228  0.29678837  1
  O  O630  1  0.33977742  0.51763757  0.54646773  1
  O  O631  1  0.33908088  0.51993393  0.79714729  1
  O  O632  1  0.33719856  0.85056357  0.04682630  1
  O  O633  1  0.33537838  0.85195495  0.29751771  1
  O  O634  1  0.33678934  0.85274139  0.54869230  1
  O  O635  1  0.33737384  0.85077988  0.79791551  1
  O  O636  1  0.83561659  0.18513232  0.04785940  1
  O  O637  1  0.83891269  0.18490207  0.29722713  1
  O  O638  1  0.83900775  0.18500434  0.54613752  1
  O  O639  1  0.83744180  0.18362256  0.79764367  1
  O  O640  1  0.83702728  0.51971520  0.04876962  1
  O  O641  1  0.83769942  0.51718202  0.29608220  1
  O  O642  1  0.83796272  0.51798200  0.54727684  1
  O  O643  1  0.83632539  0.51955629  0.79801299  1
  O  O644  1  0.83688503  0.85029152  0.04850309  1
  O  O645  1  0.83890808  0.85245104  0.29704922  1
  O  O646  1  0.83776654  0.85119226  0.54695690  1
  O  O647  1  0.83779119  0.85120683  0.79717928  1
  O  O648  1  0.16285949  0.14853749  0.20348885  1
  O  O649  1  0.16210723  0.14766498  0.45197713  1
  O  O650  1  0.16018703  0.14676985  0.70197275  1
  O  O651  1  0.16188327  0.14958080  0.95291542  1
  O  O652  1  0.16463872  0.48214222  0.20245544  1
  O  O653  1  0.16544325  0.48203740  0.45185967  1
  O  O654  1  0.16316332  0.48220547  0.70145293  1
  O  O655  1  0.16465655  0.48224213  0.95290889  1
  O  O656  1  0.16127197  0.81506486  0.20210529  1
  O  O657  1  0.16313724  0.81571733  0.45350202  1
  O  O658  1  0.16323938  0.81574153  0.70325132  1
  O  O659  1  0.16185534  0.81368971  0.95194308  1
  O  O660  1  0.66348763  0.14847588  0.20181099  1
  O  O661  1  0.66493177  0.14818396  0.45176439  1
  O  O662  1  0.66462412  0.14782628  0.70169254  1
  O  O663  1  0.66137620  0.14798594  0.95364283  1
  O  O664  1  0.66215757  0.48130156  0.20195368  1
  O  O665  1  0.66328691  0.48167887  0.45118488  1
  O  O666  1  0.66270056  0.48288410  0.70261231  1
  O  O667  1  0.66099181  0.48233425  0.95448189  1
  O  O668  1  0.66064976  0.81469044  0.20252196  1
  O  O669  1  0.66279906  0.81491252  0.45220045  1
  O  O670  1  0.66276132  0.81455581  0.70147682  1
  O  O671  1  0.66325110  0.81525826  0.95344368  1
