# generated using pymatgen
data_Na2MnFe(PO4)2
_symmetry_space_group_name_H-M   'P 1'
_cell_length_a   21.08025505
_cell_length_b   18.93247722
_cell_length_c   20.04013031
_cell_angle_alpha   89.99980596
_cell_angle_beta   90.00085892
_cell_angle_gamma   89.99592764
_symmetry_Int_Tables_number   1
_chemical_formula_structural   Na2MnFe(PO4)2
_chemical_formula_sum   'Na96 Mn48 Fe48 P96 O384'
_cell_volume   7998.04501449
_cell_formula_units_Z   48
loop_
 _symmetry_equiv_pos_site_id
 _symmetry_equiv_pos_as_xyz
  1  'x, y, z'
loop_
 _atom_site_type_symbol
 _atom_site_label
 _atom_site_symmetry_multiplicity
 _atom_site_fract_x
 _atom_site_fract_y
 _atom_site_fract_z
 _atom_site_occupancy
  Na  Na0  1  0.00149367  0.00058379  -0.00161028  1
  Na  Na1  1  -0.00138864  -0.00097020  0.25088894  1
  Na  Na2  1  -0.00234947  -0.00090006  0.50074040  1
  Na  Na3  1  -0.00175848  -0.00066676  0.75009223  1
  Na  Na4  1  0.00041930  0.33272836  0.00091459  1
  Na  Na5  1  -0.00102713  0.33241212  0.25129219  1
  Na  Na6  1  0.00209960  0.33371310  0.49995691  1
  Na  Na7  1  0.00364570  0.33453846  0.74834162  1
  Na  Na8  1  -0.00025035  0.66685413  0.00006133  1
  Na  Na9  1  0.00110702  0.66826265  0.25134296  1
  Na  Na10  1  -0.00035849  0.66695525  0.49923092  1
  Na  Na11  1  -0.00094876  0.66630669  0.74910309  1
  Na  Na12  1  0.49956998  0.00012623  0.00105130  1
  Na  Na13  1  0.50048196  -0.00050176  0.24971874  1
  Na  Na14  1  0.50240758  0.00082752  0.49861853  1
  Na  Na15  1  0.49774299  -0.00091512  0.75046501  1
  Na  Na16  1  0.50020266  0.33377852  -0.00076326  1
  Na  Na17  1  0.50101626  0.33454242  0.25075814  1
  Na  Na18  1  0.49877265  0.33343635  0.50057374  1
  Na  Na19  1  0.49953992  0.33347026  0.74953390  1
  Na  Na20  1  0.49949453  0.66687702  0.00064844  1
  Na  Na21  1  0.50197872  0.66722611  0.24934575  1
  Na  Na22  1  0.50129982  0.66720414  0.49980599  1
  Na  Na23  1  0.49952208  0.66749661  0.75010688  1
  Na  Na24  1  0.25149098  0.00021583  0.12485587  1
  Na  Na25  1  0.25041642  0.00003468  0.37418648  1
  Na  Na26  1  0.25174092  -0.00053083  0.62538801  1
  Na  Na27  1  0.25289108  0.00025301  0.87497732  1
  Na  Na28  1  0.24925438  0.33310389  0.12497533  1
  Na  Na29  1  0.24868210  0.33301507  0.37564783  1
  Na  Na30  1  0.24968101  0.33354792  0.62514173  1
  Na  Na31  1  0.24918250  0.33316573  0.87395564  1
  Na  Na32  1  0.24861177  0.66710903  0.12615120  1
  Na  Na33  1  0.24675173  0.66619957  0.37425254  1
  Na  Na34  1  0.24973955  0.66700338  0.62406056  1
  Na  Na35  1  0.25235144  0.66848713  0.87590709  1
  Na  Na36  1  0.74878877  -0.00106541  0.12608501  1
  Na  Na37  1  0.74953326  -0.00065573  0.37503206  1
  Na  Na38  1  0.74995048  0.00049999  0.62500359  1
  Na  Na39  1  0.74936329  0.00042538  0.87382823  1
  Na  Na40  1  0.75112047  0.33376255  0.12572245  1
  Na  Na41  1  0.75099115  0.33449954  0.37459372  1
  Na  Na42  1  0.74778717  0.33235632  0.62438996  1
  Na  Na43  1  0.74888961  0.33290269  0.87530085  1
  Na  Na44  1  0.74865871  0.66632757  0.12430402  1
  Na  Na45  1  0.75144646  0.66766732  0.37625800  1
  Na  Na46  1  0.75093607  0.66675676  0.62534595  1
  Na  Na47  1  0.74965132  0.66715600  0.87428824  1
  Na  Na48  1  -0.00072820  0.16706691  -0.00045311  1
  Na  Na49  1  0.00150442  0.16605085  0.25121870  1
  Na  Na50  1  0.00024165  0.16669854  0.50110382  1
  Na  Na51  1  0.00025603  0.16629408  0.74879315  1
  Na  Na52  1  0.00134852  0.49927908  0.00043166  1
  Na  Na53  1  -0.00127461  0.50035951  0.25123685  1
  Na  Na54  1  0.00021028  0.49915816  0.49958715  1
  Na  Na55  1  0.00138711  0.49916184  0.74898523  1
  Na  Na56  1  0.00131891  0.83330037  -0.00063028  1
  Na  Na57  1  -0.00181065  0.83440824  0.25089826  1
  Na  Na58  1  -0.00043168  0.83339907  0.49949983  1
  Na  Na59  1  -0.00011474  0.83373423  0.74967962  1
  Na  Na60  1  0.49952601  0.16636979  0.00008887  1
  Na  Na61  1  0.49990356  0.16622848  0.24931373  1
  Na  Na62  1  0.50049938  0.16633328  0.49985076  1
  Na  Na63  1  0.50077069  0.16549952  0.75007873  1
  Na  Na64  1  0.50060923  0.49927632  0.00051661  1
  Na  Na65  1  0.50113426  0.49944853  0.25045720  1
  Na  Na66  1  0.50051210  0.49907497  0.49955855  1
  Na  Na67  1  0.49868688  0.49946077  0.74941559  1
  Na  Na68  1  0.49907809  0.83416648  0.00024875  1
  Na  Na69  1  0.50228806  0.83325141  0.25026728  1
  Na  Na70  1  0.50107185  0.83367924  0.49931020  1
  Na  Na71  1  0.49831220  0.83413451  0.75091713  1
  Na  Na72  1  0.24970476  0.16603591  0.12448798  1
  Na  Na73  1  0.24814323  0.16706580  0.37529393  1
  Na  Na74  1  0.25053624  0.16654133  0.62448908  1
  Na  Na75  1  0.25072861  0.16636047  0.87523532  1
  Na  Na76  1  0.25066007  0.49887902  0.12553455  1
  Na  Na77  1  0.24967107  0.49910458  0.37528429  1
  Na  Na78  1  0.24936878  0.49958957  0.62503078  1
  Na  Na79  1  0.24923830  0.50019143  0.87488953  1
  Na  Na80  1  0.25006786  0.83347930  0.12556420  1
  Na  Na81  1  0.24810745  0.83451885  0.37374250  1
  Na  Na82  1  0.25194545  0.83337309  0.62484578  1
  Na  Na83  1  0.25273774  0.83357763  0.87522045  1
  Na  Na84  1  0.75106093  0.16536191  0.12549246  1
  Na  Na85  1  0.75016281  0.16682416  0.37514205  1
  Na  Na86  1  0.74982823  0.16572313  0.62473249  1
  Na  Na87  1  0.74761648  0.16711372  0.87510130  1
  Na  Na88  1  0.74973250  0.49936407  0.12496721  1
  Na  Na89  1  0.74897935  0.50002742  0.37563445  1
  Na  Na90  1  0.75037140  0.49890024  0.62470731  1
  Na  Na91  1  0.74930660  0.49983627  0.87441810  1
  Na  Na92  1  0.75039983  0.83347507  0.12514688  1
  Na  Na93  1  0.75131293  0.83326206  0.37550372  1
  Na  Na94  1  0.75004939  0.83379844  0.62467071  1
  Na  Na95  1  0.74869637  0.83460945  0.87445577  1
  Mn  Mn96  1  0.64230368  0.24904025  0.99828023  1
  Mn  Mn97  1  0.60662672  0.75038779  0.87283754  1
  Mn  Mn98  1  0.60741909  0.08360899  0.12272192  1
  Mn  Mn99  1  0.85843214  0.41656978  0.00206627  1
  Mn  Mn100  1  0.85769962  0.75057082  0.00232387  1
  Mn  Mn101  1  0.64160952  0.58282317  0.74688533  1
  Mn  Mn102  1  0.64115109  0.91722297  0.74712201  1
  Mn  Mn103  1  0.64274534  0.58350914  0.49841739  1
  Mn  Mn104  1  0.14250005  0.58382832  0.74730835  1
  Mn  Mn105  1  0.60953999  0.74969232  0.37232690  1
  Mn  Mn106  1  0.10729587  0.41672505  0.12352894  1
  Mn  Mn107  1  0.10902099  0.74935646  0.87252335  1
  Mn  Mn108  1  0.39214834  0.24959411  0.87689445  1
  Mn  Mn109  1  0.35832335  0.08339733  0.50196021  1
  Mn  Mn110  1  0.39285260  0.58364199  0.12791082  1
  Mn  Mn111  1  0.10787745  0.08265964  0.62305599  1
  Mn  Mn112  1  0.85749598  0.75032757  0.75203938  1
  Mn  Mn113  1  0.85788872  0.41536062  0.75179446  1
  Mn  Mn114  1  0.89228337  0.25044697  0.87607518  1
  Mn  Mn115  1  0.14217285  0.58404173  0.99792383  1
  Mn  Mn116  1  0.14176885  0.58263999  0.24745059  1
  Mn  Mn117  1  0.39165514  0.58390134  0.62676751  1
  Mn  Mn118  1  0.89288851  0.24960169  0.37773655  1
  Mn  Mn119  1  0.14164991  0.24927470  0.99748534  1
  Mn  Mn120  1  0.64186771  0.58367470  0.99730875  1
  Mn  Mn121  1  0.39147329  0.58370726  0.87750690  1
  Mn  Mn122  1  0.39248265  0.58361706  0.37704454  1
  Mn  Mn123  1  0.60764301  0.41616991  0.87219886  1
  Mn  Mn124  1  0.89213739  0.91656686  0.87744732  1
  Mn  Mn125  1  0.39324434  0.91647158  0.37687601  1
  Mn  Mn126  1  0.35730264  0.74962157  0.50125622  1
  Mn  Mn127  1  0.64172359  0.24966580  0.49772395  1
  Mn  Mn128  1  0.89258462  0.25012665  0.62757512  1
  Mn  Mn129  1  0.85771965  0.08298169  0.00209524  1
  Mn  Mn130  1  0.39203035  0.24993262  0.37686815  1
  Mn  Mn131  1  0.14388372  0.91704749  0.74772617  1
  Mn  Mn132  1  0.10861245  0.08372495  0.87202143  1
  Mn  Mn133  1  0.85832361  0.08297449  0.25236383  1
  Mn  Mn134  1  0.10751620  0.08293847  0.37337026  1
  Mn  Mn135  1  0.39171049  0.25029258  0.12786984  1
  Mn  Mn136  1  0.10803264  0.75014764  0.62257942  1
  Mn  Mn137  1  0.89244312  0.58269136  0.87693597  1
  Mn  Mn138  1  0.14145834  0.91788769  0.24713216  1
  Mn  Mn139  1  0.89198610  0.58340259  0.37747388  1
  Mn  Mn140  1  0.89181864  0.58374153  0.12793694  1
  Mn  Mn141  1  0.35763643  0.74981414  0.25246549  1
  Mn  Mn142  1  0.35747944  0.41679290  0.00254203  1
  Mn  Mn143  1  0.64255532  0.25042194  0.24751423  1
  Fe  Fe144  1  0.39282996  0.91696207  0.87788829  1
  Fe  Fe145  1  0.35760618  0.41591716  0.25205865  1
  Fe  Fe146  1  0.85740851  0.41637093  0.50216566  1
  Fe  Fe147  1  0.89279639  0.91713709  0.12595034  1
  Fe  Fe148  1  0.64323970  0.91658495  0.49894232  1
  Fe  Fe149  1  0.60765972  0.41678138  0.12371135  1
  Fe  Fe150  1  0.35848297  0.08369442  0.75151871  1
  Fe  Fe151  1  0.10734350  0.41703301  0.37317725  1
  Fe  Fe152  1  0.85689058  0.41733021  0.25194449  1
  Fe  Fe153  1  0.60688403  0.08317134  0.62334262  1
  Fe  Fe154  1  0.10678708  0.75113188  0.12354049  1
  Fe  Fe155  1  0.64218777  0.91687314  0.99867686  1
  Fe  Fe156  1  0.14216049  0.91674022  0.49879451  1
  Fe  Fe157  1  0.14370375  0.91659816  0.99884914  1
  Fe  Fe158  1  0.39244564  0.24944065  0.62684981  1
  Fe  Fe159  1  0.60612388  0.41663948  0.62301262  1
  Fe  Fe160  1  0.89295959  0.24926806  0.12694439  1
  Fe  Fe161  1  0.85606650  0.08398539  0.75146042  1
  Fe  Fe162  1  0.85734479  0.74938572  0.25087596  1
  Fe  Fe163  1  0.60811619  0.08397977  0.37278690  1
  Fe  Fe164  1  0.35648402  0.41687071  0.50162574  1
  Fe  Fe165  1  0.64392829  0.91583946  0.24801886  1
  Fe  Fe166  1  0.60800519  0.75014828  0.12298265  1
  Fe  Fe167  1  0.39307220  0.91699348  0.62527677  1
  Fe  Fe168  1  0.35649953  0.41675987  0.75130148  1
  Fe  Fe169  1  0.14180339  0.58354612  0.49822976  1
  Fe  Fe170  1  0.14272527  0.24973923  0.24837832  1
  Fe  Fe171  1  0.14360103  0.24947428  0.74816450  1
  Fe  Fe172  1  0.85656804  0.08360278  0.50215030  1
  Fe  Fe173  1  0.60645642  0.08310541  0.87326216  1
  Fe  Fe174  1  0.10734708  0.08242681  0.12331703  1
  Fe  Fe175  1  0.10811079  0.41664071  0.87314974  1
  Fe  Fe176  1  0.35688584  0.08406091  0.25157705  1
  Fe  Fe177  1  0.10607226  0.75045467  0.37372134  1
  Fe  Fe178  1  0.39335743  0.91634201  0.12695864  1
  Fe  Fe179  1  0.10804811  0.41720816  0.62243044  1
  Fe  Fe180  1  0.89322135  0.58314331  0.62629839  1
  Fe  Fe181  1  0.89222804  0.91638339  0.62657772  1
  Fe  Fe182  1  0.89191654  0.91682037  0.37752005  1
  Fe  Fe183  1  0.60712647  0.75033447  0.62363063  1
  Fe  Fe184  1  0.64318451  0.58386016  0.24862040  1
  Fe  Fe185  1  0.35730502  0.75046216  0.00333678  1
  Fe  Fe186  1  0.85762381  0.75007146  0.50268114  1
  Fe  Fe187  1  0.14331891  0.24952778  0.49882083  1
  Fe  Fe188  1  0.35738955  0.08308659  0.00224473  1
  Fe  Fe189  1  0.35854182  0.74993342  0.75133619  1
  Fe  Fe190  1  0.64159395  0.24994507  0.74776925  1
  Fe  Fe191  1  0.60745097  0.41629414  0.37333061  1
  P  P192  1  0.05352687  0.24876093  0.11175693  1
  P  P193  1  0.05594554  0.25062170  0.36127955  1
  P  P194  1  0.05589590  0.25021238  0.61059601  1
  P  P195  1  0.05431863  0.25057290  0.85854586  1
  P  P196  1  0.05290779  0.58448081  0.11048824  1
  P  P197  1  0.05457046  0.58338769  0.36160175  1
  P  P198  1  0.05305453  0.58304591  0.60897256  1
  P  P199  1  0.05365342  0.58263191  0.85947718  1
  P  P200  1  0.05261512  0.91698927  0.10942526  1
  P  P201  1  0.05287698  0.91621004  0.36155784  1
  P  P202  1  0.05261100  0.91667796  0.60962598  1
  P  P203  1  0.05517531  0.91661517  0.86049172  1
  P  P204  1  0.55295795  0.25106713  0.11001141  1
  P  P205  1  0.55364844  0.25015509  0.36002851  1
  P  P206  1  0.55281849  0.24977794  0.61118965  1
  P  P207  1  0.55382083  0.24878731  0.85933449  1
  P  P208  1  0.55532247  0.58332801  0.11156170  1
  P  P209  1  0.55466082  0.58238270  0.35952656  1
  P  P210  1  0.55277180  0.58329902  0.60983958  1
  P  P211  1  0.55260644  0.58340584  0.85953547  1
  P  P212  1  0.55453803  0.91590107  0.11091092  1
  P  P213  1  0.55666059  0.91752003  0.36039670  1
  P  P214  1  0.55268675  0.91700508  0.60942323  1
  P  P215  1  0.55292738  0.91773319  0.86154154  1
  P  P216  1  0.44458044  0.08237791  0.13965646  1
  P  P217  1  0.44723623  0.08343368  0.38847685  1
  P  P218  1  0.44729576  0.08317967  0.63979564  1
  P  P219  1  0.44567627  0.08281052  0.88980608  1
  P  P220  1  0.44739207  0.41681501  0.14102548  1
  P  P221  1  0.44583303  0.41657272  0.38971755  1
  P  P222  1  0.44490417  0.41600156  0.63882554  1
  P  P223  1  0.44514993  0.41652267  0.88885561  1
  P  P224  1  0.44723546  0.75106775  0.13939520  1
  P  P225  1  0.44780447  0.74999392  0.38986233  1
  P  P226  1  0.44740780  0.75114696  0.63962371  1
  P  P227  1  0.44425512  0.75092923  0.89019874  1
  P  P228  1  0.94809746  0.08276363  0.13986414  1
  P  P229  1  0.94575874  0.08263722  0.39132955  1
  P  P230  1  0.94445692  0.08242784  0.63950101  1
  P  P231  1  0.94568605  0.08390754  0.88843658  1
  P  P232  1  0.94592004  0.41580360  0.14134186  1
  P  P233  1  0.94595043  0.41661599  0.38976196  1
  P  P234  1  0.94709712  0.41715664  0.63836177  1
  P  P235  1  0.94863794  0.41601644  0.88972047  1
  P  P236  1  0.94721403  0.75138436  0.14052281  1
  P  P237  1  0.94478098  0.75072534  0.38933943  1
  P  P238  1  0.94544215  0.75002461  0.63848282  1
  P  P239  1  0.94706295  0.74995647  0.88997383  1
  P  P240  1  0.19673313  0.08402249  0.23442635  1
  P  P241  1  0.19687677  0.08261063  0.48538053  1
  P  P242  1  0.19894367  0.08367794  0.73494706  1
  P  P243  1  0.19678580  0.08170976  0.98614071  1
  P  P244  1  0.19669945  0.41547090  0.23641593  1
  P  P245  1  0.19547686  0.41654469  0.48579948  1
  P  P246  1  0.19583312  0.41598494  0.73531063  1
  P  P247  1  0.19577849  0.41654578  0.98443032  1
  P  P248  1  0.19414371  0.75068146  0.23556888  1
  P  P249  1  0.19546347  0.75072068  0.48411334  1
  P  P250  1  0.19908597  0.75057181  0.73476942  1
  P  P251  1  0.19692037  0.75165319  0.98667559  1
  P  P252  1  0.69584214  0.08260009  0.23630011  1
  P  P253  1  0.69561080  0.08255441  0.48577912  1
  P  P254  1  0.69495843  0.08412295  0.73525866  1
  P  P255  1  0.69563947  0.08197566  0.98439414  1
  P  P256  1  0.69614988  0.41762650  0.23594163  1
  P  P257  1  0.69583495  0.41640765  0.48575195  1
  P  P258  1  0.69558267  0.41544972  0.73375906  1
  P  P259  1  0.69571495  0.41627763  0.98587272  1
  P  P260  1  0.69776932  0.74998826  0.23465651  1
  P  P261  1  0.69696013  0.75081973  0.48693305  1
  P  P262  1  0.69545470  0.75042602  0.73403043  1
  P  P263  1  0.69530620  0.75137908  0.98564188  1
  P  P264  1  0.30311452  0.24931862  0.01492983  1
  P  P265  1  0.30205110  0.24956149  0.26508929  1
  P  P266  1  0.30312586  0.25074531  0.51528044  1
  P  P267  1  0.30405349  0.24989993  0.76329053  1
  P  P268  1  0.30321999  0.58427645  0.01593297  1
  P  P269  1  0.30326297  0.58248149  0.26528530  1
  P  P270  1  0.30139210  0.58281733  0.51424193  1
  P  P271  1  0.30342929  0.58333111  0.76463204  1
  P  P272  1  0.30489505  0.91672740  0.01495493  1
  P  P273  1  0.30463729  0.91760565  0.26359129  1
  P  P274  1  0.30279562  0.91642343  0.51476778  1
  P  P275  1  0.30691906  0.91685681  0.76406642  1
  P  P276  1  0.80411891  0.24959674  0.01590909  1
  P  P277  1  0.80506327  0.25043439  0.26410579  1
  P  P278  1  0.80342866  0.25002588  0.51490774  1
  P  P279  1  0.80138098  0.24913125  0.76461485  1
  P  P280  1  0.80315437  0.58335662  0.01500641  1
  P  P281  1  0.80219931  0.58357110  0.26509470  1
  P  P282  1  0.80449146  0.58298068  0.51575310  1
  P  P283  1  0.80427715  0.58271965  0.76362548  1
  P  P284  1  0.80223360  0.91720384  0.01564612  1
  P  P285  1  0.80477503  0.91568034  0.26431669  1
  P  P286  1  0.80407020  0.91712969  0.51442872  1
  P  P287  1  0.80403543  0.91774103  0.76356976  1
  O  O288  1  0.05826108  0.24936683  0.18846344  1
  O  O289  1  0.06004020  0.24971985  0.43806776  1
  O  O290  1  0.06032405  0.24929007  0.68733401  1
  O  O291  1  0.05668577  0.24934269  0.93545807  1
  O  O292  1  0.05570972  0.58373607  0.18733764  1
  O  O293  1  0.05834570  0.58297872  0.43835573  1
  O  O294  1  0.05682059  0.58356709  0.68571578  1
  O  O295  1  0.05662641  0.58365070  0.93628832  1
  O  O296  1  0.05544628  0.91722107  0.18626121  1
  O  O297  1  0.05786050  0.91694409  0.43815216  1
  O  O298  1  0.05721959  0.91690167  0.68629998  1
  O  O299  1  0.05996007  0.91682627  0.93719309  1
  O  O300  1  0.55635889  0.25034559  0.18678623  1
  O  O301  1  0.55604547  0.25012383  0.43684804  1
  O  O302  1  0.55714386  0.24981789  0.68784655  1
  O  O303  1  0.55674941  0.24965645  0.93611970  1
  O  O304  1  0.55941258  0.58358771  0.18832101  1
  O  O305  1  0.55753168  0.58326647  0.43631158  1
  O  O306  1  0.55519170  0.58319813  0.68660925  1
  O  O307  1  0.55585409  0.58335425  0.93638400  1
  O  O308  1  0.55959261  0.91613936  0.18759452  1
  O  O309  1  0.56064625  0.91658571  0.43718881  1
  O  O310  1  0.55526156  0.91687066  0.68625606  1
  O  O311  1  0.55752727  0.91728188  0.93814908  1
  O  O312  1  0.44062773  0.08334741  0.06283824  1
  O  O313  1  0.44182340  0.08358039  0.31187919  1
  O  O314  1  0.44412213  0.08352373  0.56302069  1
  O  O315  1  0.44147447  0.08357996  0.81303223  1
  O  O316  1  0.44326157  0.41662631  0.06428640  1
  O  O317  1  0.44078913  0.41639926  0.31301144  1
  O  O318  1  0.44011598  0.41679516  0.56207878  1
  O  O319  1  0.44036103  0.41648876  0.81209797  1
  O  O320  1  0.44210163  0.75048729  0.06271471  1
  O  O321  1  0.44413411  0.74998703  0.31313139  1
  O  O322  1  0.44367348  0.75023999  0.56292039  1
  O  O323  1  0.44072303  0.74999510  0.81333169  1
  O  O324  1  0.94473992  0.08304363  0.06315736  1
  O  O325  1  0.94322634  0.08329985  0.31448237  1
  O  O326  1  0.94028860  0.08355478  0.56273070  1
  O  O327  1  0.94066551  0.08388892  0.81174541  1
  O  O328  1  0.94360250  0.41652876  0.06448463  1
  O  O329  1  0.94061042  0.41689385  0.31311588  1
  O  O330  1  0.94186418  0.41594183  0.56172436  1
  O  O331  1  0.94466124  0.41587289  0.81297249  1
  O  O332  1  0.94372842  0.75044617  0.06380114  1
  O  O333  1  0.94027139  0.74994592  0.31264736  1
  O  O334  1  0.94169855  0.75029457  0.56163981  1
  O  O335  1  0.94337756  0.75033079  0.81317859  1
  O  O336  1  0.19158512  0.08230452  0.06277340  1
  O  O337  1  0.19283411  0.08266942  0.31112873  1
  O  O338  1  0.19419509  0.08225728  0.56212324  1
  O  O339  1  0.19527515  0.08308994  0.81166915  1
  O  O340  1  0.19243251  0.41642708  0.06126801  1
  O  O341  1  0.19185534  0.41645913  0.31307471  1
  O  O342  1  0.19140063  0.41712645  0.56260905  1
  O  O343  1  0.19162101  0.41679967  0.81201182  1
  O  O344  1  0.19144622  0.75101548  0.06330719  1
  O  O345  1  0.18935437  0.75099911  0.31228081  1
  O  O346  1  0.19341146  0.75080692  0.56099759  1
  O  O347  1  0.19540293  0.75068103  0.81149242  1
  O  O348  1  0.69283040  0.08263267  0.06125027  1
  O  O349  1  0.69227198  0.08375521  0.31308589  1
  O  O350  1  0.69060614  0.08327002  0.56249934  1
  O  O351  1  0.69035773  0.08319222  0.81191308  1
  O  O352  1  0.69152891  0.41628568  0.06265537  1
  O  O353  1  0.69159003  0.41652514  0.31266708  1
  O  O354  1  0.69013034  0.41614575  0.56236187  1
  O  O355  1  0.69282555  0.41636871  0.81060643  1
  O  O356  1  0.69145449  0.75064507  0.06244956  1
  O  O357  1  0.69514317  0.75012236  0.31151654  1
  O  O358  1  0.69138912  0.75035345  0.56348417  1
  O  O359  1  0.69194631  0.75063220  0.81083268  1
  O  O360  1  0.30547686  0.24980360  0.18838329  1
  O  O361  1  0.30652842  0.25003848  0.43856483  1
  O  O362  1  0.30846485  0.24960008  0.68657103  1
  O  O363  1  0.30630132  0.24989296  0.93814407  1
  O  O364  1  0.30676659  0.58324255  0.18851357  1
  O  O365  1  0.30533707  0.58333909  0.43761370  1
  O  O366  1  0.30596261  0.58331537  0.68778392  1
  O  O367  1  0.30598829  0.58377231  0.93911554  1
  O  O368  1  0.30904399  0.91633839  0.18689226  1
  O  O369  1  0.30674463  0.91668287  0.43805049  1
  O  O370  1  0.31064667  0.91679200  0.68722737  1
  O  O371  1  0.30894419  0.91684665  0.93816397  1
  O  O372  1  0.80932223  0.24921256  0.18736024  1
  O  O373  1  0.80662797  0.25041205  0.43814845  1
  O  O374  1  0.80578070  0.24978126  0.68794590  1
  O  O375  1  0.80683882  0.24976190  0.93908016  1
  O  O376  1  0.80547901  0.58339794  0.18839108  1
  O  O377  1  0.80681712  0.58302273  0.43887154  1
  O  O378  1  0.80914957  0.58256046  0.68690223  1
  O  O379  1  0.80644264  0.58333395  0.93818439  1
  O  O380  1  0.80943796  0.91677613  0.18763577  1
  O  O381  1  0.80806217  0.91685235  0.43763065  1
  O  O382  1  0.80821468  0.91683674  0.68683888  1
  O  O383  1  0.80610506  0.91732979  0.93888877  1
  O  O384  1  0.23337183  0.24936932  0.03992935  1
  O  O385  1  0.23217355  0.24957063  0.29016912  1
  O  O386  1  0.23296914  0.25014264  0.53965618  1
  O  O387  1  0.23387032  0.24987464  0.78763641  1
  O  O388  1  0.23363739  0.58365101  0.04141592  1
  O  O389  1  0.23342217  0.58276243  0.28987447  1
  O  O390  1  0.23129552  0.58325838  0.53884906  1
  O  O391  1  0.23397385  0.58396342  0.79052316  1
  O  O392  1  0.23466000  0.91656141  0.03916920  1
  O  O393  1  0.23442160  0.91761055  0.28736606  1
  O  O394  1  0.23271895  0.91630837  0.53931383  1
  O  O395  1  0.23692446  0.91715830  0.78865186  1
  O  O396  1  0.73442560  0.24927329  0.04118056  1
  O  O397  1  0.73506377  0.25069136  0.28837834  1
  O  O398  1  0.73362463  0.24939315  0.53977683  1
  O  O399  1  0.73132198  0.24985961  0.78893635  1
  O  O400  1  0.73346314  0.58305976  0.03991482  1
  O  O401  1  0.73238605  0.58402413  0.29045591  1
  O  O402  1  0.73480142  0.58295692  0.54100185  1
  O  O403  1  0.73413148  0.58321106  0.78741393  1
  O  O404  1  0.73217933  0.91673840  0.04004205  1
  O  O405  1  0.73434975  0.91621482  0.28794332  1
  O  O406  1  0.73371553  0.91708311  0.53856112  1
  O  O407  1  0.73391040  0.91748158  0.78759646  1
  O  O408  1  0.26684802  0.08350540  0.21014932  1
  O  O409  1  0.26644588  0.08321698  0.45969656  1
  O  O410  1  0.26900725  0.08321754  0.71038409  1
  O  O411  1  0.26719610  0.08255153  0.96257728  1
  O  O412  1  0.26698968  0.41563802  0.21244477  1
  O  O413  1  0.26590218  0.41619742  0.46192385  1
  O  O414  1  0.26618591  0.41640756  0.71137611  1
  O  O415  1  0.26556310  0.41651801  0.95964756  1
  O  O416  1  0.26444548  0.75032028  0.21221542  1
  O  O417  1  0.26498164  0.75053630  0.45814558  1
  O  O418  1  0.26910882  0.75022349  0.71013650  1
  O  O419  1  0.26736124  0.75157614  0.96335215  1
  O  O420  1  0.76574457  0.08226966  0.21168222  1
  O  O421  1  0.76609879  0.08328650  0.46238033  1
  O  O422  1  0.76526870  0.08343624  0.71138244  1
  O  O423  1  0.76526075  0.08326909  0.95915288  1
  O  O424  1  0.76657714  0.41673794  0.21230873  1
  O  O425  1  0.76649833  0.41697053  0.46295508  1
  O  O426  1  0.76534509  0.41544872  0.70871024  1
  O  O427  1  0.76565739  0.41636104  0.96138086  1
  O  O428  1  0.76772195  0.74988472  0.20953838  1
  O  O429  1  0.76750369  0.75042318  0.46370207  1
  O  O430  1  0.76533912  0.75046987  0.70965164  1
  O  O431  1  0.76514072  0.75124137  0.96086708  1
  O  O432  1  0.01793349  0.08226076  0.16530025  1
  O  O433  1  0.01544740  0.08288960  0.41646973  1
  O  O434  1  0.01466993  0.08279982  0.66342344  1
  O  O435  1  0.01586648  0.08394209  0.91208257  1
  O  O436  1  0.01557355  0.41645908  0.16686002  1
  O  O437  1  0.01653439  0.41656587  0.41271131  1
  O  O438  1  0.01768217  0.41696809  0.66144066  1
  O  O439  1  0.01854601  0.41587165  0.91455839  1
  O  O440  1  0.01719827  0.75148000  0.16538224  1
  O  O441  1  0.01521667  0.75019618  0.41293190  1
  O  O442  1  0.01537533  0.75030343  0.66324448  1
  O  O443  1  0.01686065  0.74990709  0.91462789  1
  O  O444  1  0.51473872  0.08285129  0.16351401  1
  O  O445  1  0.51761235  0.08357299  0.41198887  1
  O  O446  1  0.51732570  0.08274058  0.66466159  1
  O  O447  1  0.51590247  0.08329878  0.91389176  1
  O  O448  1  0.51763665  0.41701679  0.16496822  1
  O  O449  1  0.51634794  0.41630336  0.41295987  1
  O  O450  1  0.51541069  0.41647801  0.66229138  1
  O  O451  1  0.51524986  0.41629254  0.91264208  1
  O  O452  1  0.51768437  0.75062545  0.16284010  1
  O  O453  1  0.51771687  0.75010775  0.41431758  1
  O  O454  1  0.51746813  0.75074232  0.66440610  1
  O  O455  1  0.51423936  0.75047746  0.91454343  1
  O  O456  1  0.48330758  0.25048217  0.08482618  1
  O  O457  1  0.48418530  0.25014447  0.33422592  1
  O  O458  1  0.48256443  0.24969305  0.58687916  1
  O  O459  1  0.48409258  0.24939446  0.83426672  1
  O  O460  1  0.48537052  0.58323462  0.08696585  1
  O  O461  1  0.48502485  0.58332577  0.33421327  1
  O  O462  1  0.48322704  0.58328531  0.58396709  1
  O  O463  1  0.48293687  0.58348724  0.83453064  1
  O  O464  1  0.48406788  0.91679888  0.08752998  1
  O  O465  1  0.48656143  0.91657186  0.33630975  1
  O  O466  1  0.48275053  0.91737159  0.58409310  1
  O  O467  1  0.48263397  0.91695582  0.83770146  1
  O  O468  1  0.98328799  0.24949450  0.08763764  1
  O  O469  1  0.98577968  0.24953469  0.33750991  1
  O  O470  1  0.98566741  0.25004127  0.58689684  1
  O  O471  1  0.98482267  0.25029601  0.83275583  1
  O  O472  1  0.98334131  0.58362067  0.08503663  1
  O  O473  1  0.98457126  0.58380622  0.33708685  1
  O  O474  1  0.98302551  0.58322763  0.58439251  1
  O  O475  1  0.98415392  0.58276802  0.83383891  1
  O  O476  1  0.98268676  0.91689925  0.08420246  1
  O  O477  1  0.98242655  0.91667175  0.33807270  1
  O  O478  1  0.98229354  0.91638832  0.58596642  1
  O  O479  1  0.98500731  0.91653936  0.83677389  1
  O  O480  1  0.08719444  0.31367894  0.07843760  1
  O  O481  1  0.08884004  0.31608521  0.32828152  1
  O  O482  1  0.08940848  0.31531481  0.57765928  1
  O  O483  1  0.08885818  0.31580373  0.82703377  1
  O  O484  1  0.08662023  0.64999504  0.07844626  1
  O  O485  1  0.08823351  0.64858285  0.32911986  1
  O  O486  1  0.08708222  0.64809802  0.57627128  1
  O  O487  1  0.08791391  0.64764158  0.82677445  1
  O  O488  1  0.08701015  0.98190426  0.07688847  1
  O  O489  1  0.08621863  0.98113565  0.32776413  1
  O  O490  1  0.08615209  0.98170989  0.57637685  1
  O  O491  1  0.08842892  0.98175306  0.82705827  1
  O  O492  1  0.58688643  0.31628839  0.07791933  1
  O  O493  1  0.58796243  0.31544062  0.32814483  1
  O  O494  1  0.58619684  0.31482984  0.57784698  1
  O  O495  1  0.58839757  0.31334853  0.82631833  1
  O  O496  1  0.58872100  0.64861001  0.07853626  1
  O  O497  1  0.58967132  0.64700298  0.32687641  1
  O  O498  1  0.58711738  0.64848219  0.57780456  1
  O  O499  1  0.58669098  0.64853980  0.82729861  1
  O  O500  1  0.58805874  0.98081911  0.07735699  1
  O  O501  1  0.58981117  0.98285155  0.32757537  1
  O  O502  1  0.58713044  0.98203062  0.57722578  1
  O  O503  1  0.58575793  0.98303009  0.82806288  1
  O  O504  1  0.41134701  0.01709674  0.17243633  1
  O  O505  1  0.41424728  0.01831373  0.42205614  1
  O  O506  1  0.41312811  0.01813502  0.67204625  1
  O  O507  1  0.41227743  0.01763323  0.92284763  1
  O  O508  1  0.41363077  0.35176807  0.17410991  1
  O  O509  1  0.41226212  0.35167113  0.42309202  1
  O  O510  1  0.41185602  0.35074632  0.67201001  1
  O  O511  1  0.41179038  0.35140151  0.92203404  1
  O  O512  1  0.41386523  0.68610820  0.17294248  1
  O  O513  1  0.41394789  0.68494070  0.42256820  1
  O  O514  1  0.41316909  0.68630225  0.67267930  1
  O  O515  1  0.41016746  0.68625889  0.92354008  1
  O  O516  1  0.91381282  0.01759184  0.17210835  1
  O  O517  1  0.91128808  0.01756869  0.42318378  1
  O  O518  1  0.91102726  0.01711264  0.67206439  1
  O  O519  1  0.91241709  0.01884300  0.92195533  1
  O  O520  1  0.91192075  0.35051966  0.17330702  1
  O  O521  1  0.91282418  0.35162817  0.42345307  1
  O  O522  1  0.91414003  0.35222326  0.67252705  1
  O  O523  1  0.91464987  0.35100794  0.92239198  1
  O  O524  1  0.91322309  0.68645771  0.17378674  1
  O  O525  1  0.91122009  0.68587830  0.42294111  1
  O  O526  1  0.91208707  0.68453235  0.67093607  1
  O  O527  1  0.91298240  0.68490623  0.92235896  1
  O  O528  1  0.16261446  0.01931001  0.20099050  1
  O  O529  1  0.16291885  0.01745381  0.45280412  1
  O  O530  1  0.16491050  0.01877344  0.70204279  1
  O  O531  1  0.16418239  0.01634435  0.95277437  1
  O  O532  1  0.16331342  0.35025095  0.20349236  1
  O  O533  1  0.16204049  0.35126061  0.45309431  1
  O  O534  1  0.16259462  0.35077612  0.70230916  1
  O  O535  1  0.16162615  0.35156061  0.95183179  1
  O  O536  1  0.16045360  0.68578098  0.20236976  1
  O  O537  1  0.16074653  0.68565945  0.45229659  1
  O  O538  1  0.16481527  0.68569665  0.70217410  1
  O  O539  1  0.16399509  0.68648345  0.95287308  1
  O  O540  1  0.66196905  0.01739514  0.20398635  1
  O  O541  1  0.66268286  0.01730671  0.45265147  1
  O  O542  1  0.66121573  0.01933772  0.70153482  1
  O  O543  1  0.66193561  0.01655888  0.95211097  1
  O  O544  1  0.66228237  0.35306880  0.20205013  1
  O  O545  1  0.66301437  0.35130774  0.45186511  1
  O  O546  1  0.66114073  0.35031673  0.70177994  1
  O  O547  1  0.66214518  0.35106286  0.95305060  1
  O  O548  1  0.66333813  0.68507634  0.20241785  1
  O  O549  1  0.66396001  0.68575324  0.45314490  1
  O  O550  1  0.66135001  0.68550206  0.70132964  1
  O  O551  1  0.66152312  0.68640976  0.95253225  1
  O  O552  1  0.33699398  0.31437974  0.04770913  1
  O  O553  1  0.33612338  0.31449895  0.29782915  1
  O  O554  1  0.33671569  0.31592099  0.54785868  1
  O  O555  1  0.33730513  0.31514980  0.79627038  1
  O  O556  1  0.33718285  0.64957837  0.04814164  1
  O  O557  1  0.33715695  0.64760975  0.29800445  1
  O  O558  1  0.33538639  0.64785354  0.54703520  1
  O  O559  1  0.33813204  0.64830808  0.79653300  1
  O  O560  1  0.33849919  0.98181823  0.04788265  1
  O  O561  1  0.33802679  0.98300635  0.29624429  1
  O  O562  1  0.33692581  0.98133340  0.54765419  1
  O  O563  1  0.34072310  0.98198767  0.79697867  1
  O  O564  1  0.83846068  0.31452741  0.04832316  1
  O  O565  1  0.83877398  0.31556996  0.29675212  1
  O  O566  1  0.83710267  0.31522142  0.54768830  1
  O  O567  1  0.83552428  0.31402945  0.79757910  1
  O  O568  1  0.83685475  0.64865040  0.04756424  1
  O  O569  1  0.83652802  0.64864493  0.29730062  1
  O  O570  1  0.83882152  0.64807118  0.54787235  1
  O  O571  1  0.83781447  0.64780463  0.79668955  1
  O  O572  1  0.83589525  0.98230682  0.04864931  1
  O  O573  1  0.83844790  0.98039065  0.29823152  1
  O  O574  1  0.83738983  0.98232384  0.54743326  1
  O  O575  1  0.83736803  0.98308607  0.79629794  1
  O  O576  1  0.41070016  0.14718699  0.17312020  1
  O  O577  1  0.41391509  0.14836914  0.42208977  1
  O  O578  1  0.41341083  0.14819412  0.67280069  1
  O  O579  1  0.41176736  0.14760228  0.92309057  1
  O  O580  1  0.41345504  0.48166428  0.17401354  1
  O  O581  1  0.41265919  0.48170692  0.42313039  1
  O  O582  1  0.41128608  0.48086637  0.67234321  1
  O  O583  1  0.41197275  0.48159767  0.92227465  1
  O  O584  1  0.41417001  0.81622356  0.17268902  1
  O  O585  1  0.41386505  0.81500924  0.42242701  1
  O  O586  1  0.41382073  0.81645379  0.67200952  1
  O  O587  1  0.41087586  0.81634728  0.92280985  1
  O  O588  1  0.91420681  0.14771309  0.17288240  1
  O  O589  1  0.91139331  0.14755482  0.42389347  1
  O  O590  1  0.91066595  0.14728333  0.67302542  1
  O  O591  1  0.91239004  0.14896063  0.92171726  1
  O  O592  1  0.91117361  0.48067971  0.17384349  1
  O  O593  1  0.91266396  0.48162218  0.42322612  1
  O  O594  1  0.91412369  0.48239228  0.67144760  1
  O  O595  1  0.91476167  0.48106297  0.92248555  1
  O  O596  1  0.91303556  0.81655315  0.17261274  1
  O  O597  1  0.91154105  0.81586727  0.42255241  1
  O  O598  1  0.91156452  0.81505676  0.67134109  1
  O  O599  1  0.91314303  0.81501226  0.92275532  1
  O  O600  1  0.08651665  0.18341916  0.07847830  1
  O  O601  1  0.08999880  0.18594149  0.32786167  1
  O  O602  1  0.08947859  0.18520236  0.57723132  1
  O  O603  1  0.08915554  0.18582065  0.82592642  1
  O  O604  1  0.08757829  0.51958051  0.07836279  1
  O  O605  1  0.08783050  0.51808745  0.32846157  1
  O  O606  1  0.08719394  0.51807363  0.57640640  1
  O  O607  1  0.08778927  0.51728667  0.82765259  1
  O  O608  1  0.08696386  0.85188993  0.07717831  1
  O  O609  1  0.08581145  0.85110163  0.32808312  1
  O  O610  1  0.08650807  0.85182954  0.57654544  1
  O  O611  1  0.08866070  0.85156003  0.82726652  1
  O  O612  1  0.58709011  0.18587249  0.07759897  1
  O  O613  1  0.58816166  0.18521572  0.32780559  1
  O  O614  1  0.58631699  0.18460583  0.57813596  1
  O  O615  1  0.58757817  0.18329482  0.82727464  1
  O  O616  1  0.58876254  0.51796674  0.07881525  1
  O  O617  1  0.58841932  0.51685421  0.32763484  1
  O  O618  1  0.58701625  0.51812647  0.57768956  1
  O  O619  1  0.58671313  0.51839315  0.82704693  1
  O  O620  1  0.58751682  0.85081329  0.07733984  1
  O  O621  1  0.59083764  0.85274347  0.32706023  1
  O  O622  1  0.58690629  0.85200228  0.57690218  1
  O  O623  1  0.58655936  0.85303019  0.82783866  1
  O  O624  1  0.33719613  0.18419311  0.04712080  1
  O  O625  1  0.33589458  0.18423231  0.29754753  1
  O  O626  1  0.33746064  0.18591367  0.54811537  1
  O  O627  1  0.33752082  0.18483667  0.79652759  1
  O  O628  1  0.33772003  0.51924662  0.04804932  1
  O  O629  1  0.33705566  0.51720022  0.29750491  1
  O  O630  1  0.33506360  0.51775320  0.54698292  1
  O  O631  1  0.33714949  0.51781853  0.79672858  1
  O  O632  1  0.33874557  0.85186538  0.04830894  1
  O  O633  1  0.33800644  0.85274076  0.29733491  1
  O  O634  1  0.33698866  0.85148404  0.54740559  1
  O  O635  1  0.34039301  0.85165309  0.79704679  1
  O  O636  1  0.83853553  0.18454236  0.04827863  1
  O  O637  1  0.83838928  0.18528924  0.29749545  1
  O  O638  1  0.83761407  0.18494013  0.54717177  1
  O  O639  1  0.83477297  0.18384642  0.79734447  1
  O  O640  1  0.83742527  0.51846849  0.04752007  1
  O  O641  1  0.83608539  0.51846255  0.29783147  1
  O  O642  1  0.83885997  0.51787663  0.54785792  1
  O  O643  1  0.83731024  0.51734651  0.79681408  1
  O  O644  1  0.83667741  0.85248515  0.04840176  1
  O  O645  1  0.83772567  0.85028605  0.29732506  1
  O  O646  1  0.83779138  0.85224695  0.54771005  1
  O  O647  1  0.83753682  0.85283324  0.79710786  1
  O  O648  1  0.16303994  0.14934453  0.20212616  1
  O  O649  1  0.16246753  0.14780975  0.45352794  1
  O  O650  1  0.16503688  0.14869597  0.70246881  1
  O  O651  1  0.16319478  0.14658109  0.95258598  1
  O  O652  1  0.16326494  0.48034174  0.20272984  1
  O  O653  1  0.16203216  0.48143891  0.45226115  1
  O  O654  1  0.16216822  0.48084329  0.70167663  1
  O  O655  1  0.16165187  0.48161647  0.95196650  1
  O  O656  1  0.16096363  0.81577696  0.20199117  1
  O  O657  1  0.16098393  0.81589516  0.45207320  1
  O  O658  1  0.16537458  0.81560131  0.70193442  1
  O  O659  1  0.16391372  0.81676121  0.95319022  1
  O  O660  1  0.66231217  0.14753719  0.20288430  1
  O  O661  1  0.66193571  0.14738213  0.45210605  1
  O  O662  1  0.66178195  0.14932425  0.70200151  1
  O  O663  1  0.66049161  0.14654675  0.95201265  1
  O  O664  1  0.66334027  0.48314785  0.20305936  1
  O  O665  1  0.66234887  0.48129545  0.45233404  1
  O  O666  1  0.66122818  0.48032971  0.70097644  1
  O  O667  1  0.66192867  0.48118463  0.95269683  1
  O  O668  1  0.66366138  0.81509300  0.20216068  1
  O  O669  1  0.66416022  0.81590323  0.45326429  1
  O  O670  1  0.66139891  0.81549223  0.70135347  1
  O  O671  1  0.66154964  0.81669710  0.95320424  1
