# generated using pymatgen
data_Na2MnFe(PO4)2
_symmetry_space_group_name_H-M   'P 1'
_cell_length_a   21.08959187
_cell_length_b   18.94309603
_cell_length_c   20.04845827
_cell_angle_alpha   89.99986428
_cell_angle_beta   90.00073295
_cell_angle_gamma   89.99937728
_symmetry_Int_Tables_number   1
_chemical_formula_structural   Na2MnFe(PO4)2
_chemical_formula_sum   'Na96 Mn48 Fe48 P96 O384'
_cell_volume   8009.40246437
_cell_formula_units_Z   48
loop_
 _symmetry_equiv_pos_site_id
 _symmetry_equiv_pos_as_xyz
  1  'x, y, z'
loop_
 _atom_site_type_symbol
 _atom_site_label
 _atom_site_symmetry_multiplicity
 _atom_site_fract_x
 _atom_site_fract_y
 _atom_site_fract_z
 _atom_site_occupancy
  Na  Na0  1  0.00138770  0.00014051  0.00010415  1
  Na  Na1  1  0.00100385  0.00025335  0.24954870  1
  Na  Na2  1  -0.00154294  0.00009380  0.49938101  1
  Na  Na3  1  -0.00164292  0.00004314  0.74980895  1
  Na  Na4  1  -0.00101871  0.33288117  -0.00065681  1
  Na  Na5  1  -0.00066405  0.33278289  0.25030069  1
  Na  Na6  1  0.00008482  0.33283973  0.49991726  1
  Na  Na7  1  -0.00068413  0.33304697  0.75089308  1
  Na  Na8  1  -0.00040441  0.66600206  -0.00077856  1
  Na  Na9  1  -0.00123894  0.66571608  0.25026954  1
  Na  Na10  1  -0.00079750  0.66633060  0.50134757  1
  Na  Na11  1  -0.00056253  0.66675736  0.74947738  1
  Na  Na12  1  0.50199901  0.00108651  -0.00036491  1
  Na  Na13  1  0.49892888  -0.00053761  0.25081817  1
  Na  Na14  1  0.50141965  0.00016894  0.50013626  1
  Na  Na15  1  0.50233478  0.00032226  0.75014204  1
  Na  Na16  1  0.50135042  0.33329892  -0.00039070  1
  Na  Na17  1  0.50001446  0.33224383  0.25040078  1
  Na  Na18  1  0.50347549  0.33408977  0.49952027  1
  Na  Na19  1  0.50199692  0.33342148  0.75018171  1
  Na  Na20  1  0.49957570  0.66694499  -0.00039760  1
  Na  Na21  1  0.49850118  0.66659121  0.24951146  1
  Na  Na22  1  0.49993605  0.66640107  0.49993247  1
  Na  Na23  1  0.50063525  0.66655979  0.75084220  1
  Na  Na24  1  0.24839732  -0.00031481  0.12504491  1
  Na  Na25  1  0.24943800  -0.00002559  0.37592480  1
  Na  Na26  1  0.24931567  0.00018475  0.62489359  1
  Na  Na27  1  0.24774589  -0.00069175  0.87427878  1
  Na  Na28  1  0.25026457  0.33320359  0.12628891  1
  Na  Na29  1  0.24840054  0.33221665  0.37489388  1
  Na  Na30  1  0.24901438  0.33291898  0.62546132  1
  Na  Na31  1  0.24902681  0.33260452  0.87393604  1
  Na  Na32  1  0.25256472  0.66744830  0.12488769  1
  Na  Na33  1  0.25284824  0.66712296  0.37604974  1
  Na  Na34  1  0.25197383  0.66584470  0.62450345  1
  Na  Na35  1  0.25141465  0.66621137  0.87417116  1
  Na  Na36  1  0.74900177  -0.00020340  0.12375937  1
  Na  Na37  1  0.75136793  0.00105679  0.37557843  1
  Na  Na38  1  0.75004238  -0.00021210  0.62464869  1
  Na  Na39  1  0.74928481  -0.00018850  0.87554679  1
  Na  Na40  1  0.75043017  0.33307516  0.12553030  1
  Na  Na41  1  0.74961451  0.33314098  0.37508872  1
  Na  Na42  1  0.74887995  0.33303942  0.62495855  1
  Na  Na43  1  0.74954487  0.33304500  0.87398041  1
  Na  Na44  1  0.74938086  0.66630361  0.12534450  1
  Na  Na45  1  0.74967043  0.66737874  0.37464774  1
  Na  Na46  1  0.74785020  0.66670517  0.62591822  1
  Na  Na47  1  0.74814952  0.66598706  0.87533422  1
  Na  Na48  1  -0.00043208  0.16619449  -0.00079879  1
  Na  Na49  1  -0.00252354  0.16756503  0.25072816  1
  Na  Na50  1  -0.00124685  0.16616223  0.49986047  1
  Na  Na51  1  -0.00359807  0.16756346  0.74962225  1
  Na  Na52  1  0.00035626  0.50060503  -0.00088016  1
  Na  Na53  1  0.00094965  0.50005356  0.24957800  1
  Na  Na54  1  0.00261318  0.49901105  0.50078791  1
  Na  Na55  1  0.00121836  0.50040870  0.74990713  1
  Na  Na56  1  0.00042797  0.83333370  0.00053874  1
  Na  Na57  1  0.00139793  0.83279198  0.24964959  1
  Na  Na58  1  -0.00258402  0.83387827  0.50023439  1
  Na  Na59  1  -0.00283240  0.83425125  0.75005669  1
  Na  Na60  1  0.50061946  0.16640284  -0.00034922  1
  Na  Na61  1  0.49910049  0.16701306  0.25124418  1
  Na  Na62  1  0.50108465  0.16630724  0.49871904  1
  Na  Na63  1  0.50030359  0.16734006  0.75079494  1
  Na  Na64  1  0.50141261  0.49965835  -0.00016385  1
  Na  Na65  1  0.49996002  0.50018002  0.25008607  1
  Na  Na66  1  0.50106273  0.50030601  0.50075324  1
  Na  Na67  1  0.50183072  0.49999870  0.74992846  1
  Na  Na68  1  0.50072165  0.83283968  -0.00074611  1
  Na  Na69  1  0.49925065  0.83371625  0.24944157  1
  Na  Na70  1  0.50301118  0.83268575  0.50038189  1
  Na  Na71  1  0.50260631  0.83283872  0.75036775  1
  Na  Na72  1  0.25076129  0.16579247  0.12598568  1
  Na  Na73  1  0.24969112  0.16678116  0.37480137  1
  Na  Na74  1  0.24933219  0.16664825  0.62614918  1
  Na  Na75  1  0.24835582  0.16718337  0.87372928  1
  Na  Na76  1  0.24909565  0.50078695  0.12522561  1
  Na  Na77  1  0.25037040  0.49965448  0.37629505  1
  Na  Na78  1  0.24991655  0.50032708  0.62404725  1
  Na  Na79  1  0.24961896  0.50060724  0.87396257  1
  Na  Na80  1  0.25038256  0.83389891  0.12516516  1
  Na  Na81  1  0.25106204  0.83350798  0.37577069  1
  Na  Na82  1  0.25153067  0.83299637  0.62460233  1
  Na  Na83  1  0.25149709  0.83247413  0.87438743  1
  Na  Na84  1  0.75089022  0.16725895  0.12442782  1
  Na  Na85  1  0.75239117  0.16638367  0.37523959  1
  Na  Na86  1  0.75244578  0.16636861  0.62455689  1
  Na  Na87  1  0.75103840  0.16682074  0.87521753  1
  Na  Na88  1  0.74975078  0.50008245  0.12520811  1
  Na  Na89  1  0.74763251  0.50091983  0.37504684  1
  Na  Na90  1  0.74654602  0.50101105  0.62522914  1
  Na  Na91  1  0.74774221  0.50110049  0.87533969  1
  Na  Na92  1  0.74846348  0.83362804  0.12478785  1
  Na  Na93  1  0.74884371  0.83356439  0.37534125  1
  Na  Na94  1  0.74794064  0.83351745  0.62575999  1
  Na  Na95  1  0.74757381  0.83408495  0.87431725  1
  Mn  Mn96  1  0.35816921  0.41536633  0.50237958  1
  Mn  Mn97  1  0.10806271  0.75040762  0.87241399  1
  Mn  Mn98  1  0.10786257  0.74995840  0.37299366  1
  Mn  Mn99  1  0.85621435  0.74985977  0.75267726  1
  Mn  Mn100  1  0.35768642  0.41618759  0.00180898  1
  Mn  Mn101  1  0.35807202  0.41668559  0.25280249  1
  Mn  Mn102  1  0.14155661  0.91524133  0.74743599  1
  Mn  Mn103  1  0.10789660  0.08388967  0.12306459  1
  Mn  Mn104  1  0.85780853  0.75078008  0.25227027  1
  Mn  Mn105  1  0.64160531  0.91773323  0.24771826  1
  Mn  Mn106  1  0.39297192  0.91666800  0.87706228  1
  Mn  Mn107  1  0.89193986  0.58268251  0.37809358  1
  Mn  Mn108  1  0.85710388  0.41722499  0.75181470  1
  Mn  Mn109  1  0.35930452  0.75042639  0.50275698  1
  Mn  Mn110  1  0.10594360  0.08349547  0.62279999  1
  Mn  Mn111  1  0.60867039  0.08355997  0.87218469  1
  Mn  Mn112  1  0.10768794  0.41654075  0.87269570  1
  Mn  Mn113  1  0.85715136  0.41771139  0.50251700  1
  Mn  Mn114  1  0.39238655  0.25037378  0.37826033  1
  Mn  Mn115  1  0.85743254  0.08316020  0.00234378  1
  Mn  Mn116  1  0.35846900  0.41697749  0.75155792  1
  Mn  Mn117  1  0.89234831  0.91632585  0.12727402  1
  Mn  Mn118  1  0.85822339  0.41652208  0.25264786  1
  Mn  Mn119  1  0.64296086  0.24936002  0.24767836  1
  Mn  Mn120  1  0.60854529  0.08311560  0.37227840  1
  Mn  Mn121  1  0.85711130  0.41726932  0.00180224  1
  Mn  Mn122  1  0.60701255  0.75062178  0.12241977  1
  Mn  Mn123  1  0.64282878  0.24950458  0.74700866  1
  Mn  Mn124  1  0.89145313  0.58275241  0.62725612  1
  Mn  Mn125  1  0.10770483  0.41653441  0.12235606  1
  Mn  Mn126  1  0.60792056  0.41571610  0.12243153  1
  Mn  Mn127  1  0.39404256  0.91717027  0.62750287  1
  Mn  Mn128  1  0.14151194  0.91696538  0.49801625  1
  Mn  Mn129  1  0.10741218  0.75030455  0.62297114  1
  Mn  Mn130  1  0.14292271  0.58457883  0.24842002  1
  Mn  Mn131  1  0.64174990  0.58350832  0.24768352  1
  Mn  Mn132  1  0.39185217  0.58239483  0.12671917  1
  Mn  Mn133  1  0.14136979  0.25045761  0.74719576  1
  Mn  Mn134  1  0.14192774  0.24931051  0.24763628  1
  Mn  Mn135  1  0.39175666  0.91811030  0.12660397  1
  Mn  Mn136  1  0.35804514  0.08265234  0.75167233  1
  Mn  Mn137  1  0.39229530  0.25055890  0.87777771  1
  Mn  Mn138  1  0.85688163  0.74978570  0.00189943  1
  Mn  Mn139  1  0.35704756  0.08315155  0.00197000  1
  Mn  Mn140  1  0.14313573  0.58326148  0.49790158  1
  Mn  Mn141  1  0.10880548  0.74917873  0.12281037  1
  Mn  Mn142  1  0.89216600  0.91649939  0.37686405  1
  Mn  Mn143  1  0.35767697  0.08400735  0.50261558  1
  Fe  Fe144  1  0.64216662  0.91664618  0.99787370  1
  Fe  Fe145  1  0.85680251  0.08285229  0.75196671  1
  Fe  Fe146  1  0.35718199  0.75024977  0.00089268  1
  Fe  Fe147  1  0.89202628  0.91620525  0.87712067  1
  Fe  Fe148  1  0.35795872  0.75095486  0.25234764  1
  Fe  Fe149  1  0.39283526  0.91636960  0.37713366  1
  Fe  Fe150  1  0.35749860  0.08251945  0.25180111  1
  Fe  Fe151  1  0.64343525  0.91693023  0.49805894  1
  Fe  Fe152  1  0.14168036  0.24958923  0.49877517  1
  Fe  Fe153  1  0.60770439  0.41701907  0.87336093  1
  Fe  Fe154  1  0.39429628  0.58272221  0.62707041  1
  Fe  Fe155  1  0.60747966  0.41707323  0.37328707  1
  Fe  Fe156  1  0.89079321  0.91650340  0.62687936  1
  Fe  Fe157  1  0.85592229  0.74997342  0.50156853  1
  Fe  Fe158  1  0.39255768  0.24945478  0.12587539  1
  Fe  Fe159  1  0.10727602  0.41631577  0.37359184  1
  Fe  Fe160  1  0.10606619  0.08315623  0.87336181  1
  Fe  Fe161  1  0.60751618  0.41611930  0.62280532  1
  Fe  Fe162  1  0.60696030  0.74980883  0.37319399  1
  Fe  Fe163  1  0.10730657  0.41633117  0.62332506  1
  Fe  Fe164  1  0.64265074  0.25016636  0.99865937  1
  Fe  Fe165  1  0.60735462  0.75003220  0.62286332  1
  Fe  Fe166  1  0.39357126  0.25016255  0.62582112  1
  Fe  Fe167  1  0.89257359  0.25036494  0.87707945  1
  Fe  Fe168  1  0.14186668  0.24977404  0.99859807  1
  Fe  Fe169  1  0.39343476  0.58294425  0.87653962  1
  Fe  Fe170  1  0.89248860  0.58301497  0.12606746  1
  Fe  Fe171  1  0.89231386  0.25053811  0.62615360  1
  Fe  Fe172  1  0.64216524  0.58331542  0.99800928  1
  Fe  Fe173  1  0.64182826  0.58385804  0.74835600  1
  Fe  Fe174  1  0.89320649  0.25053086  0.37734832  1
  Fe  Fe175  1  0.35867271  0.74999469  0.75116944  1
  Fe  Fe176  1  0.14238366  0.91646489  0.99766535  1
  Fe  Fe177  1  0.89220917  0.58359690  0.87674246  1
  Fe  Fe178  1  0.14263362  0.58368103  0.99765408  1
  Fe  Fe179  1  0.60680106  0.74918348  0.87356192  1
  Fe  Fe180  1  0.89225413  0.25042461  0.12631995  1
  Fe  Fe181  1  0.85718521  0.08273442  0.50171877  1
  Fe  Fe182  1  0.64332028  0.91709896  0.74794706  1
  Fe  Fe183  1  0.14371383  0.91622054  0.24922809  1
  Fe  Fe184  1  0.60738466  0.08381061  0.12405209  1
  Fe  Fe185  1  0.10643098  0.08359913  0.37337302  1
  Fe  Fe186  1  0.85765841  0.08285307  0.25120473  1
  Fe  Fe187  1  0.64351491  0.24967000  0.49843781  1
  Fe  Fe188  1  0.64175102  0.58387766  0.49788485  1
  Fe  Fe189  1  0.14350669  0.58378129  0.74816999  1
  Fe  Fe190  1  0.39370063  0.58330090  0.37663775  1
  Fe  Fe191  1  0.60864055  0.08410775  0.62299458  1
  P  P192  1  0.05200055  0.24983261  0.10938856  1
  P  P193  1  0.05350991  0.24957726  0.36155057  1
  P  P194  1  0.05191632  0.25036148  0.60957833  1
  P  P195  1  0.05304715  0.24895032  0.86121470  1
  P  P196  1  0.05307138  0.58342503  0.10918357  1
  P  P197  1  0.05344581  0.58265133  0.36039726  1
  P  P198  1  0.05473517  0.58295249  0.61151922  1
  P  P199  1  0.05411667  0.58386148  0.86001202  1
  P  P200  1  0.05563363  0.91639822  0.11062570  1
  P  P201  1  0.05383320  0.91755616  0.35949621  1
  P  P202  1  0.05064794  0.91667902  0.61001490  1
  P  P203  1  0.05283224  0.91711421  0.86090187  1
  P  P204  1  0.55281375  0.24857889  0.10984645  1
  P  P205  1  0.55538903  0.25046839  0.36123081  1
  P  P206  1  0.55371482  0.24943927  0.60966174  1
  P  P207  1  0.55525576  0.25087272  0.86088028  1
  P  P208  1  0.55356405  0.58344930  0.10915785  1
  P  P209  1  0.55379288  0.58370921  0.36123932  1
  P  P210  1  0.55447826  0.58360394  0.61101371  1
  P  P211  1  0.55437057  0.58327683  0.86096383  1
  P  P212  1  0.55348325  0.91801384  0.10930925  1
  P  P213  1  0.55372101  0.91589115  0.36128389  1
  P  P214  1  0.55651645  0.91721495  0.61080260  1
  P  P215  1  0.55579904  0.91577041  0.86041930  1
  P  P216  1  0.44723341  0.08420302  0.14049682  1
  P  P217  1  0.44557726  0.08226411  0.38917198  1
  P  P218  1  0.44907520  0.08453057  0.63972355  1
  P  P219  1  0.44706410  0.08321955  0.88999610  1
  P  P220  1  0.44672481  0.41538050  0.13990200  1
  P  P221  1  0.44825152  0.41731969  0.39032458  1
  P  P222  1  0.44869118  0.41590377  0.63953899  1
  P  P223  1  0.44815569  0.41767507  0.88961645  1
  P  P224  1  0.44417177  0.75049448  0.13900524  1
  P  P225  1  0.44678596  0.75041774  0.38890325  1
  P  P226  1  0.44842557  0.74960131  0.64059712  1
  P  P227  1  0.44605707  0.74909240  0.88893592  1
  P  P228  1  0.94601613  0.08384125  0.14026270  1
  P  P229  1  0.94532353  0.08389079  0.38914461  1
  P  P230  1  0.94316679  0.08315287  0.63903108  1
  P  P231  1  0.94538923  0.08281622  0.88869833  1
  P  P232  1  0.94629880  0.41701114  0.13942339  1
  P  P233  1  0.94774945  0.41609802  0.39042934  1
  P  P234  1  0.94758508  0.41606422  0.63997732  1
  P  P235  1  0.94598367  0.41742812  0.88953448  1
  P  P236  1  0.94678202  0.74884101  0.13967663  1
  P  P237  1  0.94586367  0.74984740  0.39118846  1
  P  P238  1  0.94407100  0.75044189  0.63904041  1
  P  P239  1  0.94607238  0.74985029  0.88981020  1
  P  P240  1  0.19654440  0.08226641  0.23677958  1
  P  P241  1  0.19516290  0.08448729  0.48477872  1
  P  P242  1  0.19464889  0.08287586  0.73581152  1
  P  P243  1  0.19528460  0.08366368  0.98419153  1
  P  P244  1  0.19547220  0.41685144  0.23635782  1
  P  P245  1  0.19484014  0.41520817  0.48580594  1
  P  P246  1  0.19605037  0.41794163  0.73415817  1
  P  P247  1  0.19657128  0.41641230  0.98488026  1
  P  P248  1  0.19874213  0.75083312  0.23559847  1
  P  P249  1  0.19733123  0.74997916  0.48517328  1
  P  P250  1  0.19852642  0.74884336  0.73455870  1
  P  P251  1  0.19789873  0.74986331  0.98469047  1
  P  P252  1  0.69798604  0.08370543  0.23400860  1
  P  P253  1  0.69699888  0.08360135  0.48628487  1
  P  P254  1  0.69774392  0.08304222  0.73423881  1
  P  P255  1  0.69517863  0.08387967  0.98631357  1
  P  P256  1  0.69575276  0.41651476  0.23595708  1
  P  P257  1  0.69434582  0.41670861  0.48574021  1
  P  P258  1  0.69440695  0.41745372  0.73542529  1
  P  P259  1  0.69575766  0.41640205  0.98449101  1
  P  P260  1  0.69509911  0.75037676  0.23581828  1
  P  P261  1  0.69511027  0.75008296  0.48587334  1
  P  P262  1  0.69375490  0.74988447  0.73617623  1
  P  P263  1  0.69524567  0.74994989  0.98444233  1
  P  P264  1  0.30176454  0.24975629  0.01543963  1
  P  P265  1  0.30499705  0.24893185  0.26413980  1
  P  P266  1  0.30206959  0.24980868  0.51616325  1
  P  P267  1  0.30488609  0.25014619  0.76352938  1
  P  P268  1  0.30340969  0.58356594  0.01314286  1
  P  P269  1  0.30465366  0.58396546  0.26609095  1
  P  P270  1  0.30670158  0.58274351  0.51479260  1
  P  P271  1  0.30550008  0.58372207  0.76387251  1
  P  P272  1  0.30186949  0.91642370  0.01428259  1
  P  P273  1  0.30356304  0.91708432  0.26573271  1
  P  P274  1  0.30468641  0.91719936  0.51465501  1
  P  P275  1  0.30383389  0.91585470  0.76462977  1
  P  P276  1  0.80374702  0.25054575  0.01412632  1
  P  P277  1  0.80583562  0.24910096  0.26462378  1
  P  P278  1  0.80426844  0.25011772  0.51409581  1
  P  P279  1  0.80531653  0.24951883  0.76412686  1
  P  P280  1  0.80297424  0.58346057  0.01431347  1
  P  P281  1  0.80428781  0.58337128  0.26430755  1
  P  P282  1  0.80088744  0.58410168  0.51515661  1
  P  P283  1  0.80170697  0.58326692  0.76560595  1
  P  P284  1  0.80282422  0.91619404  0.01376407  1
  P  P285  1  0.80284269  0.91772562  0.26491919  1
  P  P286  1  0.80261004  0.91616528  0.51515759  1
  P  P287  1  0.80345778  0.91733271  0.76455339  1
  O  O288  1  0.05603917  0.24968794  0.18616414  1
  O  O289  1  0.05761633  0.24926883  0.43815026  1
  O  O290  1  0.05525330  0.24964942  0.68651965  1
  O  O291  1  0.05798013  0.24959376  0.93774419  1
  O  O292  1  0.05735373  0.58391201  0.18586149  1
  O  O293  1  0.05688698  0.58362635  0.43713756  1
  O  O294  1  0.05902989  0.58420048  0.68822985  1
  O  O295  1  0.05933035  0.58399795  0.93670922  1
  O  O296  1  0.06037479  0.91615925  0.18732565  1
  O  O297  1  0.05616297  0.91682452  0.43629788  1
  O  O298  1  0.05494658  0.91627094  0.68671833  1
  O  O299  1  0.05831248  0.91607430  0.93754940  1
  O  O300  1  0.55652983  0.24919628  0.18652854  1
  O  O301  1  0.56012889  0.24929132  0.43795719  1
  O  O302  1  0.55688540  0.24910212  0.68579163  1
  O  O303  1  0.55934430  0.24987637  0.93788232  1
  O  O304  1  0.55638794  0.58369460  0.18597138  1
  O  O305  1  0.55799501  0.58393628  0.43798833  1
  O  O306  1  0.55839204  0.58378093  0.68772568  1
  O  O307  1  0.55850015  0.58352400  0.93766427  1
  O  O308  1  0.55597069  0.91700762  0.18613493  1
  O  O309  1  0.55911459  0.91693181  0.43792350  1
  O  O310  1  0.56008671  0.91749933  0.68762047  1
  O  O311  1  0.55936259  0.91681631  0.93723025  1
  O  O312  1  0.44351388  0.08328956  0.06375448  1
  O  O313  1  0.44103739  0.08269991  0.31248512  1
  O  O314  1  0.44501870  0.08369910  0.56299349  1
  O  O315  1  0.44348868  0.08299235  0.81332211  1
  O  O316  1  0.44367656  0.41608687  0.06309633  1
  O  O317  1  0.44436517  0.41646630  0.31366458  1
  O  O318  1  0.44492958  0.41594529  0.56285791  1
  O  O319  1  0.44450047  0.41707963  0.81301949  1
  O  O320  1  0.43989077  0.75060830  0.06218687  1
  O  O321  1  0.44232336  0.75077831  0.31219740  1
  O  O322  1  0.44498486  0.75034812  0.56385195  1
  O  O323  1  0.44192291  0.75010176  0.81225064  1
  O  O324  1  0.94304179  0.08279893  0.06346102  1
  O  O325  1  0.94122596  0.08286870  0.31247948  1
  O  O326  1  0.93959060  0.08274708  0.56214363  1
  O  O327  1  0.94102668  0.08262971  0.81196568  1
  O  O328  1  0.94329704  0.41708417  0.06269943  1
  O  O329  1  0.94406004  0.41695021  0.31375232  1
  O  O330  1  0.94362757  0.41691157  0.56335526  1
  O  O331  1  0.94310369  0.41754640  0.81272839  1
  O  O332  1  0.94333706  0.74977271  0.06295345  1
  O  O333  1  0.94302359  0.74994341  0.31437218  1
  O  O334  1  0.93943656  0.74971436  0.56234679  1
  O  O335  1  0.94256687  0.74998817  0.81305996  1
  O  O336  1  0.19305011  0.08392138  0.06106207  1
  O  O337  1  0.19140044  0.08356944  0.31332610  1
  O  O338  1  0.19185410  0.08377988  0.56158110  1
  O  O339  1  0.18980665  0.08309052  0.81247397  1
  O  O340  1  0.19407211  0.41650429  0.06170875  1
  O  O341  1  0.19094942  0.41642655  0.31311100  1
  O  O342  1  0.19070375  0.41593778  0.56256501  1
  O  O343  1  0.19286257  0.41692600  0.81091142  1
  O  O344  1  0.19472680  0.74974428  0.06139520  1
  O  O345  1  0.19471829  0.74989230  0.31221925  1
  O  O346  1  0.19349437  0.74979481  0.56189922  1
  O  O347  1  0.19438154  0.74953076  0.81121980  1
  O  O348  1  0.69136192  0.08414377  0.06299800  1
  O  O349  1  0.69430443  0.08384029  0.31079823  1
  O  O350  1  0.69261573  0.08405198  0.56287143  1
  O  O351  1  0.69422589  0.08389945  0.81104718  1
  O  O352  1  0.69353482  0.41617068  0.06134637  1
  O  O353  1  0.69122169  0.41680083  0.31270993  1
  O  O354  1  0.69039330  0.41649802  0.56260583  1
  O  O355  1  0.69092109  0.41681791  0.81222266  1
  O  O356  1  0.69287946  0.74989126  0.06126084  1
  O  O357  1  0.69074488  0.75020519  0.31259522  1
  O  O358  1  0.69085788  0.74966855  0.56263798  1
  O  O359  1  0.69016132  0.74945762  0.81289269  1
  O  O360  1  0.30939284  0.24952226  0.18744410  1
  O  O361  1  0.30639405  0.25012958  0.43943129  1
  O  O362  1  0.31002884  0.25014430  0.68692075  1
  O  O363  1  0.30578840  0.25000240  0.93867219  1
  O  O364  1  0.30698051  0.58272060  0.18923703  1
  O  O365  1  0.31126286  0.58273444  0.43805718  1
  O  O366  1  0.31075384  0.58264522  0.68715925  1
  O  O367  1  0.30849249  0.58260565  0.93651080  1
  O  O368  1  0.30654570  0.91756922  0.18898331  1
  O  O369  1  0.30925341  0.91688599  0.43794766  1
  O  O370  1  0.30759267  0.91695501  0.68787869  1
  O  O371  1  0.30615322  0.91709219  0.93768279  1
  O  O372  1  0.80956148  0.25036805  0.18780029  1
  O  O373  1  0.80899199  0.25094724  0.43742007  1
  O  O374  1  0.80929406  0.25088700  0.68720934  1
  O  O375  1  0.80878798  0.25041834  0.93742365  1
  O  O376  1  0.80871337  0.58298765  0.18756754  1
  O  O377  1  0.80513918  0.58325775  0.43850469  1
  O  O378  1  0.80577664  0.58310551  0.68892444  1
  O  O379  1  0.80813060  0.58345505  0.93767172  1
  O  O380  1  0.80590595  0.91680015  0.18815821  1
  O  O381  1  0.80623342  0.91635456  0.43849145  1
  O  O382  1  0.80753676  0.91644201  0.68785667  1
  O  O383  1  0.80796400  0.91624768  0.93709204  1
  O  O384  1  0.23168560  0.24948638  0.03987661  1
  O  O385  1  0.23484818  0.24928757  0.28803207  1
  O  O386  1  0.23191787  0.24966869  0.54010533  1
  O  O387  1  0.23444951  0.25029525  0.78675362  1
  O  O388  1  0.23314426  0.58388111  0.03716812  1
  O  O389  1  0.23512473  0.58357057  0.29174085  1
  O  O390  1  0.23642074  0.58311540  0.53805696  1
  O  O391  1  0.23498234  0.58338429  0.78703077  1
  O  O392  1  0.23179391  0.91675038  0.03868731  1
  O  O393  1  0.23360115  0.91672340  0.29074236  1
  O  O394  1  0.23457908  0.91701838  0.53852822  1
  O  O395  1  0.23398465  0.91572833  0.78923607  1
  O  O396  1  0.73332312  0.25036045  0.03758372  1
  O  O397  1  0.73583523  0.24972518  0.28892501  1
  O  O398  1  0.73381944  0.25012542  0.53772021  1
  O  O399  1  0.73544840  0.24979290  0.78802996  1
  O  O400  1  0.73245751  0.58323179  0.03752003  1
  O  O401  1  0.73423658  0.58389110  0.28831734  1
  O  O402  1  0.73069046  0.58386870  0.53922033  1
  O  O403  1  0.73142343  0.58371634  0.78932052  1
  O  O404  1  0.73238962  0.91631073  0.03703098  1
  O  O405  1  0.73333098  0.91773018  0.29047440  1
  O  O406  1  0.73242929  0.91639234  0.53951537  1
  O  O407  1  0.73304395  0.91685072  0.78820220  1
  O  O408  1  0.26682772  0.08237988  0.21287832  1
  O  O409  1  0.26498159  0.08381882  0.46005922  1
  O  O410  1  0.26475194  0.08296007  0.71196277  1
  O  O411  1  0.26485906  0.08343601  0.95845968  1
  O  O412  1  0.26551749  0.41692347  0.21242530  1
  O  O413  1  0.26496215  0.41574721  0.46173705  1
  O  O414  1  0.26581368  0.41712242  0.70931489  1
  O  O415  1  0.26599058  0.41630691  0.95878033  1
  O  O416  1  0.26877499  0.75093629  0.21105263  1
  O  O417  1  0.26727835  0.75013037  0.46099487  1
  O  O418  1  0.26861435  0.74926945  0.71013678  1
  O  O419  1  0.26786280  0.74982036  0.95961265  1
  O  O420  1  0.76788366  0.08347827  0.20938256  1
  O  O421  1  0.76739720  0.08337186  0.46241029  1
  O  O422  1  0.76786052  0.08312717  0.70994274  1
  O  O423  1  0.76507543  0.08348754  0.96159696  1
  O  O424  1  0.76571706  0.41625721  0.21192198  1
  O  O425  1  0.76439071  0.41696498  0.46145967  1
  O  O426  1  0.76443256  0.41695027  0.71077846  1
  O  O427  1  0.76523576  0.41682998  0.95871003  1
  O  O428  1  0.76499827  0.75026497  0.21152045  1
  O  O429  1  0.76543704  0.75030397  0.46190080  1
  O  O430  1  0.76375573  0.74995663  0.71182594  1
  O  O431  1  0.76476247  0.75015715  0.95870923  1
  O  O432  1  0.01573758  0.08387003  0.16531211  1
  O  O433  1  0.01554876  0.08337259  0.41325181  1
  O  O434  1  0.01312307  0.08376463  0.66351930  1
  O  O435  1  0.01552724  0.08291194  0.91300717  1
  O  O436  1  0.01587412  0.41664384  0.16495359  1
  O  O437  1  0.01773871  0.41591534  0.41495499  1
  O  O438  1  0.01751833  0.41641284  0.66477837  1
  O  O439  1  0.01558284  0.41693250  0.91478761  1
  O  O440  1  0.01648713  0.74900320  0.16478805  1
  O  O441  1  0.01556584  0.75018142  0.41627265  1
  O  O442  1  0.01410303  0.75024969  0.66326593  1
  O  O443  1  0.01578132  0.74982179  0.91480530  1
  O  O444  1  0.51720284  0.08344646  0.16540681  1
  O  O445  1  0.51578294  0.08306463  0.41283026  1
  O  O446  1  0.51913993  0.08411102  0.66421499  1
  O  O447  1  0.51696091  0.08347886  0.91429103  1
  O  O448  1  0.51634924  0.41580131  0.16517892  1
  O  O449  1  0.51828522  0.41718436  0.41478099  1
  O  O450  1  0.51881372  0.41625963  0.66397945  1
  O  O451  1  0.51813439  0.41720705  0.91428646  1
  O  O452  1  0.51430328  0.75022194  0.16281213  1
  O  O453  1  0.51694816  0.74995700  0.41325267  1
  O  O454  1  0.51860045  0.74987207  0.66480865  1
  O  O455  1  0.51639847  0.74936908  0.91276371  1
  O  O456  1  0.48281374  0.24952003  0.08503437  1
  O  O457  1  0.48524990  0.24996392  0.33765626  1
  O  O458  1  0.48371833  0.25001307  0.58407459  1
  O  O459  1  0.48523432  0.25055697  0.83681841  1
  O  O460  1  0.48385190  0.58328115  0.08418444  1
  O  O461  1  0.48366331  0.58355389  0.33684857  1
  O  O462  1  0.48411500  0.58330923  0.58700252  1
  O  O463  1  0.48417064  0.58325141  0.83671035  1
  O  O464  1  0.48391003  0.91736807  0.08375552  1
  O  O465  1  0.48346168  0.91621011  0.33756892  1
  O  O466  1  0.48655021  0.91667273  0.58626544  1
  O  O467  1  0.48585386  0.91657413  0.83599723  1
  O  O468  1  0.98183266  0.24973451  0.08526367  1
  O  O469  1  0.98328844  0.24993756  0.33729606  1
  O  O470  1  0.98184021  0.24962187  0.58514905  1
  O  O471  1  0.98260350  0.25002731  0.83764064  1
  O  O472  1  0.98286166  0.58319613  0.08511361  1
  O  O473  1  0.98373464  0.58277811  0.33543164  1
  O  O474  1  0.98466912  0.58272237  0.58731921  1
  O  O475  1  0.98358595  0.58361173  0.83683133  1
  O  O476  1  0.98539355  0.91672757  0.08699227  1
  O  O477  1  0.98422986  0.91674440  0.33404553  1
  O  O478  1  0.98053254  0.91696519  0.58586759  1
  O  O479  1  0.98235667  0.91686893  0.83760401  1
  O  O480  1  0.08581946  0.31476430  0.07655563  1
  O  O481  1  0.08717227  0.31452515  0.32845273  1
  O  O482  1  0.08572357  0.31553929  0.57745742  1
  O  O483  1  0.08672152  0.31380629  0.82769156  1
  O  O484  1  0.08689206  0.64830371  0.07598114  1
  O  O485  1  0.08730610  0.64777478  0.32748321  1
  O  O486  1  0.08811264  0.64781327  0.57784461  1
  O  O487  1  0.08735938  0.64885880  0.82645964  1
  O  O488  1  0.08908385  0.98145820  0.07745436  1
  O  O489  1  0.08772157  0.98299344  0.32761788  1
  O  O490  1  0.08437754  0.98179661  0.57743292  1
  O  O491  1  0.08581388  0.98227225  0.82774136  1
  O  O492  1  0.58743297  0.31317272  0.07689189  1
  O  O493  1  0.58841545  0.31589860  0.32856192  1
  O  O494  1  0.58826405  0.31446923  0.57716538  1
  O  O495  1  0.58865903  0.31607137  0.82848493  1
  O  O496  1  0.58767070  0.64837109  0.07658246  1
  O  O497  1  0.58697025  0.64883836  0.32802448  1
  O  O498  1  0.58755382  0.64875834  0.57754252  1
  O  O499  1  0.58774338  0.64832962  0.82760276  1
  O  O500  1  0.58766507  0.98338560  0.07778727  1
  O  O501  1  0.58703318  0.98088321  0.32759729  1
  O  O502  1  0.58999975  0.98231663  0.57768353  1
  O  O503  1  0.59020297  0.98032863  0.82708946  1
  O  O504  1  0.41279892  0.01938913  0.17336447  1
  O  O505  1  0.41267735  0.01703764  0.42237189  1
  O  O506  1  0.41523839  0.01953739  0.67274535  1
  O  O507  1  0.41348374  0.01811349  0.92289331  1
  O  O508  1  0.41279402  0.35017822  0.17198714  1
  O  O509  1  0.41455090  0.35225746  0.42343213  1
  O  O510  1  0.41519439  0.35073631  0.67220106  1
  O  O511  1  0.41409960  0.35280490  0.92257103  1
  O  O512  1  0.41048044  0.68558174  0.17206206  1
  O  O513  1  0.41332870  0.68526649  0.42180635  1
  O  O514  1  0.41461116  0.68450281  0.67302556  1
  O  O515  1  0.41271276  0.68383741  0.92172256  1
  O  O516  1  0.91185077  0.01891291  0.17305672  1
  O  O517  1  0.91137241  0.01920504  0.42273332  1
  O  O518  1  0.90976643  0.01802167  0.67216184  1
  O  O519  1  0.91199248  0.01783808  0.92207522  1
  O  O520  1  0.91211077  0.35185726  0.17163974  1
  O  O521  1  0.91365652  0.35106453  0.42271067  1
  O  O522  1  0.91381622  0.35079242  0.67222388  1
  O  O523  1  0.91161573  0.35243308  0.92169055  1
  O  O524  1  0.91264518  0.68365379  0.17162795  1
  O  O525  1  0.91154133  0.68493996  0.42374084  1
  O  O526  1  0.91052588  0.68545277  0.67239598  1
  O  O527  1  0.91205226  0.68451658  0.92191526  1
  O  O528  1  0.16329417  0.01701893  0.20395510  1
  O  O529  1  0.16058663  0.01975815  0.45212310  1
  O  O530  1  0.16120462  0.01785933  0.70261124  1
  O  O531  1  0.16066697  0.01857216  0.95223910  1
  O  O532  1  0.16198976  0.35179629  0.20310438  1
  O  O533  1  0.16142188  0.34989972  0.45308343  1
  O  O534  1  0.16122146  0.35320368  0.70153396  1
  O  O535  1  0.16217874  0.35120269  0.95296512  1
  O  O536  1  0.16530088  0.68576146  0.20225366  1
  O  O537  1  0.16378132  0.68487930  0.45229329  1
  O  O538  1  0.16490653  0.68366082  0.70205508  1
  O  O539  1  0.16400130  0.68490719  0.95193900  1
  O  O540  1  0.66345325  0.01897136  0.20157026  1
  O  O541  1  0.66377635  0.01838508  0.45311551  1
  O  O542  1  0.66382119  0.01790720  0.70202499  1
  O  O543  1  0.66147379  0.01875702  0.95349814  1
  O  O544  1  0.66230114  0.35138866  0.20297354  1
  O  O545  1  0.66096075  0.35153202  0.45277432  1
  O  O546  1  0.66058301  0.35275354  0.70217889  1
  O  O547  1  0.66156876  0.35131686  0.95223090  1
  O  O548  1  0.66134315  0.68554040  0.20270021  1
  O  O549  1  0.66165470  0.68514129  0.45239446  1
  O  O550  1  0.66015038  0.68491928  0.70291881  1
  O  O551  1  0.66100369  0.68477522  0.95224701  1
  O  O552  1  0.33576780  0.31471055  0.04817344  1
  O  O553  1  0.33838807  0.31391844  0.29774987  1
  O  O554  1  0.33610727  0.31470990  0.54905426  1
  O  O555  1  0.33787569  0.31535371  0.79696909  1
  O  O556  1  0.33710922  0.64861010  0.04587605  1
  O  O557  1  0.33892980  0.64938038  0.29756432  1
  O  O558  1  0.34048910  0.64754610  0.54807212  1
  O  O559  1  0.33871986  0.64890773  0.79690615  1
  O  O560  1  0.33544033  0.98147884  0.04755223  1
  O  O561  1  0.33756000  0.98196389  0.29857205  1
  O  O562  1  0.33797392  0.98236246  0.54776105  1
  O  O563  1  0.33766744  0.98076158  0.79768682  1
  O  O564  1  0.83689240  0.31557223  0.04753552  1
  O  O565  1  0.83995176  0.31364723  0.29827276  1
  O  O566  1  0.83739075  0.31503846  0.54801044  1
  O  O567  1  0.83914034  0.31429704  0.79761297  1
  O  O568  1  0.83612448  0.64842115  0.04787323  1
  O  O569  1  0.83795564  0.64832981  0.29725075  1
  O  O570  1  0.83445168  0.64913824  0.54785257  1
  O  O571  1  0.83565818  0.64805813  0.79858142  1
  O  O572  1  0.83614276  0.98111996  0.04713206  1
  O  O573  1  0.83705773  0.98294762  0.29683155  1
  O  O574  1  0.83653836  0.98115117  0.54790950  1
  O  O575  1  0.83660461  0.98257022  0.79755679  1
  O  O576  1  0.41342032  0.14939966  0.17279495  1
  O  O577  1  0.41197303  0.14725085  0.42247272  1
  O  O578  1  0.41525940  0.14970429  0.67195744  1
  O  O579  1  0.41307297  0.14819456  0.92260156  1
  O  O580  1  0.41255447  0.48046484  0.17229232  1
  O  O581  1  0.41456447  0.48234921  0.42282595  1
  O  O582  1  0.41499142  0.48094071  0.67239418  1
  O  O583  1  0.41449997  0.48286100  0.92221786  1
  O  O584  1  0.41094767  0.81567284  0.17221946  1
  O  O585  1  0.41371186  0.81549633  0.42247030  1
  O  O586  1  0.41454908  0.81449146  0.67359904  1
  O  O587  1  0.41251641  0.81387518  0.92265952  1
  O  O588  1  0.91172717  0.14896321  0.17208106  1
  O  O589  1  0.91190310  0.14909967  0.42207558  1
  O  O590  1  0.90923186  0.14828105  0.67146546  1
  O  O591  1  0.91194286  0.14806697  0.92153705  1
  O  O592  1  0.91238733  0.48226722  0.17179200  1
  O  O593  1  0.91400539  0.48100689  0.42369955  1
  O  O594  1  0.91339495  0.48088207  0.67293438  1
  O  O595  1  0.91219308  0.48276231  0.92180368  1
  O  O596  1  0.91281709  0.81394749  0.17243721  1
  O  O597  1  0.91122559  0.81481973  0.42326405  1
  O  O598  1  0.91057770  0.81569494  0.67181475  1
  O  O599  1  0.91207046  0.81491807  0.92238851  1
  O  O600  1  0.08590455  0.18491774  0.07661791  1
  O  O601  1  0.08651217  0.18431796  0.32800595  1
  O  O602  1  0.08605535  0.18564367  0.57668691  1
  O  O603  1  0.08551245  0.18368887  0.82757905  1
  O  O604  1  0.08695233  0.51841897  0.07641485  1
  O  O605  1  0.08740516  0.51740948  0.32839471  1
  O  O606  1  0.08843192  0.51764199  0.57918047  1
  O  O607  1  0.08775986  0.51890824  0.82691273  1
  O  O608  1  0.08897973  0.85140988  0.07709803  1
  O  O609  1  0.08876803  0.85287979  0.32707084  1
  O  O610  1  0.08452695  0.85183019  0.57707232  1
  O  O611  1  0.08594567  0.85208408  0.82703531  1
  O  O612  1  0.58644888  0.18330435  0.07737792  1
  O  O613  1  0.58885687  0.18559974  0.32761149  1
  O  O614  1  0.58778116  0.18444212  0.57643660  1
  O  O615  1  0.58891306  0.18610308  0.82750650  1
  O  O616  1  0.58799235  0.51844867  0.07706265  1
  O  O617  1  0.58733844  0.51855158  0.32843081  1
  O  O618  1  0.58804606  0.51862649  0.57793067  1
  O  O619  1  0.58805956  0.51833499  0.82788150  1
  O  O620  1  0.58817575  0.85331193  0.07670130  1
  O  O621  1  0.58681038  0.85071550  0.32820963  1
  O  O622  1  0.59034482  0.85203722  0.57818730  1
  O  O623  1  0.58905295  0.85031349  0.82808683  1
  O  O624  1  0.33590974  0.18475286  0.04801117  1
  O  O625  1  0.33826247  0.18373803  0.29707215  1
  O  O626  1  0.33612981  0.18491490  0.54892958  1
  O  O627  1  0.33793864  0.18513541  0.79705199  1
  O  O628  1  0.33635510  0.51847588  0.04698167  1
  O  O629  1  0.33936925  0.51929969  0.29882087  1
  O  O630  1  0.33978075  0.51758170  0.54817653  1
  O  O631  1  0.33880698  0.51888945  0.79781372  1
  O  O632  1  0.33566180  0.85139600  0.04680313  1
  O  O633  1  0.33788317  0.85204120  0.29812939  1
  O  O634  1  0.33854748  0.85233512  0.54771008  1
  O  O635  1  0.33787135  0.85054093  0.79659153  1
  O  O636  1  0.83730517  0.18572762  0.04752070  1
  O  O637  1  0.83911167  0.18355617  0.29690161  1
  O  O638  1  0.83774604  0.18501345  0.54687625  1
  O  O639  1  0.83878952  0.18412866  0.79663505  1
  O  O640  1  0.83637940  0.51856065  0.04781477  1
  O  O641  1  0.83728314  0.51818123  0.29784152  1
  O  O642  1  0.83451622  0.51907111  0.54836138  1
  O  O643  1  0.83522175  0.51821037  0.79858136  1
  O  O644  1  0.83588753  0.85123563  0.04732991  1
  O  O645  1  0.83694521  0.85281691  0.29766857  1
  O  O646  1  0.83598967  0.85106131  0.54821179  1
  O  O647  1  0.83701268  0.85258559  0.79821942  1
  O  O648  1  0.16323155  0.14706893  0.20269802  1
  O  O649  1  0.16141889  0.14981615  0.45243275  1
  O  O650  1  0.16116898  0.14803032  0.70267147  1
  O  O651  1  0.16090852  0.14871960  0.95197208  1
  O  O652  1  0.16206625  0.48198026  0.20340822  1
  O  O653  1  0.16101143  0.48007276  0.45251825  1
  O  O654  1  0.16235977  0.48328271  0.70208661  1
  O  O655  1  0.16235177  0.48160189  0.95278269  1
  O  O656  1  0.16478332  0.81587531  0.20319483  1
  O  O657  1  0.16338884  0.81502579  0.45270656  1
  O  O658  1  0.16433870  0.81375360  0.70173190  1
  O  O659  1  0.16400534  0.81502127  0.95211431  1
  O  O660  1  0.66403408  0.14864810  0.20121520  1
  O  O661  1  0.66398225  0.14855810  0.45260009  1
  O  O662  1  0.66401747  0.14777855  0.70101686  1
  O  O663  1  0.66203016  0.14911881  0.95308237  1
  O  O664  1  0.66225169  0.48144866  0.20277097  1
  O  O665  1  0.66051366  0.48184980  0.45301751  1
  O  O666  1  0.66083602  0.48281465  0.70306115  1
  O  O667  1  0.66108583  0.48142936  0.95256567  1
  O  O668  1  0.66154212  0.81553257  0.20300311  1
  O  O669  1  0.66164909  0.81527242  0.45294062  1
  O  O670  1  0.66027711  0.81508556  0.70331153  1
  O  O671  1  0.66062634  0.81482141  0.95231520  1
