# generated using pymatgen
data_Na2MnFe(PO4)2
_symmetry_space_group_name_H-M   'P 1'
_cell_length_a   21.09010990
_cell_length_b   18.94329478
_cell_length_c   20.04844557
_cell_angle_alpha   89.99983500
_cell_angle_beta   89.99867798
_cell_angle_gamma   89.99905754
_symmetry_Int_Tables_number   1
_chemical_formula_structural   Na2MnFe(PO4)2
_chemical_formula_sum   'Na96 Mn48 Fe48 P96 O384'
_cell_volume   8009.67816070
_cell_formula_units_Z   48
loop_
 _symmetry_equiv_pos_site_id
 _symmetry_equiv_pos_as_xyz
  1  'x, y, z'
loop_
 _atom_site_type_symbol
 _atom_site_label
 _atom_site_symmetry_multiplicity
 _atom_site_fract_x
 _atom_site_fract_y
 _atom_site_fract_z
 _atom_site_occupancy
  Na  Na0  1  0.00068571  0.00088562  -0.00034680  1
  Na  Na1  1  -0.00155860  -0.00078164  0.25075648  1
  Na  Na2  1  -0.00122097  -0.00015491  0.50016841  1
  Na  Na3  1  -0.00062720  0.00034050  0.74974445  1
  Na  Na4  1  -0.00159854  0.33265691  0.00006673  1
  Na  Na5  1  -0.00071168  0.33253618  0.24959328  1
  Na  Na6  1  0.00042237  0.33266222  0.49932443  1
  Na  Na7  1  -0.00200961  0.33192633  0.75121560  1
  Na  Na8  1  0.00288246  0.66708583  -0.00021757  1
  Na  Na9  1  0.00269579  0.66731808  0.25095766  1
  Na  Na10  1  0.00203090  0.66718986  0.49997189  1
  Na  Na11  1  0.00156250  0.66686360  0.74969252  1
  Na  Na12  1  0.49912391  0.00116487  0.00017220  1
  Na  Na13  1  0.49975722  0.00109794  0.25025504  1
  Na  Na14  1  0.49729127  0.00000360  0.49983070  1
  Na  Na15  1  0.49662332  -0.00006843  0.74899737  1
  Na  Na16  1  0.49971915  0.33290971  -0.00088273  1
  Na  Na17  1  0.50033996  0.33395954  0.24930789  1
  Na  Na18  1  0.49758067  0.33252475  0.50123668  1
  Na  Na19  1  0.49864746  0.33268637  0.74992387  1
  Na  Na20  1  0.49940345  0.66657358  0.00071335  1
  Na  Na21  1  0.49947418  0.66625528  0.25027991  1
  Na  Na22  1  0.49982087  0.66649488  0.49923717  1
  Na  Na23  1  0.49972797  0.66683621  0.74985097  1
  Na  Na24  1  0.25111062  0.00084731  0.12390517  1
  Na  Na25  1  0.25159422  0.00118509  0.37605940  1
  Na  Na26  1  0.25102529  0.00099111  0.62621351  1
  Na  Na27  1  0.25103445  0.00077042  0.87398343  1
  Na  Na28  1  0.24939014  0.33277909  0.12464387  1
  Na  Na29  1  0.24784963  0.33213200  0.37487953  1
  Na  Na30  1  0.25217985  0.33422258  0.62527840  1
  Na  Na31  1  0.25244646  0.33359264  0.87470620  1
  Na  Na32  1  0.24999557  0.66663920  0.12500377  1
  Na  Na33  1  0.24866000  0.66675194  0.37503193  1
  Na  Na34  1  0.24710842  0.66594621  0.62444930  1
  Na  Na35  1  0.24910826  0.66632812  0.87575507  1
  Na  Na36  1  0.74884715  0.00009148  0.12477913  1
  Na  Na37  1  0.75206105  0.00031748  0.37545142  1
  Na  Na38  1  0.75337204  0.00139283  0.62548472  1
  Na  Na39  1  0.74912633  0.00045877  0.87463041  1
  Na  Na40  1  0.75137668  0.33297453  0.12511710  1
  Na  Na41  1  0.75218158  0.33337637  0.37508377  1
  Na  Na42  1  0.75275106  0.33301751  0.62479070  1
  Na  Na43  1  0.75194105  0.33282453  0.87444893  1
  Na  Na44  1  0.74750812  0.66525684  0.12377244  1
  Na  Na45  1  0.75047905  0.66740995  0.37556407  1
  Na  Na46  1  0.74914172  0.66650690  0.62534721  1
  Na  Na47  1  0.75028651  0.66701524  0.87551929  1
  Na  Na48  1  0.00047885  0.16712242  -0.00024429  1
  Na  Na49  1  -0.00028297  0.16752002  0.25054212  1
  Na  Na50  1  -0.00013770  0.16696745  0.49976838  1
  Na  Na51  1  -0.00038406  0.16686050  0.75026059  1
  Na  Na52  1  -0.00160500  0.50002327  -0.00025707  1
  Na  Na53  1  0.00045247  0.49989532  0.24951971  1
  Na  Na54  1  0.00189975  0.49864071  0.49952187  1
  Na  Na55  1  -0.00214449  0.50060462  0.75106646  1
  Na  Na56  1  0.00212994  0.83250767  -0.00015873  1
  Na  Na57  1  0.00007126  0.83336159  0.25114862  1
  Na  Na58  1  0.00053324  0.83351569  0.50018234  1
  Na  Na59  1  0.00186508  0.83275304  0.74955358  1
  Na  Na60  1  0.50156726  0.16616759  -0.00076056  1
  Na  Na61  1  0.50053442  0.16639138  0.24977150  1
  Na  Na62  1  0.49768838  0.16712299  0.50067423  1
  Na  Na63  1  0.49877099  0.16710516  0.74949672  1
  Na  Na64  1  0.49675301  0.50068022  0.00044082  1
  Na  Na65  1  0.49804936  0.50047662  0.24928239  1
  Na  Na66  1  0.49854959  0.50004808  0.50094037  1
  Na  Na67  1  0.49687071  0.50046465  0.74922569  1
  Na  Na68  1  0.49907245  0.83379805  0.00032546  1
  Na  Na69  1  0.49998354  0.83306076  0.25075576  1
  Na  Na70  1  0.49967007  0.83293480  0.49903047  1
  Na  Na71  1  0.49885739  0.83401281  0.75007836  1
  Na  Na72  1  0.24973844  0.16698861  0.12377641  1
  Na  Na73  1  0.24962214  0.16626031  0.37621009  1
  Na  Na74  1  0.25018228  0.16644887  0.62583948  1
  Na  Na75  1  0.25088042  0.16660756  0.87382369  1
  Na  Na76  1  0.25099356  0.49983629  0.12582896  1
  Na  Na77  1  0.25061199  0.49970834  0.37395538  1
  Na  Na78  1  0.25079850  0.49989972  0.62453271  1
  Na  Na79  1  0.25245891  0.49921623  0.87566673  1
  Na  Na80  1  0.24961701  0.83336402  0.12407418  1
  Na  Na81  1  0.24823951  0.83342627  0.37561279  1
  Na  Na82  1  0.24844118  0.83366110  0.62593735  1
  Na  Na83  1  0.24995628  0.83306843  0.87483437  1
  Na  Na84  1  0.74887590  0.16728272  0.12442935  1
  Na  Na85  1  0.75297807  0.16633444  0.37470277  1
  Na  Na86  1  0.75163436  0.16674078  0.62529583  1
  Na  Na87  1  0.74877840  0.16726155  0.87493190  1
  Na  Na88  1  0.75179942  0.49921650  0.12414047  1
  Na  Na89  1  0.74981638  0.50031873  0.37563327  1
  Na  Na90  1  0.75177270  0.49937559  0.62548076  1
  Na  Na91  1  0.75307079  0.49864950  0.87523774  1
  Na  Na92  1  0.74810911  0.83350828  0.12478624  1
  Na  Na93  1  0.75174422  0.83275517  0.37594003  1
  Na  Na94  1  0.75150214  0.83332959  0.62478406  1
  Na  Na95  1  0.74982455  0.83331643  0.87448978  1
  Mn  Mn96  1  0.64234129  0.91626326  0.24838112  1
  Mn  Mn97  1  0.35739036  0.74981127  0.75205674  1
  Mn  Mn98  1  0.10812327  0.41601427  0.62318699  1
  Mn  Mn99  1  0.85730254  0.08333692  0.00208977  1
  Mn  Mn100  1  0.10836951  0.08307651  0.12272017  1
  Mn  Mn101  1  0.60692016  0.75042044  0.87234047  1
  Mn  Mn102  1  0.10743060  0.41644746  0.87300094  1
  Mn  Mn103  1  0.64294917  0.25075847  0.24825170  1
  Mn  Mn104  1  0.14296743  0.58305114  0.24749200  1
  Mn  Mn105  1  0.89270350  0.58375965  0.12762906  1
  Mn  Mn106  1  0.89222257  0.91641307  0.12705941  1
  Mn  Mn107  1  0.35733231  0.74984354  0.00249572  1
  Mn  Mn108  1  0.60713081  0.08273680  0.62269076  1
  Mn  Mn109  1  0.35634770  0.75020009  0.50264363  1
  Mn  Mn110  1  0.39120200  0.91612028  0.37752313  1
  Mn  Mn111  1  0.14213692  0.58215615  0.74844446  1
  Mn  Mn112  1  0.64302536  0.91730234  0.49855722  1
  Mn  Mn113  1  0.85783533  0.08346354  0.25180600  1
  Mn  Mn114  1  0.85830657  0.74978957  0.00272396  1
  Mn  Mn115  1  0.64184699  0.58201441  0.99716461  1
  Mn  Mn116  1  0.35747110  0.41595554  0.25282801  1
  Mn  Mn117  1  0.89308997  0.58316908  0.62737436  1
  Mn  Mn118  1  0.89267689  0.91634824  0.87758131  1
  Mn  Mn119  1  0.14251626  0.91711322  0.74783894  1
  Mn  Mn120  1  0.64176423  0.91733375  0.74700314  1
  Mn  Mn121  1  0.60802257  0.41677435  0.12238293  1
  Mn  Mn122  1  0.85790293  0.74911071  0.25147810  1
  Mn  Mn123  1  0.60753956  0.41663147  0.37326632  1
  Mn  Mn124  1  0.85933114  0.41699631  0.50242424  1
  Mn  Mn125  1  0.64223060  0.58318009  0.49798738  1
  Mn  Mn126  1  0.14277205  0.25061587  0.74804042  1
  Mn  Mn127  1  0.39090109  0.25089760  0.37727135  1
  Mn  Mn128  1  0.60724564  0.41645959  0.87253051  1
  Mn  Mn129  1  0.39123407  0.58409288  0.62695549  1
  Mn  Mn130  1  0.14204843  0.91761588  0.24791688  1
  Mn  Mn131  1  0.85828286  0.74979607  0.75220023  1
  Mn  Mn132  1  0.60795357  0.74956960  0.37282290  1
  Mn  Mn133  1  0.60740534  0.41688594  0.62317998  1
  Mn  Mn134  1  0.89276236  0.58351748  0.37714589  1
  Mn  Mn135  1  0.10733972  0.41686921  0.12215559  1
  Mn  Mn136  1  0.60777607  0.08368629  0.37374981  1
  Mn  Mn137  1  0.14262033  0.91730002  0.99713654  1
  Mn  Mn138  1  0.64272996  0.24980276  0.49827087  1
  Mn  Mn139  1  0.64105288  0.91716431  0.99726535  1
  Mn  Mn140  1  0.64227413  0.58239856  0.74851156  1
  Mn  Mn141  1  0.10787919  0.08318219  0.37283229  1
  Mn  Mn142  1  0.39207881  0.91630814  0.12789794  1
  Mn  Mn143  1  0.39221298  0.25009464  0.12688807  1
  Fe  Fe144  1  0.14265093  0.25013117  0.49911707  1
  Fe  Fe145  1  0.14340139  0.58213096  0.99837650  1
  Fe  Fe146  1  0.35799386  0.41662664  0.75215864  1
  Fe  Fe147  1  0.35709541  0.75073200  0.25184913  1
  Fe  Fe148  1  0.39254058  0.58395264  0.12698981  1
  Fe  Fe149  1  0.39154185  0.24951163  0.62702967  1
  Fe  Fe150  1  0.60720219  0.75058904  0.62353594  1
  Fe  Fe151  1  0.10731845  0.75059747  0.62279096  1
  Fe  Fe152  1  0.89281734  0.91658700  0.37736676  1
  Fe  Fe153  1  0.14224129  0.24939304  0.24807447  1
  Fe  Fe154  1  0.14274332  0.25030228  0.99782731  1
  Fe  Fe155  1  0.35703300  0.41601048  0.00159901  1
  Fe  Fe156  1  0.14222512  0.91728878  0.49879241  1
  Fe  Fe157  1  0.89377289  0.91690820  0.62685020  1
  Fe  Fe158  1  0.85756917  0.41740684  0.25173564  1
  Fe  Fe159  1  0.10754754  0.75013788  0.87338372  1
  Fe  Fe160  1  0.89332290  0.24930542  0.62683773  1
  Fe  Fe161  1  0.14244074  0.58255175  0.49786275  1
  Fe  Fe162  1  0.35764776  0.08340772  0.25135442  1
  Fe  Fe163  1  0.85874000  0.08307527  0.50239042  1
  Fe  Fe164  1  0.10693614  0.75004248  0.37330150  1
  Fe  Fe165  1  0.39331717  0.24974695  0.87724846  1
  Fe  Fe166  1  0.60656881  0.75019457  0.12387827  1
  Fe  Fe167  1  0.60617859  0.08355211  0.87261354  1
  Fe  Fe168  1  0.39235680  0.58341724  0.37669781  1
  Fe  Fe169  1  0.64339627  0.25010436  0.74818794  1
  Fe  Fe170  1  0.35735478  0.08425236  0.00118908  1
  Fe  Fe171  1  0.64310841  0.25038361  0.99794072  1
  Fe  Fe172  1  0.89301457  0.58360922  0.87698909  1
  Fe  Fe173  1  0.10756517  0.08345794  0.87317926  1
  Fe  Fe174  1  0.85763255  0.08388243  0.75241413  1
  Fe  Fe175  1  0.85829155  0.75012510  0.50239972  1
  Fe  Fe176  1  0.39177112  0.58368003  0.87718932  1
  Fe  Fe177  1  0.10695189  0.08322735  0.62349007  1
  Fe  Fe178  1  0.10786992  0.41653174  0.37312653  1
  Fe  Fe179  1  0.89257093  0.24964824  0.87743204  1
  Fe  Fe180  1  0.60711501  0.08317693  0.12316937  1
  Fe  Fe181  1  0.35634364  0.08374690  0.50209392  1
  Fe  Fe182  1  0.10849291  0.75005627  0.12366843  1
  Fe  Fe183  1  0.85740331  0.41624333  0.00179953  1
  Fe  Fe184  1  0.89382990  0.24979984  0.37682839  1
  Fe  Fe185  1  0.85791347  0.41612297  0.75192371  1
  Fe  Fe186  1  0.39158417  0.91634961  0.62613868  1
  Fe  Fe187  1  0.39244590  0.91695949  0.87673670  1
  Fe  Fe188  1  0.35619136  0.41630553  0.50104979  1
  Fe  Fe189  1  0.35703609  0.08395840  0.75226801  1
  Fe  Fe190  1  0.64218831  0.58287246  0.24843251  1
  Fe  Fe191  1  0.89284646  0.24947247  0.12653642  1
  P  P192  1  0.05408707  0.24994365  0.11019624  1
  P  P193  1  0.05484913  0.25048603  0.36077583  1
  P  P194  1  0.05296914  0.24909795  0.61007534  1
  P  P195  1  0.05363911  0.24957797  0.86126497  1
  P  P196  1  0.05455941  0.58373384  0.10948635  1
  P  P197  1  0.05532420  0.58305080  0.36111893  1
  P  P198  1  0.05443297  0.58322407  0.60957105  1
  P  P199  1  0.05358319  0.58315036  0.86150287  1
  P  P200  1  0.05365724  0.91624296  0.10996098  1
  P  P201  1  0.05340415  0.91629881  0.36172631  1
  P  P202  1  0.05327903  0.91758071  0.61018052  1
  P  P203  1  0.05385671  0.91717302  0.85961767  1
  P  P204  1  0.55434204  0.24963871  0.10914948  1
  P  P205  1  0.55263350  0.25010218  0.36022496  1
  P  P206  1  0.55288359  0.24980419  0.61142843  1
  P  P207  1  0.55416844  0.24950532  0.86025862  1
  P  P208  1  0.55329221  0.58387929  0.11115155  1
  P  P209  1  0.55243251  0.58265772  0.35947210  1
  P  P210  1  0.55308833  0.58418832  0.61023609  1
  P  P211  1  0.55109165  0.58260157  0.86008660  1
  P  P212  1  0.55313137  0.91668166  0.11048341  1
  P  P213  1  0.55304629  0.91713378  0.36043195  1
  P  P214  1  0.55146917  0.91639955  0.60965642  1
  P  P215  1  0.55151311  0.91827183  0.85969089  1
  P  P216  1  0.44617004  0.08395417  0.13914005  1
  P  P217  1  0.44402686  0.08376669  0.38999061  1
  P  P218  1  0.44354552  0.08326607  0.63911011  1
  P  P219  1  0.44550728  0.08395002  0.88896032  1
  P  P220  1  0.44502877  0.41691312  0.13852831  1
  P  P221  1  0.44560361  0.41753649  0.39100066  1
  P  P222  1  0.44379416  0.41586528  0.63921997  1
  P  P223  1  0.44451789  0.41631945  0.88941455  1
  P  P224  1  0.44664566  0.74942545  0.14062296  1
  P  P225  1  0.44494951  0.74904185  0.38911685  1
  P  P226  1  0.44719144  0.75085804  0.63957825  1
  P  P227  1  0.44592525  0.75013655  0.89025256  1
  P  P228  1  0.94706836  0.08415096  0.13986767  1
  P  P229  1  0.94617598  0.08351895  0.39031091  1
  P  P230  1  0.94625078  0.08345008  0.63949953  1
  P  P231  1  0.94674752  0.08417276  0.88889600  1
  P  P232  1  0.94473678  0.41568114  0.13932911  1
  P  P233  1  0.94737102  0.41615876  0.38831977  1
  P  P234  1  0.94688565  0.41538085  0.64092488  1
  P  P235  1  0.94449618  0.41617049  0.88951070  1
  P  P236  1  0.94909562  0.74974836  0.14033687  1
  P  P237  1  0.94709758  0.75023581  0.39056159  1
  P  P238  1  0.94740128  0.75070874  0.63880089  1
  P  P239  1  0.94815175  0.74933209  0.88990194  1
  P  P240  1  0.19809670  0.08401939  0.23499827  1
  P  P241  1  0.19586318  0.08339810  0.48724671  1
  P  P242  1  0.19582919  0.08374554  0.73565866  1
  P  P243  1  0.19732989  0.08440917  0.98373454  1
  P  P244  1  0.19522084  0.41558643  0.23584648  1
  P  P245  1  0.19681448  0.41624071  0.48471039  1
  P  P246  1  0.19859789  0.41648730  0.73533786  1
  P  P247  1  0.19767994  0.41654069  0.98514883  1
  P  P248  1  0.19632040  0.75030366  0.23562255  1
  P  P249  1  0.19383344  0.75051389  0.48588176  1
  P  P250  1  0.19444286  0.74972647  0.73558763  1
  P  P251  1  0.19494500  0.74896284  0.98557799  1
  P  P252  1  0.69612951  0.08357785  0.23461713  1
  P  P253  1  0.69891416  0.08344514  0.48547719  1
  P  P254  1  0.69641412  0.08452803  0.73601234  1
  P  P255  1  0.69417044  0.08441644  0.98501517  1
  P  P256  1  0.69794619  0.41747645  0.23507730  1
  P  P257  1  0.69742205  0.41617419  0.48529035  1
  P  P258  1  0.69814658  0.41530567  0.73535676  1
  P  P259  1  0.69789570  0.41538113  0.98459140  1
  P  P260  1  0.69604897  0.74877736  0.23443222  1
  P  P261  1  0.69697407  0.75066151  0.48650964  1
  P  P262  1  0.69600747  0.75004049  0.73434857  1
  P  P263  1  0.69510933  0.74987743  0.98570376  1
  P  P264  1  0.30359072  0.24976249  0.01318789  1
  P  P265  1  0.30168710  0.24889273  0.26477562  1
  P  P266  1  0.30217789  0.25021746  0.51553193  1
  P  P267  1  0.30557657  0.24991881  0.76447370  1
  P  P268  1  0.30415553  0.58253567  0.01479492  1
  P  P269  1  0.30534329  0.58452835  0.26442176  1
  P  P270  1  0.30249889  0.58280198  0.51318850  1
  P  P271  1  0.30370102  0.58304576  0.76571768  1
  P  P272  1  0.30496567  0.91783040  0.01337320  1
  P  P273  1  0.30300070  0.91676230  0.26493643  1
  P  P274  1  0.30177816  0.91710025  0.51592972  1
  P  P275  1  0.30507007  0.91730209  0.76442294  1
  P  P276  1  0.80421151  0.25017133  0.01427878  1
  P  P277  1  0.80595887  0.25102021  0.26428719  1
  P  P278  1  0.80628421  0.24918289  0.51455461  1
  P  P279  1  0.80502302  0.24938353  0.76430709  1
  P  P280  1  0.80486051  0.58260522  0.01378923  1
  P  P281  1  0.80216990  0.58271910  0.26494536  1
  P  P282  1  0.80398428  0.58439665  0.51535663  1
  P  P283  1  0.80443366  0.58275951  0.76577737  1
  P  P284  1  0.80271042  0.91678848  0.01500154  1
  P  P285  1  0.80412084  0.91616340  0.26581930  1
  P  P286  1  0.80630051  0.91668297  0.51485381  1
  P  P287  1  0.80488908  0.91759701  0.76384522  1
  O  O288  1  0.05882611  0.24976513  0.18691000  1
  O  O289  1  0.05969586  0.24992354  0.43746743  1
  O  O290  1  0.05671538  0.24986960  0.68676114  1
  O  O291  1  0.05889794  0.25040509  0.93791543  1
  O  O292  1  0.05764473  0.58285460  0.18602412  1
  O  O293  1  0.05904409  0.58236475  0.43801966  1
  O  O294  1  0.05681741  0.58226325  0.68637261  1
  O  O295  1  0.05875235  0.58187279  0.93812968  1
  O  O296  1  0.05626681  0.91706577  0.18671779  1
  O  O297  1  0.05829885  0.91747120  0.43836173  1
  O  O298  1  0.05681503  0.91770020  0.68639884  1
  O  O299  1  0.05672285  0.91755854  0.93674017  1
  O  O300  1  0.55740744  0.25066192  0.18594302  1
  O  O301  1  0.55598201  0.24989853  0.43700029  1
  O  O302  1  0.55853444  0.25000289  0.68802451  1
  O  O303  1  0.55911899  0.25047858  0.93687508  1
  O  O304  1  0.55816578  0.58256020  0.18779757  1
  O  O305  1  0.55657203  0.58267852  0.43617067  1
  O  O306  1  0.55634941  0.58313057  0.68700045  1
  O  O307  1  0.55522210  0.58202555  0.93675882  1
  O  O308  1  0.55613540  0.91689250  0.18723547  1
  O  O309  1  0.55663546  0.91726371  0.43716117  1
  O  O310  1  0.55529810  0.91743994  0.68638217  1
  O  O311  1  0.55514439  0.91792201  0.93633926  1
  O  O312  1  0.44121847  0.08434493  0.06248638  1
  O  O313  1  0.44015924  0.08394412  0.31316246  1
  O  O314  1  0.43930413  0.08373946  0.56230360  1
  O  O315  1  0.44116749  0.08408490  0.81224183  1
  O  O316  1  0.44056475  0.41585156  0.06183021  1
  O  O317  1  0.44293060  0.41631557  0.31408121  1
  O  O318  1  0.43933992  0.41634959  0.56251163  1
  O  O319  1  0.44115118  0.41636931  0.81257019  1
  O  O320  1  0.44285812  0.75007029  0.06426256  1
  O  O321  1  0.44081744  0.75012213  0.31238758  1
  O  O322  1  0.44318512  0.75007183  0.56294944  1
  O  O323  1  0.44324226  0.74990205  0.81327778  1
  O  O324  1  0.94394147  0.08392784  0.06309979  1
  O  O325  1  0.94336500  0.08340379  0.31360283  1
  O  O326  1  0.94231186  0.08363806  0.56274744  1
  O  O327  1  0.94199166  0.08383784  0.81227268  1
  O  O328  1  0.94073089  0.41632136  0.06252515  1
  O  O329  1  0.94251511  0.41722739  0.31174588  1
  O  O330  1  0.94472726  0.41619927  0.56404239  1
  O  O331  1  0.94083119  0.41606814  0.81271333  1
  O  O332  1  0.94502455  0.74951105  0.06365079  1
  O  O333  1  0.94345413  0.74941911  0.31392393  1
  O  O334  1  0.94276070  0.74997874  0.56213061  1
  O  O335  1  0.94438909  0.74963999  0.81324673  1
  O  O336  1  0.19363824  0.08371914  0.06041621  1
  O  O337  1  0.19415662  0.08328869  0.31172149  1
  O  O338  1  0.19123570  0.08318721  0.56386245  1
  O  O339  1  0.19084555  0.08365388  0.81234394  1
  O  O340  1  0.19388962  0.41656170  0.06181985  1
  O  O341  1  0.19119221  0.41627502  0.31259490  1
  O  O342  1  0.19392505  0.41653805  0.56146137  1
  O  O343  1  0.19412063  0.41627320  0.81193761  1
  O  O344  1  0.19130249  0.74995287  0.06245667  1
  O  O345  1  0.19119150  0.75033573  0.31231217  1
  O  O346  1  0.19013965  0.75062527  0.56278346  1
  O  O347  1  0.19048945  0.74992704  0.81240529  1
  O  O348  1  0.69007337  0.08340173  0.06177804  1
  O  O349  1  0.69345530  0.08361928  0.31143210  1
  O  O350  1  0.69425794  0.08342455  0.56215527  1
  O  O351  1  0.69083167  0.08355843  0.81260479  1
  O  O352  1  0.69400070  0.41617560  0.06127138  1
  O  O353  1  0.69416930  0.41684563  0.31174439  1
  O  O354  1  0.69375983  0.41595419  0.56203886  1
  O  O355  1  0.69393709  0.41583314  0.81199532  1
  O  O356  1  0.69011364  0.74990472  0.06240839  1
  O  O357  1  0.69357917  0.74972931  0.31129506  1
  O  O358  1  0.69140739  0.75081488  0.56310531  1
  O  O359  1  0.69249924  0.75040779  0.81118232  1
  O  O360  1  0.30561067  0.24977684  0.18810988  1
  O  O361  1  0.30513361  0.24996289  0.43883003  1
  O  O362  1  0.30871823  0.24969755  0.68767027  1
  O  O363  1  0.30845593  0.24968002  0.93658365  1
  O  O364  1  0.30929951  0.58400045  0.18754901  1
  O  O365  1  0.30731129  0.58365699  0.43662351  1
  O  O366  1  0.30614867  0.58426324  0.68885900  1
  O  O367  1  0.30858474  0.58367517  0.93804424  1
  O  O368  1  0.30572508  0.91636635  0.18812005  1
  O  O369  1  0.30546118  0.91620137  0.43924125  1
  O  O370  1  0.30871162  0.91617484  0.68760047  1
  O  O371  1  0.30880875  0.91698744  0.93665983  1
  O  O372  1  0.80934949  0.24967094  0.18750271  1
  O  O373  1  0.81049085  0.24995642  0.43778815  1
  O  O374  1  0.80963171  0.24914416  0.68762704  1
  O  O375  1  0.80872360  0.24908746  0.93754510  1
  O  O376  1  0.80606595  0.58340840  0.18824752  1
  O  O377  1  0.80713426  0.58408645  0.43858344  1
  O  O378  1  0.80744586  0.58373391  0.68898817  1
  O  O379  1  0.80952452  0.58399279  0.93710150  1
  O  O380  1  0.80674039  0.91626590  0.18899668  1
  O  O381  1  0.81001085  0.91641958  0.43803658  1
  O  O382  1  0.80983209  0.91692645  0.68713224  1
  O  O383  1  0.80643731  0.91674772  0.93819523  1
  O  O384  1  0.23327384  0.24995272  0.03706708  1
  O  O385  1  0.23177593  0.24907709  0.28962658  1
  O  O386  1  0.23215847  0.25023781  0.54058351  1
  O  O387  1  0.23561773  0.24990465  0.78902417  1
  O  O388  1  0.23378226  0.58286475  0.03859612  1
  O  O389  1  0.23539023  0.58341306  0.28829675  1
  O  O390  1  0.23215744  0.58301705  0.53704908  1
  O  O391  1  0.23415976  0.58283744  0.79121925  1
  O  O392  1  0.23484851  0.91743569  0.03782546  1
  O  O393  1  0.23357283  0.91724372  0.29083771  1
  O  O394  1  0.23170952  0.91714673  0.54046321  1
  O  O395  1  0.23522694  0.91694290  0.78869385  1
  O  O396  1  0.73387212  0.24993718  0.03794680  1
  O  O397  1  0.73604503  0.25027044  0.28898673  1
  O  O398  1  0.73627349  0.24994942  0.53883146  1
  O  O399  1  0.73464166  0.24966820  0.78807015  1
  O  O400  1  0.73474889  0.58210908  0.03756064  1
  O  O401  1  0.73228395  0.58328193  0.28988333  1
  O  O402  1  0.73438588  0.58332286  0.54061150  1
  O  O403  1  0.73468734  0.58287833  0.79096784  1
  O  O404  1  0.73293648  0.91702163  0.03952430  1
  O  O405  1  0.73450575  0.91632338  0.29122590  1
  O  O406  1  0.73635638  0.91720878  0.53945040  1
  O  O407  1  0.73470341  0.91728269  0.78757533  1
  O  O408  1  0.26797466  0.08387261  0.21008096  1
  O  O409  1  0.26622009  0.08369177  0.46336411  1
  O  O410  1  0.26643627  0.08402522  0.71284595  1
  O  O411  1  0.26739120  0.08397398  0.95933820  1
  O  O412  1  0.26526885  0.41623564  0.21161963  1
  O  O413  1  0.26675940  0.41598785  0.45953351  1
  O  O414  1  0.26867697  0.41662182  0.71124404  1
  O  O415  1  0.26774565  0.41628425  0.96069750  1
  O  O416  1  0.26670891  0.75002065  0.21202098  1
  O  O417  1  0.26385495  0.75025665  0.46165090  1
  O  O418  1  0.26455585  0.74976978  0.71143473  1
  O  O419  1  0.26477304  0.74974300  0.96137237  1
  O  O420  1  0.76582758  0.08364975  0.20940101  1
  O  O421  1  0.76912328  0.08317135  0.46163285  1
  O  O422  1  0.76694110  0.08441808  0.71293363  1
  O  O423  1  0.76429721  0.08385333  0.96101870  1
  O  O424  1  0.76789179  0.41669201  0.21028190  1
  O  O425  1  0.76726580  0.41663153  0.46067333  1
  O  O426  1  0.76837706  0.41564220  0.71128506  1
  O  O427  1  0.76799470  0.41565663  0.96035721  1
  O  O428  1  0.76558817  0.74928948  0.20875378  1
  O  O429  1  0.76743880  0.75057518  0.46325324  1
  O  O430  1  0.76596015  0.74993460  0.71007930  1
  O  O431  1  0.76528813  0.75004726  0.96200056  1
  O  O432  1  0.01659284  0.08367869  0.16547391  1
  O  O433  1  0.01595698  0.08347257  0.41539731  1
  O  O434  1  0.01658585  0.08339101  0.66351917  1
  O  O435  1  0.01705290  0.08399743  0.91278161  1
  O  O436  1  0.01482415  0.41641613  0.16323863  1
  O  O437  1  0.01763879  0.41586114  0.41232785  1
  O  O438  1  0.01636502  0.41605192  0.66678732  1
  O  O439  1  0.01451782  0.41593989  0.91398146  1
  O  O440  1  0.01909477  0.74991885  0.16490260  1
  O  O441  1  0.01730148  0.74995957  0.41477118  1
  O  O442  1  0.01779342  0.75040910  0.66243690  1
  O  O443  1  0.01831343  0.74993436  0.91420431  1
  O  O444  1  0.51660018  0.08374585  0.16256017  1
  O  O445  1  0.51397002  0.08357181  0.41444865  1
  O  O446  1  0.51367010  0.08335089  0.66311801  1
  O  O447  1  0.51583729  0.08406404  0.91277289  1
  O  O448  1  0.51504965  0.41696082  0.16260775  1
  O  O449  1  0.51506573  0.41656568  0.41658766  1
  O  O450  1  0.51388829  0.41666728  0.66333055  1
  O  O451  1  0.51442886  0.41646637  0.91412908  1
  O  O452  1  0.51674930  0.74981862  0.16525451  1
  O  O453  1  0.51496999  0.74935110  0.41326092  1
  O  O454  1  0.51706787  0.75065673  0.66450731  1
  O  O455  1  0.51546576  0.75024524  0.91575660  1
  O  O456  1  0.48455593  0.24991068  0.08421252  1
  O  O457  1  0.48299241  0.25028963  0.33501098  1
  O  O458  1  0.48225200  0.24937942  0.58861231  1
  O  O459  1  0.48358886  0.24977639  0.83720543  1
  O  O460  1  0.48286929  0.58371516  0.08756978  1
  O  O461  1  0.48226218  0.58319878  0.33544250  1
  O  O462  1  0.48329743  0.58380456  0.58527330  1
  O  O463  1  0.48096246  0.58304987  0.83591210  1
  O  O464  1  0.48348198  0.91703564  0.08519206  1
  O  O465  1  0.48328489  0.91712045  0.33563696  1
  O  O466  1  0.48142450  0.91666520  0.58507599  1
  O  O467  1  0.48140823  0.91762675  0.83530221  1
  O  O468  1  0.98369665  0.25004447  0.08674972  1
  O  O469  1  0.98437853  0.24987101  0.33744237  1
  O  O470  1  0.98290603  0.24938239  0.58564755  1
  O  O471  1  0.98319826  0.24982615  0.83804665  1
  O  O472  1  0.98475039  0.58328568  0.08456379  1
  O  O473  1  0.98548247  0.58369354  0.33635498  1
  O  O474  1  0.98484590  0.58280500  0.58404560  1
  O  O475  1  0.98326993  0.58323637  0.83778673  1
  O  O476  1  0.98430586  0.91654066  0.08399134  1
  O  O477  1  0.98306356  0.91640893  0.33813137  1
  O  O478  1  0.98310024  0.91733630  0.58552969  1
  O  O479  1  0.98434272  0.91663549  0.83433570  1
  O  O480  1  0.08743261  0.31492471  0.07670279  1
  O  O481  1  0.08789565  0.31543850  0.32723641  1
  O  O482  1  0.08698013  0.31397411  0.57704160  1
  O  O483  1  0.08674890  0.31457697  0.82748532  1
  O  O484  1  0.08881027  0.64885548  0.07745993  1
  O  O485  1  0.08924325  0.64836358  0.32903764  1
  O  O486  1  0.08862460  0.64841912  0.57770443  1
  O  O487  1  0.08699891  0.64824220  0.82868549  1
  O  O488  1  0.08814301  0.98123432  0.07750729  1
  O  O489  1  0.08656790  0.98121055  0.32787652  1
  O  O490  1  0.08684673  0.98276113  0.57694836  1
  O  O491  1  0.08765472  0.98240686  0.82741667  1
  O  O492  1  0.58864755  0.31445736  0.07618092  1
  O  O493  1  0.58679658  0.31516294  0.32780313  1
  O  O494  1  0.58563987  0.31493277  0.57777119  1
  O  O495  1  0.58749345  0.31431364  0.82632620  1
  O  O496  1  0.58637121  0.64922352  0.07840330  1
  O  O497  1  0.58672397  0.64743183  0.32671867  1
  O  O498  1  0.58679280  0.64955165  0.57810236  1
  O  O499  1  0.58515996  0.64758512  0.82773420  1
  O  O500  1  0.58723893  0.98169058  0.07792014  1
  O  O501  1  0.58701886  0.98211099  0.32787990  1
  O  O502  1  0.58534330  0.98142735  0.57676389  1
  O  O503  1  0.58494011  0.98340446  0.82672175  1
  O  O504  1  0.41264967  0.01907145  0.17253359  1
  O  O505  1  0.40986787  0.01888415  0.42282382  1
  O  O506  1  0.40999960  0.01799199  0.67173401  1
  O  O507  1  0.41199143  0.01904112  0.92219934  1
  O  O508  1  0.41170505  0.35189550  0.17211147  1
  O  O509  1  0.41044215  0.35300104  0.42342577  1
  O  O510  1  0.41066827  0.35062738  0.67235519  1
  O  O511  1  0.41091144  0.35094731  0.92211412  1
  O  O512  1  0.41274435  0.68435462  0.17328038  1
  O  O513  1  0.41157068  0.68375098  0.42184997  1
  O  O514  1  0.41310815  0.68589812  0.67244654  1
  O  O515  1  0.41186163  0.68504683  0.92252449  1
  O  O516  1  0.91265332  0.01919586  0.17209324  1
  O  O517  1  0.91198622  0.01858104  0.42288004  1
  O  O518  1  0.91260943  0.01845034  0.67248688  1
  O  O519  1  0.91338121  0.01918642  0.92227075  1
  O  O520  1  0.91153256  0.35036206  0.17200118  1
  O  O521  1  0.91389956  0.35106681  0.42129077  1
  O  O522  1  0.91277860  0.34999936  0.67261883  1
  O  O523  1  0.91070783  0.35107825  0.92239263  1
  O  O524  1  0.91549640  0.68466796  0.17331663  1
  O  O525  1  0.91323863  0.68536717  0.42378718  1
  O  O526  1  0.91427054  0.68573594  0.67239427  1
  O  O527  1  0.91473031  0.68428991  0.92285760  1
  O  O528  1  0.16433305  0.01896527  0.20209900  1
  O  O529  1  0.16293352  0.01832644  0.45349689  1
  O  O530  1  0.16283552  0.01885939  0.70206566  1
  O  O531  1  0.16321322  0.01942320  0.95081575  1
  O  O532  1  0.16204159  0.35024471  0.20311552  1
  O  O533  1  0.16262388  0.35102784  0.45265302  1
  O  O534  1  0.16506862  0.35148047  0.70222014  1
  O  O535  1  0.16381059  0.35163296  0.95222450  1
  O  O536  1  0.16286887  0.68546345  0.20222354  1
  O  O537  1  0.16008081  0.68555433  0.45294818  1
  O  O538  1  0.16080735  0.68467169  0.70278726  1
  O  O539  1  0.16159589  0.68349375  0.95315401  1
  O  O540  1  0.66189682  0.01852621  0.20227194  1
  O  O541  1  0.66515055  0.01849359  0.45262289  1
  O  O542  1  0.66336240  0.01962425  0.70197199  1
  O  O543  1  0.66009652  0.01986038  0.95136606  1
  O  O544  1  0.66377294  0.35262427  0.20220296  1
  O  O545  1  0.66383231  0.35106787  0.45248859  1
  O  O546  1  0.66461242  0.35019543  0.70250468  1
  O  O547  1  0.66431716  0.35020445  0.95201189  1
  O  O548  1  0.66182413  0.68349573  0.20264367  1
  O  O549  1  0.66373541  0.68558414  0.45305932  1
  O  O550  1  0.66186756  0.68491295  0.70220700  1
  O  O551  1  0.66185793  0.68467275  0.95256879  1
  O  O552  1  0.33692932  0.31469074  0.04668519  1
  O  O553  1  0.33538960  0.31400133  0.29779736  1
  O  O554  1  0.33632852  0.31532984  0.54768618  1
  O  O555  1  0.33942098  0.31490781  0.79719091  1
  O  O556  1  0.33767428  0.64732745  0.04839486  1
  O  O557  1  0.33830550  0.64982383  0.29747237  1
  O  O558  1  0.33560520  0.64767556  0.54723811  1
  O  O559  1  0.33780312  0.64805687  0.79847309  1
  O  O560  1  0.33813353  0.98333065  0.04583868  1
  O  O561  1  0.33748542  0.98188349  0.29665315  1
  O  O562  1  0.33598326  0.98203643  0.54821298  1
  O  O563  1  0.33860424  0.98275542  0.79676812  1
  O  O564  1  0.83771046  0.31529956  0.04707083  1
  O  O565  1  0.83944335  0.31647569  0.29667499  1
  O  O566  1  0.84055366  0.31381322  0.54779818  1
  O  O567  1  0.83862224  0.31436539  0.79743343  1
  O  O568  1  0.83794002  0.64750083  0.04778263  1
  O  O569  1  0.83643200  0.64760362  0.29762575  1
  O  O570  1  0.83764610  0.64966419  0.54781551  1
  O  O571  1  0.83874354  0.64766840  0.79852610  1
  O  O572  1  0.83665133  0.98191529  0.04738507  1
  O  O573  1  0.83863255  0.98112032  0.29803947  1
  O  O574  1  0.84037621  0.98170132  0.54755392  1
  O  O575  1  0.83808093  0.98294402  0.79674503  1
  O  O576  1  0.41298531  0.14891880  0.17276887  1
  O  O577  1  0.41017442  0.14869442  0.42304528  1
  O  O578  1  0.40993173  0.14812823  0.67257155  1
  O  O579  1  0.41223469  0.14908315  0.92246232  1
  O  O580  1  0.41129711  0.48199167  0.17110882  1
  O  O581  1  0.41156541  0.48300942  0.42262048  1
  O  O582  1  0.40972056  0.48073093  0.67230279  1
  O  O583  1  0.41034785  0.48112492  0.92220670  1
  O  O584  1  0.41253167  0.81431280  0.17383323  1
  O  O585  1  0.41120481  0.81386135  0.42252074  1
  O  O586  1  0.41316994  0.81591406  0.67198651  1
  O  O587  1  0.41179490  0.81534132  0.92212806  1
  O  O588  1  0.91314735  0.14940071  0.17205046  1
  O  O589  1  0.91226274  0.14871445  0.42272025  1
  O  O590  1  0.91284749  0.14849402  0.67279616  1
  O  O591  1  0.91338047  0.14920354  0.92215215  1
  O  O592  1  0.91080845  0.48045886  0.17275264  1
  O  O593  1  0.91433823  0.48115130  0.42218429  1
  O  O594  1  0.91188674  0.48006762  0.67313100  1
  O  O595  1  0.91091349  0.48128712  0.92232843  1
  O  O596  1  0.91504704  0.81469725  0.17279901  1
  O  O597  1  0.91337134  0.81532829  0.42322272  1
  O  O598  1  0.91437592  0.81589080  0.67193444  1
  O  O599  1  0.91436084  0.81434906  0.92280386  1
  O  O600  1  0.08764812  0.18507600  0.07683246  1
  O  O601  1  0.08820676  0.18545656  0.32718066  1
  O  O602  1  0.08676293  0.18403083  0.57743416  1
  O  O603  1  0.08676513  0.18456749  0.82794919  1
  O  O604  1  0.08875935  0.51883987  0.07629591  1
  O  O605  1  0.08868504  0.51803669  0.32799462  1
  O  O606  1  0.08899568  0.51832606  0.57709941  1
  O  O607  1  0.08649442  0.51809699  0.82754124  1
  O  O608  1  0.08814696  0.85112923  0.07821124  1
  O  O609  1  0.08665737  0.85108882  0.32883819  1
  O  O610  1  0.08732994  0.85268036  0.57714966  1
  O  O611  1  0.08832224  0.85211517  0.82800923  1
  O  O612  1  0.58830612  0.18440841  0.07706959  1
  O  O613  1  0.58678801  0.18510202  0.32786809  1
  O  O614  1  0.58604128  0.18483023  0.57777456  1
  O  O615  1  0.58724977  0.18431560  0.82695213  1
  O  O616  1  0.58647837  0.51902610  0.07708527  1
  O  O617  1  0.58581768  0.51746528  0.32644780  1
  O  O618  1  0.58712081  0.51917328  0.57758432  1
  O  O619  1  0.58458126  0.51756953  0.82686236  1
  O  O620  1  0.58677255  0.85125040  0.07822709  1
  O  O621  1  0.58697598  0.85192486  0.32811825  1
  O  O622  1  0.58543410  0.85126518  0.57749541  1
  O  O623  1  0.58557507  0.85333081  0.82702991  1
  O  O624  1  0.33670292  0.18454909  0.04647133  1
  O  O625  1  0.33558243  0.18396686  0.29726041  1
  O  O626  1  0.33629358  0.18537060  0.54836630  1
  O  O627  1  0.33934024  0.18486525  0.79741577  1
  O  O628  1  0.33750270  0.51722711  0.04742038  1
  O  O629  1  0.33951306  0.51970052  0.29742480  1
  O  O630  1  0.33569880  0.51761265  0.54610703  1
  O  O631  1  0.33826897  0.51801485  0.79742098  1
  O  O632  1  0.33843464  0.85304316  0.04678578  1
  O  O633  1  0.33685965  0.85150757  0.29738921  1
  O  O634  1  0.33561297  0.85212022  0.54899172  1
  O  O635  1  0.33902552  0.85254332  0.79774875  1
  O  O636  1  0.83773395  0.18539126  0.04799790  1
  O  O637  1  0.84031106  0.18650186  0.29762412  1
  O  O638  1  0.83950973  0.18385614  0.54755979  1
  O  O639  1  0.83826022  0.18436922  0.79801308  1
  O  O640  1  0.83845264  0.51728557  0.04617810  1
  O  O641  1  0.83608785  0.51754993  0.29743696  1
  O  O642  1  0.83866250  0.51945633  0.54744159  1
  O  O643  1  0.83869462  0.51752910  0.79749665  1
  O  O644  1  0.83666109  0.85178798  0.04764385  1
  O  O645  1  0.83842944  0.85109255  0.29798848  1
  O  O646  1  0.83994108  0.85155090  0.54785226  1
  O  O647  1  0.83826886  0.85252784  0.79715322  1
  O  O648  1  0.16403827  0.14898473  0.20252477  1
  O  O649  1  0.16263678  0.14851017  0.45403454  1
  O  O650  1  0.16249087  0.14868545  0.70225119  1
  O  O651  1  0.16343219  0.14943947  0.95114738  1
  O  O652  1  0.16163450  0.48043506  0.20266781  1
  O  O653  1  0.16276986  0.48107302  0.45175801  1
  O  O654  1  0.16486118  0.48138543  0.70247002  1
  O  O655  1  0.16422265  0.48178197  0.95234936  1
  O  O656  1  0.16313415  0.81540897  0.20226073  1
  O  O657  1  0.16043722  0.81584141  0.45311678  1
  O  O658  1  0.16079918  0.81460419  0.70248206  1
  O  O659  1  0.16079755  0.81373499  0.95223874  1
  O  O660  1  0.66187557  0.14854593  0.20223325  1
  O  O661  1  0.66543459  0.14853350  0.45249148  1
  O  O662  1  0.66337399  0.14975017  0.70278450  1
  O  O663  1  0.66097801  0.14986384  0.95229382  1
  O  O664  1  0.66435761  0.48272308  0.20238965  1
  O  O665  1  0.66323507  0.48118320  0.45292572  1
  O  O666  1  0.66439377  0.48038713  0.70253329  1
  O  O667  1  0.66401170  0.48023575  0.95147506  1
  O  O668  1  0.66122236  0.81360380  0.20213004  1
  O  O669  1  0.66391807  0.81563544  0.45284249  1
  O  O670  1  0.66200824  0.81500334  0.70150219  1
  O  O671  1  0.66170437  0.81492646  0.95237728  1
