# generated using pymatgen
data_Na2MnFe(PO4)2
_symmetry_space_group_name_H-M   'P 1'
_cell_length_a   21.08889715
_cell_length_b   18.94156549
_cell_length_c   20.04794333
_cell_angle_alpha   89.99995265
_cell_angle_beta   89.99720671
_cell_angle_gamma   89.99903248
_symmetry_Int_Tables_number   1
_chemical_formula_structural   Na2MnFe(PO4)2
_chemical_formula_sum   'Na96 Mn48 Fe48 P96 O384'
_cell_volume   8008.28580837
_cell_formula_units_Z   48
loop_
 _symmetry_equiv_pos_site_id
 _symmetry_equiv_pos_as_xyz
  1  'x, y, z'
loop_
 _atom_site_type_symbol
 _atom_site_label
 _atom_site_symmetry_multiplicity
 _atom_site_fract_x
 _atom_site_fract_y
 _atom_site_fract_z
 _atom_site_occupancy
  Na  Na0  1  0.00004197  -0.00051576  -0.00054094  1
  Na  Na1  1  0.00105068  -0.00000422  0.25132894  1
  Na  Na2  1  0.00087126  -0.00052591  0.50026573  1
  Na  Na3  1  0.00094062  -0.00026116  0.74921262  1
  Na  Na4  1  0.00006543  0.33342663  -0.00122492  1
  Na  Na5  1  0.00231089  0.33459854  0.25082311  1
  Na  Na6  1  0.00293599  0.33389831  0.50086333  1
  Na  Na7  1  0.00060202  0.33323251  0.74945740  1
  Na  Na8  1  -0.00121569  0.66641247  -0.00053659  1
  Na  Na9  1  -0.00060148  0.66642275  0.25129911  1
  Na  Na10  1  0.00066964  0.66708035  0.50070360  1
  Na  Na11  1  0.00007328  0.66725466  0.74849453  1
  Na  Na12  1  0.49930986  -0.00003026  -0.00057585  1
  Na  Na13  1  0.50058700  -0.00047367  0.25121623  1
  Na  Na14  1  0.50103736  -0.00030417  0.50012646  1
  Na  Na15  1  0.49750453  -0.00118413  0.74931972  1
  Na  Na16  1  0.49846323  0.33298564  -0.00086346  1
  Na  Na17  1  0.49898314  0.33276531  0.25042978  1
  Na  Na18  1  0.50049415  0.33345133  0.50036067  1
  Na  Na19  1  0.50124586  0.33477370  0.74969902  1
  Na  Na20  1  0.49989687  0.66671005  -0.00030421  1
  Na  Na21  1  0.50228991  0.66698496  0.25008848  1
  Na  Na22  1  0.50139585  0.66684912  0.50016667  1
  Na  Na23  1  0.49805267  0.66593770  0.74993508  1
  Na  Na24  1  0.25149136  -0.00017288  0.12427348  1
  Na  Na25  1  0.25060772  -0.00006650  0.37509759  1
  Na  Na26  1  0.24980389  -0.00090663  0.62516424  1
  Na  Na27  1  0.25169961  -0.00011271  0.87535197  1
  Na  Na28  1  0.25041605  0.33403721  0.12606944  1
  Na  Na29  1  0.24782380  0.33307793  0.37451851  1
  Na  Na30  1  0.24886920  0.33330364  0.62461959  1
  Na  Na31  1  0.25047339  0.33330103  0.87487137  1
  Na  Na32  1  0.24923592  0.66623217  0.12497497  1
  Na  Na33  1  0.24886573  0.66669727  0.37576781  1
  Na  Na34  1  0.24987460  0.66634834  0.62433444  1
  Na  Na35  1  0.25252093  0.66739694  0.87479597  1
  Na  Na36  1  0.74836006  -0.00008477  0.12416347  1
  Na  Na37  1  0.74632846  -0.00133428  0.37511820  1
  Na  Na38  1  0.74936085  -0.00044188  0.62513923  1
  Na  Na39  1  0.75070446  -0.00020734  0.87556304  1
  Na  Na40  1  0.75014038  0.33374992  0.12416704  1
  Na  Na41  1  0.74816881  0.33300545  0.37579854  1
  Na  Na42  1  0.74804631  0.33316329  0.62551128  1
  Na  Na43  1  0.74932011  0.33323771  0.87472104  1
  Na  Na44  1  0.74931245  0.66617688  0.12503470  1
  Na  Na45  1  0.74978037  0.66705682  0.37502804  1
  Na  Na46  1  0.74838011  0.66622127  0.62453270  1
  Na  Na47  1  0.75129753  0.66701107  0.87548717  1
  Na  Na48  1  0.00082653  0.16643005  -0.00028590  1
  Na  Na49  1  0.00034783  0.16719123  0.25131567  1
  Na  Na50  1  0.00259518  0.16598564  0.50069184  1
  Na  Na51  1  0.00127038  0.16647042  0.74904257  1
  Na  Na52  1  -0.00173357  0.50026158  -0.00121075  1
  Na  Na53  1  -0.00013352  0.50084367  0.25089691  1
  Na  Na54  1  0.00201444  0.49937376  0.50087368  1
  Na  Na55  1  -0.00077784  0.50011039  0.74964155  1
  Na  Na56  1  0.00086725  0.83318007  -0.00040188  1
  Na  Na57  1  0.00157080  0.83236974  0.25107371  1
  Na  Na58  1  0.00089371  0.83324169  0.50051979  1
  Na  Na59  1  0.00069599  0.83352836  0.74848605  1
  Na  Na60  1  0.49926428  0.16606123  -0.00168334  1
  Na  Na61  1  0.49998895  0.16627590  0.25111554  1
  Na  Na62  1  0.50117223  0.16626659  0.50030662  1
  Na  Na63  1  0.49867019  0.16745698  0.74954270  1
  Na  Na64  1  0.49956726  0.49967092  0.00061979  1
  Na  Na65  1  0.50014009  0.50048228  0.24957464  1
  Na  Na66  1  0.50037758  0.50037866  0.49995268  1
  Na  Na67  1  0.49745047  0.50063934  0.74988682  1
  Na  Na68  1  0.49865337  0.83428809  -0.00065566  1
  Na  Na69  1  0.50273345  0.83271786  0.25126877  1
  Na  Na70  1  0.50182716  0.83292188  0.50037432  1
  Na  Na71  1  0.50000712  0.83295194  0.74936301  1
  Na  Na72  1  0.25115147  0.16630239  0.12455674  1
  Na  Na73  1  0.24957649  0.16670265  0.37525403  1
  Na  Na74  1  0.24928854  0.16696967  0.62507015  1
  Na  Na75  1  0.25045508  0.16662694  0.87495358  1
  Na  Na76  1  0.25044790  0.49985180  0.12550049  1
  Na  Na77  1  0.24964723  0.50018891  0.37589236  1
  Na  Na78  1  0.24992867  0.50075576  0.62436721  1
  Na  Na79  1  0.25333916  0.49895939  0.87451769  1
  Na  Na80  1  0.24976133  0.83335067  0.12524556  1
  Na  Na81  1  0.24781368  0.83382154  0.37438945  1
  Na  Na82  1  0.24941462  0.83344691  0.62467675  1
  Na  Na83  1  0.25105507  0.83324890  0.87545612  1
  Na  Na84  1  0.74835719  0.16701414  0.12456909  1
  Na  Na85  1  0.74841931  0.16621204  0.37452660  1
  Na  Na86  1  0.74756621  0.16763076  0.62524727  1
  Na  Na87  1  0.75023805  0.16671353  0.87584588  1
  Na  Na88  1  0.75026433  0.50084876  0.12428615  1
  Na  Na89  1  0.74930793  0.50075595  0.37549251  1
  Na  Na90  1  0.74917512  0.50012261  0.62484797  1
  Na  Na91  1  0.75138358  0.49936133  0.87475767  1
  Na  Na92  1  0.74821534  0.83383849  0.12463936  1
  Na  Na93  1  0.74735963  0.83357597  0.37563531  1
  Na  Na94  1  0.74874303  0.83374353  0.62522666  1
  Na  Na95  1  0.75011929  0.83361262  0.87501521  1
  Mn  Mn96  1  0.85695661  0.08304419  0.50214274  1
  Mn  Mn97  1  0.85716202  0.08308642  0.25180085  1
  Mn  Mn98  1  0.60719215  0.08346823  0.87163866  1
  Mn  Mn99  1  0.89157624  0.91626288  0.37740832  1
  Mn  Mn100  1  0.85820428  0.08344554  0.00260105  1
  Mn  Mn101  1  0.60696777  0.74950585  0.87226317  1
  Mn  Mn102  1  0.85716675  0.75059829  0.25212505  1
  Mn  Mn103  1  0.14262991  0.91717092  0.24746739  1
  Mn  Mn104  1  0.10804084  0.08310985  0.87229889  1
  Mn  Mn105  1  0.35770510  0.75026108  0.50181470  1
  Mn  Mn106  1  0.35838751  0.08397069  0.00287801  1
  Mn  Mn107  1  0.89285086  0.25022666  0.12777384  1
  Mn  Mn108  1  0.89246890  0.58338589  0.62670767  1
  Mn  Mn109  1  0.85799469  0.08396192  0.75165509  1
  Mn  Mn110  1  0.10789005  0.74991968  0.87218156  1
  Mn  Mn111  1  0.14264529  0.25030975  0.99815879  1
  Mn  Mn112  1  0.39239230  0.25038535  0.37794292  1
  Mn  Mn113  1  0.64244092  0.58303488  0.99742583  1
  Mn  Mn114  1  0.35744005  0.41677481  0.25254799  1
  Mn  Mn115  1  0.85826627  0.75035820  0.00236344  1
  Mn  Mn116  1  0.14316627  0.58343645  0.74815105  1
  Mn  Mn117  1  0.35779508  0.08328015  0.50237963  1
  Mn  Mn118  1  0.35826952  0.74941025  0.00310293  1
  Mn  Mn119  1  0.64137040  0.25034990  0.99764726  1
  Mn  Mn120  1  0.14270254  0.91661184  0.99798796  1
  Mn  Mn121  1  0.10840016  0.08308870  0.37241970  1
  Mn  Mn122  1  0.89264080  0.91649935  0.12806606  1
  Mn  Mn123  1  0.60730605  0.41591298  0.12248682  1
  Mn  Mn124  1  0.85800693  0.41643609  0.00192771  1
  Mn  Mn125  1  0.60694624  0.08334750  0.62332696  1
  Mn  Mn126  1  0.85829503  0.41644560  0.25232658  1
  Mn  Mn127  1  0.60793929  0.41707698  0.37243203  1
  Mn  Mn128  1  0.89235256  0.25045693  0.37789000  1
  Mn  Mn129  1  0.35823048  0.75006370  0.25253270  1
  Mn  Mn130  1  0.89258319  0.24943412  0.62678517  1
  Mn  Mn131  1  0.14249293  0.24930838  0.24731966  1
  Mn  Mn132  1  0.64148888  0.25019294  0.24678839  1
  Mn  Mn133  1  0.14205778  0.58292132  0.99756312  1
  Mn  Mn134  1  0.10795420  0.41690495  0.87231732  1
  Mn  Mn135  1  0.85755044  0.74981472  0.75140274  1
  Mn  Mn136  1  0.39179821  0.25041834  0.87654952  1
  Mn  Mn137  1  0.64169937  0.58325378  0.74791425  1
  Mn  Mn138  1  0.14156678  0.58360989  0.24800712  1
  Mn  Mn139  1  0.39262081  0.58400849  0.12810375  1
  Mn  Mn140  1  0.64150161  0.91671723  0.99745669  1
  Mn  Mn141  1  0.39341672  0.91559265  0.37748107  1
  Mn  Mn142  1  0.85742270  0.41651385  0.50264067  1
  Mn  Mn143  1  0.35715281  0.41659623  0.50219345  1
  Fe  Fe144  1  0.64322854  0.58344917  0.24808387  1
  Fe  Fe145  1  0.10820298  0.75014059  0.62289504  1
  Fe  Fe146  1  0.35759608  0.41630399  0.75101031  1
  Fe  Fe147  1  0.39237917  0.25039282  0.62696935  1
  Fe  Fe148  1  0.64225663  0.91710831  0.74809071  1
  Fe  Fe149  1  0.10649861  0.74930846  0.37366899  1
  Fe  Fe150  1  0.85699799  0.41616813  0.75109788  1
  Fe  Fe151  1  0.60739242  0.08315751  0.37294076  1
  Fe  Fe152  1  0.89244025  0.58351097  0.37737744  1
  Fe  Fe153  1  0.10822945  0.41692853  0.62379763  1
  Fe  Fe154  1  0.39232123  0.91591896  0.87592459  1
  Fe  Fe155  1  0.35755223  0.75025383  0.75060854  1
  Fe  Fe156  1  0.14303351  0.24995380  0.49856871  1
  Fe  Fe157  1  0.10741904  0.41722659  0.12271047  1
  Fe  Fe158  1  0.60722689  0.75047149  0.12297095  1
  Fe  Fe159  1  0.39251312  0.58339579  0.87685133  1
  Fe  Fe160  1  0.14273917  0.91654582  0.49850400  1
  Fe  Fe161  1  0.60812122  0.74971269  0.37323402  1
  Fe  Fe162  1  0.64235700  0.91668251  0.49924768  1
  Fe  Fe163  1  0.10705360  0.41766495  0.37367055  1
  Fe  Fe164  1  0.39257140  0.24923151  0.12698710  1
  Fe  Fe165  1  0.39236517  0.91618209  0.62690813  1
  Fe  Fe166  1  0.85640665  0.75036046  0.50166287  1
  Fe  Fe167  1  0.10834861  0.08331197  0.12362798  1
  Fe  Fe168  1  0.89311181  0.91683034  0.62637484  1
  Fe  Fe169  1  0.14275402  0.24980110  0.74832163  1
  Fe  Fe170  1  0.14309220  0.91668479  0.74811926  1
  Fe  Fe171  1  0.60658084  0.41699522  0.87284952  1
  Fe  Fe172  1  0.89278000  0.91686690  0.87569204  1
  Fe  Fe173  1  0.60681454  0.74943685  0.62375492  1
  Fe  Fe174  1  0.64192994  0.91637047  0.24735457  1
  Fe  Fe175  1  0.64200590  0.58354553  0.49802705  1
  Fe  Fe176  1  0.60615101  0.08317330  0.12349632  1
  Fe  Fe177  1  0.39342751  0.91695826  0.12709180  1
  Fe  Fe178  1  0.39353081  0.58377157  0.37649290  1
  Fe  Fe179  1  0.35772389  0.41653970  0.00199798  1
  Fe  Fe180  1  0.14268980  0.58357660  0.49812874  1
  Fe  Fe181  1  0.64243289  0.24981676  0.74847215  1
  Fe  Fe182  1  0.39240890  0.58342638  0.62587774  1
  Fe  Fe183  1  0.64164163  0.24989337  0.49866175  1
  Fe  Fe184  1  0.89234944  0.58349548  0.87596974  1
  Fe  Fe185  1  0.60677224  0.41741042  0.62402283  1
  Fe  Fe186  1  0.10846785  0.08293313  0.62345434  1
  Fe  Fe187  1  0.10729134  0.74968087  0.12349379  1
  Fe  Fe188  1  0.35820607  0.08314434  0.25145556  1
  Fe  Fe189  1  0.89314491  0.58346121  0.12707071  1
  Fe  Fe190  1  0.89258317  0.24972357  0.87591016  1
  Fe  Fe191  1  0.35653926  0.08316383  0.75061829  1
  P  P192  1  0.05378480  0.25028909  0.11005092  1
  P  P193  1  0.05519638  0.25095927  0.36163275  1
  P  P194  1  0.05609793  0.24989610  0.61111615  1
  P  P195  1  0.05319229  0.25002696  0.85907431  1
  P  P196  1  0.05233644  0.58343748  0.10998288  1
  P  P197  1  0.05335984  0.58374507  0.36209616  1
  P  P198  1  0.05484908  0.58335389  0.61000550  1
  P  P199  1  0.05188993  0.58340769  0.85943819  1
  P  P200  1  0.05380357  0.91655373  0.11025714  1
  P  P201  1  0.05469467  0.91541963  0.36161137  1
  P  P202  1  0.05509231  0.91672281  0.61079681  1
  P  P203  1  0.05313294  0.91654757  0.85891646  1
  P  P204  1  0.55128678  0.24877351  0.10965129  1
  P  P205  1  0.55459459  0.24946337  0.36126485  1
  P  P206  1  0.55359130  0.25084915  0.61123513  1
  P  P207  1  0.55341117  0.25107064  0.85896331  1
  P  P208  1  0.55479285  0.58409083  0.11102439  1
  P  P209  1  0.55460204  0.58412782  0.36049547  1
  P  P210  1  0.55263870  0.58328896  0.61006377  1
  P  P211  1  0.55166291  0.58232157  0.86011753  1
  P  P212  1  0.55323019  0.91687006  0.11113828  1
  P  P213  1  0.55622318  0.91635791  0.36142022  1
  P  P214  1  0.55360409  0.91599654  0.61115136  1
  P  P215  1  0.55222449  0.91653750  0.85887033  1
  P  P216  1  0.44724271  0.08315262  0.14080729  1
  P  P217  1  0.44713907  0.08285991  0.38939468  1
  P  P218  1  0.44548381  0.08336272  0.64016639  1
  P  P219  1  0.44445439  0.08248112  0.88775984  1
  P  P220  1  0.44538376  0.41568617  0.13915204  1
  P  P221  1  0.44660002  0.41791876  0.39017474  1
  P  P222  1  0.44672016  0.41678778  0.63979018  1
  P  P223  1  0.44528655  0.41729279  0.88904608  1
  P  P224  1  0.44835590  0.75101281  0.14050677  1
  P  P225  1  0.44858232  0.74905564  0.39008416  1
  P  P226  1  0.44690601  0.74985983  0.63967880  1
  P  P227  1  0.44470674  0.75006424  0.88830541  1
  P  P228  1  0.94875716  0.08323289  0.14054662  1
  P  P229  1  0.94675907  0.08321697  0.39058472  1
  P  P230  1  0.94819363  0.08240091  0.63923851  1
  P  P231  1  0.94649593  0.08346410  0.88918286  1
  P  P232  1  0.94820495  0.41750679  0.13996634  1
  P  P233  1  0.94769624  0.41756961  0.39071596  1
  P  P234  1  0.94754272  0.41634299  0.64016219  1
  P  P235  1  0.94503297  0.41612083  0.88774066  1
  P  P236  1  0.94796439  0.74938404  0.14036089  1
  P  P237  1  0.94625554  0.74943406  0.39109214  1
  P  P238  1  0.94661487  0.75105068  0.63783453  1
  P  P239  1  0.94633415  0.75051749  0.88894382  1
  P  P240  1  0.19824493  0.08304595  0.23403103  1
  P  P241  1  0.19562573  0.08299730  0.48635851  1
  P  P242  1  0.19725125  0.08291502  0.73487911  1
  P  P243  1  0.19605731  0.08335229  0.98576996  1
  P  P244  1  0.19453506  0.41726071  0.23562957  1
  P  P245  1  0.19455583  0.41687075  0.48587602  1
  P  P246  1  0.19780778  0.41649494  0.73467182  1
  P  P247  1  0.19706579  0.41684663  0.98564059  1
  P  P248  1  0.19514331  0.74975790  0.23547848  1
  P  P249  1  0.19470538  0.75017969  0.48563650  1
  P  P250  1  0.19768411  0.75051093  0.73452911  1
  P  P251  1  0.19572943  0.74963137  0.98579482  1
  P  P252  1  0.69434203  0.08243379  0.23486384  1
  P  P253  1  0.69501856  0.08319096  0.48535190  1
  P  P254  1  0.69646667  0.08333826  0.73512733  1
  P  P255  1  0.69480847  0.08336001  0.98570034  1
  P  P256  1  0.69690168  0.41784359  0.23454509  1
  P  P257  1  0.69450925  0.41702543  0.48677939  1
  P  P258  1  0.69560852  0.41619199  0.73573680  1
  P  P259  1  0.69572465  0.41683797  0.98370925  1
  P  P260  1  0.69460112  0.74975544  0.23549615  1
  P  P261  1  0.69507764  0.74986170  0.48635920  1
  P  P262  1  0.69560160  0.75059231  0.73446167  1
  P  P263  1  0.69540378  0.75007175  0.98555213  1
  P  P264  1  0.30433325  0.25121143  0.01561572  1
  P  P265  1  0.30486915  0.24883745  0.26427965  1
  P  P266  1  0.30267691  0.25021664  0.51555712  1
  P  P267  1  0.30332209  0.25008464  0.76323707  1
  P  P268  1  0.30472349  0.58233973  0.01433325  1
  P  P269  1  0.30373907  0.58374163  0.26648665  1
  P  P270  1  0.30390576  0.58370405  0.51396932  1
  P  P271  1  0.30589838  0.58354414  0.76365958  1
  P  P272  1  0.30567915  0.91631064  0.01487951  1
  P  P273  1  0.30531486  0.91734263  0.26407856  1
  P  P274  1  0.30294147  0.91620649  0.51525010  1
  P  P275  1  0.30395909  0.91625900  0.76381842  1
  P  P276  1  0.80427561  0.25004075  0.01418364  1
  P  P277  1  0.80288278  0.25001098  0.26530690  1
  P  P278  1  0.80130175  0.24987031  0.51526424  1
  P  P279  1  0.80257024  0.25068363  0.76502726  1
  P  P280  1  0.80558864  0.58345189  0.01463572  1
  P  P281  1  0.80419142  0.58358583  0.26468156  1
  P  P282  1  0.80297694  0.58424909  0.51384691  1
  P  P283  1  0.80364285  0.58260264  0.76490941  1
  P  P284  1  0.80455329  0.91670711  0.01424759  1
  P  P285  1  0.80111628  0.91657327  0.26510132  1
  P  P286  1  0.80234739  0.91573604  0.51553210  1
  P  P287  1  0.80359490  0.91673464  0.76396849  1
  O  O288  1  0.05643725  0.25012397  0.18686977  1
  O  O289  1  0.05928580  0.24983282  0.43838951  1
  O  O290  1  0.05996117  0.24983084  0.68793365  1
  O  O291  1  0.05726829  0.25019840  0.93573883  1
  O  O292  1  0.05557989  0.58351106  0.18671566  1
  O  O293  1  0.05817919  0.58361496  0.43869111  1
  O  O294  1  0.05767357  0.58356536  0.68676278  1
  O  O295  1  0.05581915  0.58320478  0.93609893  1
  O  O296  1  0.05651982  0.91665843  0.18707685  1
  O  O297  1  0.05875367  0.91653646  0.43831919  1
  O  O298  1  0.05976272  0.91662089  0.68749578  1
  O  O299  1  0.05728785  0.91654634  0.93556966  1
  O  O300  1  0.55498539  0.24975006  0.18636235  1
  O  O301  1  0.55852121  0.25000796  0.43806505  1
  O  O302  1  0.55841395  0.25020951  0.68789955  1
  O  O303  1  0.55613201  0.25003829  0.93581745  1
  O  O304  1  0.55895544  0.58321688  0.18776044  1
  O  O305  1  0.55885126  0.58346947  0.43725776  1
  O  O306  1  0.55590223  0.58316702  0.68683839  1
  O  O307  1  0.55564975  0.58283535  0.93673132  1
  O  O308  1  0.55750231  0.91662090  0.18782600  1
  O  O309  1  0.55967637  0.91648975  0.43825573  1
  O  O310  1  0.55823796  0.91673671  0.68781810  1
  O  O311  1  0.55595830  0.91684418  0.93563003  1
  O  O312  1  0.44413176  0.08324742  0.06379229  1
  O  O313  1  0.44230622  0.08297417  0.31283078  1
  O  O314  1  0.44341130  0.08333168  0.56314731  1
  O  O315  1  0.43987650  0.08323351  0.81111038  1
  O  O316  1  0.44179187  0.41637261  0.06236332  1
  O  O317  1  0.44340066  0.41713739  0.31343926  1
  O  O318  1  0.44324051  0.41638850  0.56313011  1
  O  O319  1  0.44070320  0.41636322  0.81229385  1
  O  O320  1  0.44456563  0.75022949  0.06378291  1
  O  O321  1  0.44468126  0.74975588  0.31348011  1
  O  O322  1  0.44368870  0.75019186  0.56302349  1
  O  O323  1  0.44098124  0.75024201  0.81157308  1
  O  O324  1  0.94467709  0.08305958  0.06382839  1
  O  O325  1  0.94293972  0.08325040  0.31384747  1
  O  O326  1  0.94392911  0.08308058  0.56263363  1
  O  O327  1  0.94379917  0.08347260  0.81239463  1
  O  O328  1  0.94424821  0.41652846  0.06327205  1
  O  O329  1  0.94407238  0.41710467  0.31402003  1
  O  O330  1  0.94355129  0.41622805  0.56345622  1
  O  O331  1  0.94100865  0.41603864  0.81101784  1
  O  O332  1  0.94423111  0.75034293  0.06369225  1
  O  O333  1  0.94253798  0.75011829  0.31438036  1
  O  O334  1  0.94115908  0.75050211  0.56128968  1
  O  O335  1  0.94357521  0.75062511  0.81216199  1
  O  O336  1  0.19157542  0.08312706  0.06242912  1
  O  O337  1  0.19406127  0.08297862  0.31078360  1
  O  O338  1  0.19206216  0.08274524  0.56312226  1
  O  O339  1  0.19427224  0.08281143  0.81159494  1
  O  O340  1  0.19173084  0.41735715  0.06231918  1
  O  O341  1  0.19009428  0.41771531  0.31239777  1
  O  O342  1  0.19129798  0.41733731  0.56268847  1
  O  O343  1  0.19432617  0.41706375  0.81138598  1
  O  O344  1  0.19084269  0.74945113  0.06253205  1
  O  O345  1  0.19049573  0.74946415  0.31219499  1
  O  O346  1  0.19121066  0.74993149  0.56247480  1
  O  O347  1  0.19424720  0.74996609  0.81126180  1
  O  O348  1  0.68971177  0.08338348  0.06237599  1
  O  O349  1  0.69054675  0.08319894  0.31170625  1
  O  O350  1  0.69228371  0.08329746  0.56159356  1
  O  O351  1  0.69399897  0.08297183  0.81208993  1
  O  O352  1  0.69229124  0.41689159  0.06047197  1
  O  O353  1  0.69379026  0.41723186  0.31134975  1
  O  O354  1  0.69032488  0.41727331  0.56352644  1
  O  O355  1  0.69094525  0.41730869  0.81237860  1
  O  O356  1  0.69082265  0.75024375  0.06229176  1
  O  O357  1  0.69134129  0.74962021  0.31236025  1
  O  O358  1  0.69040040  0.74947136  0.56303702  1
  O  O359  1  0.69279241  0.74988981  0.81125976  1
  O  O360  1  0.30898205  0.24943530  0.18751952  1
  O  O361  1  0.30650145  0.25037217  0.43884734  1
  O  O362  1  0.30794743  0.25045477  0.68647809  1
  O  O363  1  0.30697235  0.25026510  0.93901265  1
  O  O364  1  0.30717697  0.58391947  0.18966474  1
  O  O365  1  0.30921572  0.58393397  0.43742089  1
  O  O366  1  0.30939616  0.58356731  0.68680074  1
  O  O367  1  0.30889518  0.58324283  0.93755860  1
  O  O368  1  0.30976358  0.91636347  0.18734195  1
  O  O369  1  0.30720149  0.91595670  0.43857781  1
  O  O370  1  0.30850120  0.91596317  0.68706555  1
  O  O371  1  0.30956065  0.91620294  0.93810466  1
  O  O372  1  0.80661983  0.25021217  0.18851004  1
  O  O373  1  0.80556949  0.25002563  0.43859797  1
  O  O374  1  0.80649207  0.25006293  0.68837535  1
  O  O375  1  0.80892181  0.24984865  0.93745216  1
  O  O376  1  0.80935911  0.58355511  0.18798137  1
  O  O377  1  0.80813322  0.58363551  0.43718253  1
  O  O378  1  0.80661217  0.58328246  0.68811882  1
  O  O379  1  0.80996122  0.58360013  0.93784264  1
  O  O380  1  0.80567449  0.91656219  0.18844182  1
  O  O381  1  0.80579486  0.91609520  0.43879580  1
  O  O382  1  0.80888310  0.91680507  0.68732825  1
  O  O383  1  0.80945602  0.91660024  0.93749559  1
  O  O384  1  0.23473371  0.25054890  0.04105879  1
  O  O385  1  0.23488924  0.24947252  0.28851737  1
  O  O386  1  0.23252573  0.25018560  0.53954767  1
  O  O387  1  0.23305013  0.24991385  0.78746285  1
  O  O388  1  0.23483109  0.58279175  0.03880418  1
  O  O389  1  0.23386623  0.58353783  0.29086637  1
  O  O390  1  0.23335327  0.58366574  0.53698235  1
  O  O391  1  0.23596681  0.58329206  0.78850981  1
  O  O392  1  0.23566308  0.91638591  0.03889089  1
  O  O393  1  0.23527136  0.91708551  0.28811646  1
  O  O394  1  0.23273134  0.91618250  0.53908903  1
  O  O395  1  0.23356896  0.91647991  0.78778317  1
  O  O396  1  0.73414132  0.25052391  0.03800202  1
  O  O397  1  0.73301439  0.24982328  0.28969915  1
  O  O398  1  0.73113539  0.25001505  0.53936944  1
  O  O399  1  0.73239798  0.25000971  0.78934911  1
  O  O400  1  0.73540163  0.58341039  0.03818113  1
  O  O401  1  0.73371286  0.58389224  0.28792571  1
  O  O402  1  0.73253604  0.58377706  0.53733542  1
  O  O403  1  0.73387247  0.58336457  0.79004883  1
  O  O404  1  0.73434112  0.91677188  0.03768973  1
  O  O405  1  0.73095432  0.91598796  0.28899051  1
  O  O406  1  0.73207862  0.91636358  0.53966316  1
  O  O407  1  0.73310016  0.91665884  0.78739686  1
  O  O408  1  0.26830976  0.08297849  0.20985763  1
  O  O409  1  0.26546532  0.08321215  0.46141841  1
  O  O410  1  0.26728600  0.08291968  0.70994199  1
  O  O411  1  0.26621580  0.08348814  0.96187318  1
  O  O412  1  0.26474490  0.41717937  0.21217240  1
  O  O413  1  0.26448346  0.41668532  0.46113215  1
  O  O414  1  0.26790507  0.41701423  0.71004759  1
  O  O415  1  0.26734081  0.41626937  0.96204869  1
  O  O416  1  0.26529943  0.74973694  0.21169306  1
  O  O417  1  0.26468779  0.75026701  0.46106860  1
  O  O418  1  0.26777032  0.75005614  0.70990507  1
  O  O419  1  0.26585581  0.75000854  0.96224608  1
  O  O420  1  0.76426294  0.08340945  0.21030488  1
  O  O421  1  0.76474716  0.08263595  0.45951476  1
  O  O422  1  0.76595290  0.08374200  0.70939241  1
  O  O423  1  0.76497237  0.08315175  0.96217762  1
  O  O424  1  0.76643993  0.41738131  0.20909652  1
  O  O425  1  0.76445456  0.41702359  0.46223140  1
  O  O426  1  0.76596375  0.41647705  0.71181456  1
  O  O427  1  0.76559272  0.41650156  0.95940182  1
  O  O428  1  0.76448413  0.75005582  0.21066007  1
  O  O429  1  0.76541871  0.75021322  0.46237125  1
  O  O430  1  0.76528740  0.74988539  0.70932815  1
  O  O431  1  0.76543167  0.75013108  0.96166805  1
  O  O432  1  0.01880698  0.08329874  0.16509120  1
  O  O433  1  0.01665920  0.08289439  0.41489146  1
  O  O434  1  0.01835750  0.08280429  0.66344341  1
  O  O435  1  0.01610097  0.08323699  0.91462261  1
  O  O436  1  0.01819438  0.41758408  0.16463246  1
  O  O437  1  0.01775698  0.41727189  0.41517850  1
  O  O438  1  0.01785102  0.41679598  0.66405100  1
  O  O439  1  0.01498074  0.41638934  0.91234728  1
  O  O440  1  0.01791453  0.74949739  0.16515964  1
  O  O441  1  0.01641304  0.74971046  0.41527658  1
  O  O442  1  0.01718566  0.75046395  0.66098721  1
  O  O443  1  0.01592016  0.75008947  0.91449485  1
  O  O444  1  0.51711345  0.08287931  0.16566621  1
  O  O445  1  0.51742113  0.08265099  0.41318914  1
  O  O446  1  0.51490176  0.08323885  0.66568640  1
  O  O447  1  0.51449091  0.08303966  0.91184709  1
  O  O448  1  0.51519852  0.41646576  0.16398068  1
  O  O449  1  0.51625239  0.41731855  0.41515767  1
  O  O450  1  0.51685961  0.41745258  0.66437377  1
  O  O451  1  0.51563413  0.41645549  0.91282004  1
  O  O452  1  0.51832623  0.75046461  0.16505347  1
  O  O453  1  0.51863654  0.74978671  0.41450338  1
  O  O454  1  0.51698339  0.74948550  0.66444423  1
  O  O455  1  0.51454775  0.75016680  0.91312850  1
  O  O456  1  0.48143009  0.24892774  0.08465269  1
  O  O457  1  0.48466052  0.25003428  0.33700073  1
  O  O458  1  0.48304738  0.25007485  0.58765679  1
  O  O459  1  0.48375858  0.25098235  0.83404142  1
  O  O460  1  0.48480117  0.58361686  0.08677066  1
  O  O461  1  0.48437353  0.58367176  0.33642120  1
  O  O462  1  0.48246996  0.58341563  0.58553510  1
  O  O463  1  0.48166307  0.58306756  0.83563326  1
  O  O464  1  0.48308861  0.91715132  0.08672902  1
  O  O465  1  0.48623032  0.91592333  0.33705040  1
  O  O466  1  0.48309196  0.91643813  0.58748127  1
  O  O467  1  0.48205744  0.91602731  0.83478299  1
  O  O468  1  0.98433377  0.25025603  0.08421021  1
  O  O469  1  0.98530026  0.25083115  0.33714719  1
  O  O470  1  0.98605997  0.24988984  0.58670654  1
  O  O471  1  0.98307110  0.24986582  0.83480577  1
  O  O472  1  0.98245698  0.58335556  0.08485823  1
  O  O473  1  0.98308170  0.58391037  0.33817970  1
  O  O474  1  0.98502592  0.58327665  0.58504883  1
  O  O475  1  0.98188495  0.58356970  0.83486657  1
  O  O476  1  0.98427843  0.91637587  0.08461425  1
  O  O477  1  0.98474714  0.91575271  0.33715866  1
  O  O478  1  0.98468240  0.91652735  0.58703145  1
  O  O479  1  0.98294960  0.91677719  0.83477696  1
  O  O480  1  0.08785031  0.31565653  0.07795066  1
  O  O481  1  0.08881391  0.31625756  0.32930868  1
  O  O482  1  0.08975255  0.31512066  0.57850659  1
  O  O483  1  0.08727774  0.31489190  0.82616740  1
  O  O484  1  0.08625520  0.64855862  0.07747394  1
  O  O485  1  0.08662612  0.64890651  0.32880724  1
  O  O486  1  0.08902681  0.64832717  0.57745900  1
  O  O487  1  0.08590524  0.64834399  0.82678069  1
  O  O488  1  0.08796251  0.98170808  0.07800150  1
  O  O489  1  0.08864943  0.98010680  0.32814748  1
  O  O490  1  0.08842252  0.98184315  0.57757344  1
  O  O491  1  0.08722910  0.98141833  0.82606649  1
  O  O492  1  0.58525840  0.31379510  0.07685630  1
  O  O493  1  0.58830247  0.31433527  0.32799141  1
  O  O494  1  0.58653804  0.31619129  0.57817990  1
  O  O495  1  0.58767604  0.31626138  0.82712175  1
  O  O496  1  0.58799751  0.64952270  0.07832766  1
  O  O497  1  0.58811242  0.64936814  0.32786192  1
  O  O498  1  0.58665386  0.64830968  0.57749449  1
  O  O499  1  0.58566571  0.64713966  0.82710917  1
  O  O500  1  0.58658735  0.98204341  0.07809123  1
  O  O501  1  0.58951399  0.98149881  0.32824463  1
  O  O502  1  0.58715652  0.98074165  0.57765100  1
  O  O503  1  0.58581716  0.98153336  0.82580935  1
  O  O504  1  0.41312858  0.01820717  0.17327484  1
  O  O505  1  0.41374940  0.01782191  0.42267129  1
  O  O506  1  0.41087275  0.01828574  0.67194354  1
  O  O507  1  0.41142122  0.01714452  0.92075419  1
  O  O508  1  0.41211674  0.35023094  0.17169010  1
  O  O509  1  0.41225366  0.35311009  0.42292733  1
  O  O510  1  0.41317821  0.35168256  0.67296254  1
  O  O511  1  0.41137950  0.35261189  0.92241465  1
  O  O512  1  0.41433497  0.68610987  0.17338704  1
  O  O513  1  0.41498990  0.68387677  0.42265599  1
  O  O514  1  0.41269487  0.68491002  0.67207919  1
  O  O515  1  0.41123516  0.68481811  0.92123815  1
  O  O516  1  0.91484104  0.01822686  0.17340157  1
  O  O517  1  0.91280185  0.01804517  0.42301029  1
  O  O518  1  0.91451940  0.01724271  0.67181220  1
  O  O519  1  0.91229146  0.01828453  0.92129828  1
  O  O520  1  0.91457185  0.35254514  0.17323631  1
  O  O521  1  0.91388576  0.35257047  0.42363181  1
  O  O522  1  0.91385139  0.35126898  0.67292396  1
  O  O523  1  0.91176949  0.35079560  0.92077071  1
  O  O524  1  0.91405520  0.68419173  0.17260662  1
  O  O525  1  0.91238190  0.68435966  0.42371730  1
  O  O526  1  0.91330312  0.68615135  0.67144537  1
  O  O527  1  0.91196845  0.68544211  0.92104567  1
  O  O528  1  0.16425316  0.01820416  0.20113269  1
  O  O529  1  0.16223153  0.01775407  0.45345022  1
  O  O530  1  0.16330311  0.01790457  0.70217508  1
  O  O531  1  0.16286895  0.01829873  0.95241722  1
  O  O532  1  0.16115291  0.35222833  0.20245891  1
  O  O533  1  0.16081840  0.35167029  0.45340069  1
  O  O534  1  0.16381573  0.35148030  0.70224998  1
  O  O535  1  0.16355115  0.35181229  0.95250230  1
  O  O536  1  0.16153203  0.68482530  0.20212587  1
  O  O537  1  0.16094053  0.68507400  0.45275559  1
  O  O538  1  0.16349119  0.68565876  0.70172867  1
  O  O539  1  0.16266970  0.68455592  0.95224824  1
  O  O540  1  0.66111317  0.01688560  0.20235258  1
  O  O541  1  0.66057105  0.01802393  0.45302265  1
  O  O542  1  0.66232799  0.01829504  0.70289428  1
  O  O543  1  0.66133710  0.01842412  0.95227060  1
  O  O544  1  0.66246244  0.35287508  0.20208039  1
  O  O545  1  0.66094316  0.35182922  0.45401792  1
  O  O546  1  0.66210054  0.35102403  0.70292303  1
  O  O547  1  0.66124827  0.35207362  0.95121256  1
  O  O548  1  0.66100654  0.68455183  0.20277960  1
  O  O549  1  0.66184856  0.68487156  0.45264361  1
  O  O550  1  0.66095186  0.68575846  0.70192899  1
  O  O551  1  0.66200242  0.68495712  0.95240631  1
  O  O552  1  0.33838207  0.31632188  0.04783424  1
  O  O553  1  0.33845919  0.31385121  0.29750213  1
  O  O554  1  0.33648998  0.31515245  0.54850740  1
  O  O555  1  0.33654991  0.31519977  0.79642858  1
  O  O556  1  0.33847769  0.64721241  0.04775150  1
  O  O557  1  0.33785445  0.64870798  0.29915935  1
  O  O558  1  0.33718836  0.64855790  0.54769357  1
  O  O559  1  0.33939802  0.64878684  0.79643750  1
  O  O560  1  0.33947541  0.98142737  0.04776366  1
  O  O561  1  0.33869396  0.98262833  0.29678917  1
  O  O562  1  0.33677331  0.98111002  0.54817440  1
  O  O563  1  0.33739562  0.98134603  0.79686687  1
  O  O564  1  0.83786564  0.31508803  0.04720622  1
  O  O565  1  0.83653365  0.31522220  0.29804464  1
  O  O566  1  0.83511107  0.31478192  0.54822065  1
  O  O567  1  0.83614704  0.31589403  0.79763667  1
  O  O568  1  0.83906853  0.64833199  0.04810785  1
  O  O569  1  0.83747962  0.64861388  0.29813128  1
  O  O570  1  0.83596343  0.64946199  0.54707998  1
  O  O571  1  0.83819205  0.64742387  0.79741061  1
  O  O572  1  0.83782003  0.98171303  0.04763419  1
  O  O573  1  0.83443965  0.98171024  0.29811254  1
  O  O574  1  0.83652293  0.98054572  0.54842281  1
  O  O575  1  0.83696304  0.98169326  0.79743944  1
  O  O576  1  0.41324128  0.14820326  0.17322116  1
  O  O577  1  0.41384139  0.14788600  0.42283564  1
  O  O578  1  0.41100846  0.14841576  0.67214159  1
  O  O579  1  0.41093767  0.14744466  0.92113330  1
  O  O580  1  0.41127723  0.48047873  0.17218490  1
  O  O581  1  0.41289002  0.48330413  0.42229534  1
  O  O582  1  0.41249142  0.48176016  0.67210578  1
  O  O583  1  0.41220949  0.48258487  0.92210912  1
  O  O584  1  0.41485479  0.81618173  0.17311163  1
  O  O585  1  0.41453462  0.81385198  0.42317146  1
  O  O586  1  0.41304041  0.81489878  0.67257838  1
  O  O587  1  0.41109167  0.81516926  0.92116149  1
  O  O588  1  0.91481739  0.14828941  0.17308077  1
  O  O589  1  0.91315493  0.14835177  0.42341546  1
  O  O590  1  0.91438307  0.14737979  0.67225055  1
  O  O591  1  0.91254642  0.14879702  0.92137642  1
  O  O592  1  0.91428376  0.48267541  0.17232691  1
  O  O593  1  0.91394014  0.48271405  0.42325350  1
  O  O594  1  0.91330965  0.48123398  0.67263064  1
  O  O595  1  0.91143541  0.48130648  0.92055874  1
  O  O596  1  0.91407690  0.81427086  0.17356684  1
  O  O597  1  0.91218932  0.81431698  0.42409097  1
  O  O598  1  0.91374036  0.81623620  0.67125824  1
  O  O599  1  0.91254900  0.81583985  0.92133957  1
  O  O600  1  0.08811364  0.18513478  0.07802722  1
  O  O601  1  0.08893852  0.18606709  0.32822231  1
  O  O602  1  0.08984318  0.18481296  0.57826672  1
  O  O603  1  0.08733173  0.18510915  0.82633602  1
  O  O604  1  0.08630648  0.51833703  0.07728355  1
  O  O605  1  0.08664305  0.51879048  0.32860030  1
  O  O606  1  0.08900989  0.51819659  0.57784140  1
  O  O607  1  0.08582527  0.51842884  0.82675407  1
  O  O608  1  0.08796166  0.85127086  0.07818627  1
  O  O609  1  0.08812859  0.84997771  0.32929437  1
  O  O610  1  0.08868238  0.85177584  0.57753839  1
  O  O611  1  0.08698680  0.85161481  0.82590692  1
  O  O612  1  0.58513636  0.18360190  0.07738452  1
  O  O613  1  0.58778426  0.18410343  0.32854693  1
  O  O614  1  0.58723403  0.18608666  0.57775306  1
  O  O615  1  0.58770159  0.18626843  0.82613259  1
  O  O616  1  0.58840144  0.51919593  0.07766563  1
  O  O617  1  0.58837941  0.51942035  0.32694053  1
  O  O618  1  0.58655547  0.51834299  0.57734702  1
  O  O619  1  0.58501480  0.51710186  0.82726100  1
  O  O620  1  0.58659737  0.85177102  0.07789498  1
  O  O621  1  0.59005887  0.85127820  0.32866591  1
  O  O622  1  0.58684245  0.85075165  0.57816873  1
  O  O623  1  0.58645007  0.85170445  0.82632539  1
  O  O624  1  0.33900163  0.18627564  0.04824998  1
  O  O625  1  0.33810312  0.18345464  0.29702800  1
  O  O626  1  0.33663589  0.18531048  0.54829607  1
  O  O627  1  0.33662428  0.18497113  0.79622318  1
  O  O628  1  0.33822256  0.51707355  0.04686280  1
  O  O629  1  0.33797566  0.51880503  0.29893000  1
  O  O630  1  0.33710181  0.51877721  0.54766210  1
  O  O631  1  0.33978350  0.51846290  0.79633793  1
  O  O632  1  0.33942851  0.85158332  0.04829147  1
  O  O633  1  0.33867821  0.85233652  0.29765878  1
  O  O634  1  0.33673617  0.85130734  0.54833475  1
  O  O635  1  0.33722705  0.85112035  0.79709253  1
  O  O636  1  0.83738384  0.18497024  0.04761068  1
  O  O637  1  0.83686100  0.18495150  0.29777135  1
  O  O638  1  0.83489730  0.18473147  0.54808790  1
  O  O639  1  0.83681901  0.18590492  0.79803448  1
  O  O640  1  0.83906459  0.51837204  0.04775817  1
  O  O641  1  0.83739507  0.51858838  0.29829734  1
  O  O642  1  0.83637108  0.51936556  0.54743777  1
  O  O643  1  0.83749564  0.51732646  0.79697277  1
  O  O644  1  0.83768155  0.85163352  0.04772103  1
  O  O645  1  0.83490871  0.85163808  0.29811466  1
  O  O646  1  0.83597342  0.85062787  0.54829216  1
  O  O647  1  0.83687903  0.85166417  0.79732468  1
  O  O648  1  0.16427776  0.14798599  0.20126489  1
  O  O649  1  0.16200506  0.14827942  0.45380962  1
  O  O650  1  0.16317565  0.14788336  0.70235348  1
  O  O651  1  0.16272979  0.14847480  0.95270241  1
  O  O652  1  0.16118970  0.48221655  0.20211962  1
  O  O653  1  0.16088141  0.48199246  0.45285647  1
  O  O654  1  0.16366126  0.48137446  0.70184481  1
  O  O655  1  0.16407866  0.48181208  0.95174580  1
  O  O656  1  0.16164600  0.81475173  0.20227772  1
  O  O657  1  0.16094211  0.81525874  0.45297690  1
  O  O658  1  0.16372393  0.81554017  0.70199877  1
  O  O659  1  0.16234494  0.81470811  0.95260647  1
  O  O660  1  0.65987937  0.14698756  0.20167922  1
  O  O661  1  0.66095590  0.14835544  0.45259957  1
  O  O662  1  0.66187872  0.14840418  0.70346060  1
  O  O663  1  0.66151519  0.14845246  0.95239936  1
  O  O664  1  0.66294504  0.48312566  0.20259889  1
  O  O665  1  0.66109791  0.48219106  0.45365625  1
  O  O666  1  0.66200556  0.48103977  0.70198763  1
  O  O667  1  0.66191884  0.48191958  0.95087716  1
  O  O668  1  0.66049207  0.81475457  0.20274355  1
  O  O669  1  0.66156272  0.81499625  0.45347139  1
  O  O670  1  0.66155459  0.81574457  0.70229936  1
  O  O671  1  0.66177004  0.81497613  0.95236342  1
