# generated using pymatgen
data_Na2MnFe(PO4)2
_symmetry_space_group_name_H-M   'P 1'
_cell_length_a   21.09049896
_cell_length_b   18.94347735
_cell_length_c   20.04850708
_cell_angle_alpha   90.00002913
_cell_angle_beta   90.00016155
_cell_angle_gamma   89.99981363
_symmetry_Int_Tables_number   1
_chemical_formula_structural   Na2MnFe(PO4)2
_chemical_formula_sum   'Na96 Mn48 Fe48 P96 O384'
_cell_volume   8009.92769691
_cell_formula_units_Z   48
loop_
 _symmetry_equiv_pos_site_id
 _symmetry_equiv_pos_as_xyz
  1  'x, y, z'
loop_
 _atom_site_type_symbol
 _atom_site_label
 _atom_site_symmetry_multiplicity
 _atom_site_fract_x
 _atom_site_fract_y
 _atom_site_fract_z
 _atom_site_occupancy
  Na  Na0  1  0.00097734  0.00061788  0.00051464  1
  Na  Na1  1  -0.00013284  -0.00013336  0.24940094  1
  Na  Na2  1  -0.00066268  0.00027716  0.49959713  1
  Na  Na3  1  -0.00160779  -0.00049733  0.75125566  1
  Na  Na4  1  -0.00102723  0.33305462  -0.00050978  1
  Na  Na5  1  -0.00076344  0.33350583  0.24955180  1
  Na  Na6  1  -0.00005161  0.33400680  0.49997720  1
  Na  Na7  1  -0.00051897  0.33348253  0.75063494  1
  Na  Na8  1  0.00169373  0.66753383  -0.00060351  1
  Na  Na9  1  0.00100703  0.66719915  0.24975218  1
  Na  Na10  1  0.00102544  0.66767090  0.49964137  1
  Na  Na11  1  0.00024508  0.66691273  0.75063342  1
  Na  Na12  1  0.50047090  0.00103199  -0.00026751  1
  Na  Na13  1  0.50174945  0.00120730  0.24910022  1
  Na  Na14  1  0.50136797  0.00047316  0.50070129  1
  Na  Na15  1  0.49943929  -0.00014093  0.75026094  1
  Na  Na16  1  0.49672491  0.33184475  0.00000462  1
  Na  Na17  1  0.49832764  0.33286073  0.25017264  1
  Na  Na18  1  0.50009069  0.33266704  0.50087484  1
  Na  Na19  1  0.50137640  0.33362549  0.74922980  1
  Na  Na20  1  0.49963359  0.66731730  0.00064408  1
  Na  Na21  1  0.49817581  0.66679128  0.25045703  1
  Na  Na22  1  0.49936138  0.66684392  0.49925452  1
  Na  Na23  1  0.49852683  0.66561891  0.75046306  1
  Na  Na24  1  0.24778142  -0.00012704  0.12550832  1
  Na  Na25  1  0.24746015  -0.00063994  0.37570056  1
  Na  Na26  1  0.24970044  0.00092300  0.62521661  1
  Na  Na27  1  0.24951922  0.00120173  0.87443504  1
  Na  Na28  1  0.25146928  0.33334461  0.12540218  1
  Na  Na29  1  0.25137928  0.33378513  0.37498616  1
  Na  Na30  1  0.24950106  0.33324781  0.62467589  1
  Na  Na31  1  0.25032259  0.33311529  0.87440567  1
  Na  Na32  1  0.24818143  0.66636797  0.12444691  1
  Na  Na33  1  0.25006619  0.66730861  0.37616974  1
  Na  Na34  1  0.24970524  0.66670704  0.62483580  1
  Na  Na35  1  0.24840721  0.66646531  0.87419334  1
  Na  Na36  1  0.74991850  0.00003428  0.12428383  1
  Na  Na37  1  0.75065581  0.00029396  0.37486954  1
  Na  Na38  1  0.75259144  0.00081849  0.62523579  1
  Na  Na39  1  0.75073716  0.00012423  0.87511892  1
  Na  Na40  1  0.75284187  0.33374537  0.12473539  1
  Na  Na41  1  0.75115914  0.33370791  0.37444972  1
  Na  Na42  1  0.74862825  0.33271196  0.62530738  1
  Na  Na43  1  0.75230216  0.33402852  0.87535857  1
  Na  Na44  1  0.75085645  0.66736479  0.12470575  1
  Na  Na45  1  0.75198923  0.66790919  0.37526830  1
  Na  Na46  1  0.75119340  0.66739142  0.62471392  1
  Na  Na47  1  0.75150523  0.66745402  0.87532267  1
  Na  Na48  1  -0.00018170  0.16696164  -0.00056746  1
  Na  Na49  1  -0.00049957  0.16740353  0.24988174  1
  Na  Na50  1  0.00212329  0.16546036  0.49928242  1
  Na  Na51  1  -0.00005703  0.16698523  0.75090984  1
  Na  Na52  1  0.00079117  0.49888722  -0.00036002  1
  Na  Na53  1  -0.00023523  0.49935274  0.24952430  1
  Na  Na54  1  -0.00026582  0.49903128  0.50010445  1
  Na  Na55  1  0.00024261  0.49900656  0.75063409  1
  Na  Na56  1  0.00103279  0.83292511  0.00026056  1
  Na  Na57  1  0.00084712  0.83251018  0.24923920  1
  Na  Na58  1  -0.00176069  0.83355381  0.49970004  1
  Na  Na59  1  -0.00152642  0.83342671  0.75101683  1
  Na  Na60  1  0.49941907  0.16611555  -0.00048573  1
  Na  Na61  1  0.49909907  0.16715807  0.24986862  1
  Na  Na62  1  0.50195251  0.16660063  0.50154600  1
  Na  Na63  1  0.49979265  0.16678076  0.75002412  1
  Na  Na64  1  0.49765284  0.50055004  0.00057226  1
  Na  Na65  1  0.49805930  0.50028368  0.24892153  1
  Na  Na66  1  0.49816159  0.50065699  0.50015896  1
  Na  Na67  1  0.49940807  0.49981288  0.74988983  1
  Na  Na68  1  0.49972407  0.83327133  0.00022916  1
  Na  Na69  1  0.49980310  0.83340699  0.25061365  1
  Na  Na70  1  0.50050572  0.83304412  0.49908714  1
  Na  Na71  1  0.50164732  0.83242132  0.75045384  1
  Na  Na72  1  0.25091212  0.16630248  0.12543646  1
  Na  Na73  1  0.24971646  0.16674150  0.37539382  1
  Na  Na74  1  0.25015649  0.16636780  0.62430198  1
  Na  Na75  1  0.25021148  0.16662873  0.87469477  1
  Na  Na76  1  0.24930518  0.49999304  0.12489385  1
  Na  Na77  1  0.25092656  0.49961980  0.37569252  1
  Na  Na78  1  0.25076881  0.49945343  0.62514965  1
  Na  Na79  1  0.24971399  0.49972499  0.87346011  1
  Na  Na80  1  0.24724093  0.83371476  0.12482377  1
  Na  Na81  1  0.24853098  0.83245676  0.37585906  1
  Na  Na82  1  0.24785260  0.83329313  0.62521771  1
  Na  Na83  1  0.24725330  0.83390169  0.87503261  1
  Na  Na84  1  0.75071093  0.16614448  0.12438816  1
  Na  Na85  1  0.74881890  0.16719819  0.37372785  1
  Na  Na86  1  0.74893572  0.16695509  0.62562616  1
  Na  Na87  1  0.74965047  0.16697364  0.87621084  1
  Na  Na88  1  0.75198751  0.49942753  0.12515571  1
  Na  Na89  1  0.75129895  0.49918220  0.37542270  1
  Na  Na90  1  0.75082973  0.49914798  0.62513366  1
  Na  Na91  1  0.75167102  0.49925208  0.87481563  1
  Na  Na92  1  0.75117165  0.83327032  0.12417483  1
  Na  Na93  1  0.75327026  0.83258348  0.37565306  1
  Na  Na94  1  0.75199207  0.83345817  0.62449267  1
  Na  Na95  1  0.75306842  0.83240890  0.87477323  1
  Mn  Mn96  1  0.39135025  0.91671036  0.12714540  1
  Mn  Mn97  1  0.64248864  0.91619657  0.99770424  1
  Mn  Mn98  1  0.14186065  0.24994544  0.74778999  1
  Mn  Mn99  1  0.64379841  0.91669816  0.74804217  1
  Mn  Mn100  1  0.64238074  0.58311655  0.49745077  1
  Mn  Mn101  1  0.85822829  0.08411049  0.50204588  1
  Mn  Mn102  1  0.64233959  0.58321563  0.74812584  1
  Mn  Mn103  1  0.35736926  0.75007916  0.50284123  1
  Mn  Mn104  1  0.35765846  0.08318521  0.50198611  1
  Mn  Mn105  1  0.14263512  0.24982209  0.24778691  1
  Mn  Mn106  1  0.60759183  0.41668926  0.12247540  1
  Mn  Mn107  1  0.89251350  0.58355053  0.37731684  1
  Mn  Mn108  1  0.14214827  0.58305740  0.74730604  1
  Mn  Mn109  1  0.35749745  0.75097625  0.75199858  1
  Mn  Mn110  1  0.89186990  0.24926019  0.62736146  1
  Mn  Mn111  1  0.10773005  0.41642083  0.12216726  1
  Mn  Mn112  1  0.39331871  0.25010855  0.62741917  1
  Mn  Mn113  1  0.60802854  0.75023510  0.37238322  1
  Mn  Mn114  1  0.64223398  0.25076567  0.99797716  1
  Mn  Mn115  1  0.64237022  0.25040407  0.24727472  1
  Mn  Mn116  1  0.60748468  0.41625448  0.87358994  1
  Mn  Mn117  1  0.89231166  0.24960984  0.37747197  1
  Mn  Mn118  1  0.60813574  0.74991128  0.87284563  1
  Mn  Mn119  1  0.39234664  0.91585058  0.62722670  1
  Mn  Mn120  1  0.39168947  0.91743720  0.37727343  1
  Mn  Mn121  1  0.89292991  0.58297166  0.12719937  1
  Mn  Mn122  1  0.64351507  0.91704435  0.49780344  1
  Mn  Mn123  1  0.35789722  0.41742654  0.25290112  1
  Mn  Mn124  1  0.64243443  0.58365794  0.24805955  1
  Mn  Mn125  1  0.35817916  0.41599093  0.75207810  1
  Mn  Mn126  1  0.35620746  0.75043320  0.00227260  1
  Mn  Mn127  1  0.64304057  0.91618810  0.24802078  1
  Mn  Mn128  1  0.14221207  0.25045903  0.49789354  1
  Mn  Mn129  1  0.14102886  0.91721296  0.74737022  1
  Mn  Mn130  1  0.64246143  0.58301428  0.99806813  1
  Mn  Mn131  1  0.14047029  0.91658855  0.49797715  1
  Mn  Mn132  1  0.10767959  0.08374022  0.12248581  1
  Mn  Mn133  1  0.39107895  0.58393763  0.12697293  1
  Mn  Mn134  1  0.89237224  0.58337842  0.62767088  1
  Mn  Mn135  1  0.89279373  0.58324314  0.87753978  1
  Mn  Mn136  1  0.89306014  0.91709096  0.12745765  1
  Mn  Mn137  1  0.60733197  0.41673069  0.37292955  1
  Mn  Mn138  1  0.35789923  0.08184493  0.25292902  1
  Mn  Mn139  1  0.14229677  0.58271697  0.49815198  1
  Mn  Mn140  1  0.14222057  0.58359736  0.24813750  1
  Mn  Mn141  1  0.39174090  0.91658802  0.87758710  1
  Mn  Mn142  1  0.85788889  0.08352168  0.00211251  1
  Mn  Mn143  1  0.60875141  0.08265342  0.62348260  1
  Fe  Fe144  1  0.39342390  0.58373540  0.62643844  1
  Fe  Fe145  1  0.35741488  0.41654467  0.50191132  1
  Fe  Fe146  1  0.14227171  0.91741151  0.99773222  1
  Fe  Fe147  1  0.85749151  0.41632543  0.75145320  1
  Fe  Fe148  1  0.60828875  0.74944835  0.62350473  1
  Fe  Fe149  1  0.60770111  0.08351755  0.37313834  1
  Fe  Fe150  1  0.39203257  0.58317190  0.37716707  1
  Fe  Fe151  1  0.85778427  0.41679722  0.25207143  1
  Fe  Fe152  1  0.85835737  0.41724128  0.00174782  1
  Fe  Fe153  1  0.64329032  0.25003507  0.74986565  1
  Fe  Fe154  1  0.39208659  0.24932715  0.12621121  1
  Fe  Fe155  1  0.60672985  0.08355353  0.87311220  1
  Fe  Fe156  1  0.89341064  0.91694434  0.37575045  1
  Fe  Fe157  1  0.89355256  0.91703302  0.87710875  1
  Fe  Fe158  1  0.10723720  0.41614898  0.87333482  1
  Fe  Fe159  1  0.10700207  0.08327643  0.37280755  1
  Fe  Fe160  1  0.10736747  0.41661548  0.37347283  1
  Fe  Fe161  1  0.10680728  0.08333819  0.62399610  1
  Fe  Fe162  1  0.35665106  0.08358698  0.00122228  1
  Fe  Fe163  1  0.10642143  0.75010935  0.87315771  1
  Fe  Fe164  1  0.85714393  0.08319461  0.25176960  1
  Fe  Fe165  1  0.10663136  0.75003442  0.37281950  1
  Fe  Fe166  1  0.85832520  0.74933318  0.50219244  1
  Fe  Fe167  1  0.85798748  0.74972113  0.75181660  1
  Fe  Fe168  1  0.10751436  0.74952885  0.12296276  1
  Fe  Fe169  1  0.89287583  0.91710297  0.62692032  1
  Fe  Fe170  1  0.10685187  0.41646305  0.62292272  1
  Fe  Fe171  1  0.39186204  0.58302310  0.87696160  1
  Fe  Fe172  1  0.89289775  0.24971356  0.12635288  1
  Fe  Fe173  1  0.10728508  0.08372453  0.87318324  1
  Fe  Fe174  1  0.14283716  0.25007846  0.99812955  1
  Fe  Fe175  1  0.35723333  0.08315115  0.75173585  1
  Fe  Fe176  1  0.10605642  0.75006559  0.62365716  1
  Fe  Fe177  1  0.14246884  0.58246305  0.99743063  1
  Fe  Fe178  1  0.14170898  0.91642967  0.24891686  1
  Fe  Fe179  1  0.85741844  0.41650409  0.50212727  1
  Fe  Fe180  1  0.35631305  0.75044132  0.25136351  1
  Fe  Fe181  1  0.85838259  0.75015814  0.25131424  1
  Fe  Fe182  1  0.60802711  0.41761627  0.62320900  1
  Fe  Fe183  1  0.64282823  0.25017530  0.49807353  1
  Fe  Fe184  1  0.39317495  0.24996238  0.37713253  1
  Fe  Fe185  1  0.60762184  0.75037291  0.12378161  1
  Fe  Fe186  1  0.85819703  0.74936499  0.00220637  1
  Fe  Fe187  1  0.35622995  0.41620756  0.00073388  1
  Fe  Fe188  1  0.39246460  0.25011654  0.87666568  1
  Fe  Fe189  1  0.89278163  0.24971952  0.87666330  1
  Fe  Fe190  1  0.85815397  0.08408303  0.75261240  1
  Fe  Fe191  1  0.60718213  0.08315196  0.12312836  1
  P  P192  1  0.05291014  0.25014543  0.10904328  1
  P  P193  1  0.05364611  0.25063456  0.35997456  1
  P  P194  1  0.05305004  0.25000591  0.61026574  1
  P  P195  1  0.05374536  0.25018850  0.86151376  1
  P  P196  1  0.05439785  0.58374682  0.10911126  1
  P  P197  1  0.05348828  0.58283004  0.36025171  1
  P  P198  1  0.05317032  0.58292507  0.61023514  1
  P  P199  1  0.05495955  0.58280779  0.86122303  1
  P  P200  1  0.05550152  0.91592106  0.11052987  1
  P  P201  1  0.05258381  0.91644083  0.35941863  1
  P  P202  1  0.05137948  0.91684942  0.61051766  1
  P  P203  1  0.05378562  0.91701887  0.86166358  1
  P  P204  1  0.55198001  0.24939348  0.10991450  1
  P  P205  1  0.55370334  0.24953199  0.36116378  1
  P  P206  1  0.55666182  0.25074077  0.61136609  1
  P  P207  1  0.55266947  0.24944534  0.85986550  1
  P  P208  1  0.55314421  0.58452664  0.11031085  1
  P  P209  1  0.55164677  0.58300546  0.35980722  1
  P  P210  1  0.55306205  0.58355584  0.61011108  1
  P  P211  1  0.55180502  0.58282166  0.86044326  1
  P  P212  1  0.55345962  0.91638936  0.11021109  1
  P  P213  1  0.55362216  0.91782361  0.36000177  1
  P  P214  1  0.55424875  0.91543627  0.61019735  1
  P  P215  1  0.55356899  0.91755451  0.86007537  1
  P  P216  1  0.44583217  0.08372985  0.13848772  1
  P  P217  1  0.44821562  0.08408940  0.39038664  1
  P  P218  1  0.44634863  0.08311404  0.64084787  1
  P  P219  1  0.44541668  0.08419993  0.88919830  1
  P  P220  1  0.44445048  0.41573765  0.13840214  1
  P  P221  1  0.44577790  0.41649105  0.39072850  1
  P  P222  1  0.44710871  0.41737556  0.63866216  1
  P  P223  1  0.44560097  0.41623165  0.89035513  1
  P  P224  1  0.44648736  0.75059332  0.14069582  1
  P  P225  1  0.44488744  0.74983025  0.38878139  1
  P  P226  1  0.44822596  0.74928649  0.63998770  1
  P  P227  1  0.44621162  0.74933813  0.89034728  1
  P  P228  1  0.94614688  0.08433502  0.14038890  1
  P  P229  1  0.94682322  0.08268386  0.38828720  1
  P  P230  1  0.94726229  0.08309344  0.64076719  1
  P  P231  1  0.94669734  0.08358813  0.88905104  1
  P  P232  1  0.94518105  0.41575428  0.13919749  1
  P  P233  1  0.94602020  0.41656515  0.38958324  1
  P  P234  1  0.94599911  0.41621759  0.63972178  1
  P  P235  1  0.94594462  0.41581239  0.88910739  1
  P  P236  1  0.94687088  0.74972125  0.13919263  1
  P  P237  1  0.94603757  0.75079928  0.38889247  1
  P  P238  1  0.94607785  0.75048171  0.63959400  1
  P  P239  1  0.94594322  0.75058341  0.88950523  1
  P  P240  1  0.19521231  0.08266672  0.23632362  1
  P  P241  1  0.19406639  0.08340048  0.48555222  1
  P  P242  1  0.19573727  0.08382403  0.73535049  1
  P  P243  1  0.19666278  0.08409438  0.98457984  1
  P  P244  1  0.19575414  0.41667760  0.23597780  1
  P  P245  1  0.19622308  0.41662645  0.48552470  1
  P  P246  1  0.19490631  0.41625292  0.73505004  1
  P  P247  1  0.19687529  0.41593180  0.98423298  1
  P  P248  1  0.19520997  0.75058024  0.23568148  1
  P  P249  1  0.19380206  0.74977549  0.48589841  1
  P  P250  1  0.19417940  0.75009526  0.73521072  1
  P  P251  1  0.19394283  0.74990440  0.98530529  1
  P  P252  1  0.69631521  0.08322947  0.23507627  1
  P  P253  1  0.69658000  0.08417834  0.48437864  1
  P  P254  1  0.69755715  0.08396232  0.73705862  1
  P  P255  1  0.69462346  0.08345458  0.98531614  1
  P  P256  1  0.69809109  0.41667332  0.23491400  1
  P  P257  1  0.69676763  0.41605084  0.48603010  1
  P  P258  1  0.69732763  0.41587981  0.73527880  1
  P  P259  1  0.69859929  0.41666656  0.98509300  1
  P  P260  1  0.69833341  0.75032564  0.23454699  1
  P  P261  1  0.69742205  0.75008248  0.48602159  1
  P  P262  1  0.69829881  0.75012107  0.73460360  1
  P  P263  1  0.69740187  0.74998162  0.98593035  1
  P  P264  1  0.30363109  0.24984384  0.01386343  1
  P  P265  1  0.30545338  0.24940524  0.26493159  1
  P  P266  1  0.30496367  0.25058763  0.51398911  1
  P  P267  1  0.30409238  0.24911116  0.76517535  1
  P  P268  1  0.30241515  0.58250324  0.01320137  1
  P  P269  1  0.30353445  0.58480845  0.26580147  1
  P  P270  1  0.30522330  0.58243680  0.51492768  1
  P  P271  1  0.30529554  0.58350722  0.76403867  1
  P  P272  1  0.30115570  0.91781448  0.01480054  1
  P  P273  1  0.30110825  0.91555335  0.26529401  1
  P  P274  1  0.30219178  0.91670805  0.51554645  1
  P  P275  1  0.30263531  0.91743256  0.76504452  1
  P  P276  1  0.80562226  0.25057581  0.01434896  1
  P  P277  1  0.80499003  0.24964308  0.26341733  1
  P  P278  1  0.80214823  0.25047008  0.51502470  1
  P  P279  1  0.80331865  0.24995772  0.76570062  1
  P  P280  1  0.80417522  0.58342537  0.01503633  1
  P  P281  1  0.80389347  0.58360995  0.26504419  1
  P  P282  1  0.80393260  0.58313004  0.51510683  1
  P  P283  1  0.80379844  0.58322043  0.76504189  1
  P  P284  1  0.80549312  0.91617796  0.01370151  1
  P  P285  1  0.80474759  0.91687497  0.26517042  1
  P  P286  1  0.80648819  0.91633215  0.51419406  1
  P  P287  1  0.80661359  0.91688955  0.76448220  1
  O  O288  1  0.05706171  0.25032080  0.18571188  1
  O  O289  1  0.05653225  0.25072908  0.43671506  1
  O  O290  1  0.05557621  0.25027762  0.68704069  1
  O  O291  1  0.05853091  0.25021746  0.93811811  1
  O  O292  1  0.05700622  0.58303352  0.18590728  1
  O  O293  1  0.05621246  0.58264300  0.43697065  1
  O  O294  1  0.05570296  0.58281187  0.68703577  1
  O  O295  1  0.05866852  0.58243108  0.93796399  1
  O  O296  1  0.05901939  0.91661427  0.18728953  1
  O  O297  1  0.05519943  0.91651566  0.43615742  1
  O  O298  1  0.05451411  0.91665255  0.68724923  1
  O  O299  1  0.05831628  0.91745819  0.93835283  1
  O  O300  1  0.55587123  0.25023949  0.18662789  1
  O  O301  1  0.55866175  0.25017827  0.43784110  1
  O  O302  1  0.56080606  0.25007776  0.68811800  1
  O  O303  1  0.55622723  0.25009829  0.93656153  1
  O  O304  1  0.55638135  0.58362150  0.18705858  1
  O  O305  1  0.55605669  0.58311873  0.43649896  1
  O  O306  1  0.55652086  0.58321333  0.68682926  1
  O  O307  1  0.55603688  0.58301186  0.93710332  1
  O  O308  1  0.55667936  0.91647465  0.18692871  1
  O  O309  1  0.55722056  0.91692429  0.43672916  1
  O  O310  1  0.55762010  0.91607191  0.68695560  1
  O  O311  1  0.55661331  0.91697451  0.93682485  1
  O  O312  1  0.44048192  0.08298812  0.06186103  1
  O  O313  1  0.44435605  0.08317943  0.31364380  1
  O  O314  1  0.44308742  0.08331613  0.56409114  1
  O  O315  1  0.44081218  0.08321189  0.81255873  1
  O  O316  1  0.43985420  0.41636766  0.06169513  1
  O  O317  1  0.44333468  0.41667984  0.31392603  1
  O  O318  1  0.44213077  0.41637294  0.56208903  1
  O  O319  1  0.44362020  0.41622397  0.81354444  1
  O  O320  1  0.44202395  0.75071803  0.06399426  1
  O  O321  1  0.44038663  0.75078639  0.31212452  1
  O  O322  1  0.44418822  0.75028273  0.56331008  1
  O  O323  1  0.44315283  0.75010102  0.81361287  1
  O  O324  1  0.94335847  0.08347069  0.06360902  1
  O  O325  1  0.94189777  0.08360933  0.31171523  1
  O  O326  1  0.94389748  0.08420983  0.56403334  1
  O  O327  1  0.94211589  0.08393020  0.81237883  1
  O  O328  1  0.94142853  0.41682552  0.06240029  1
  O  O329  1  0.94113964  0.41665095  0.31286215  1
  O  O330  1  0.94084851  0.41616812  0.56303712  1
  O  O331  1  0.94102289  0.41647673  0.81242375  1
  O  O332  1  0.94215395  0.74972907  0.06251037  1
  O  O333  1  0.94163762  0.74972421  0.31217204  1
  O  O334  1  0.94190647  0.74938668  0.56284425  1
  O  O335  1  0.94135995  0.74952401  0.81279846  1
  O  O336  1  0.19320984  0.08424952  0.06130475  1
  O  O337  1  0.19074522  0.08349070  0.31307435  1
  O  O338  1  0.18964024  0.08332952  0.56234208  1
  O  O339  1  0.19044802  0.08383784  0.81201614  1
  O  O340  1  0.19375815  0.41592510  0.06098285  1
  O  O341  1  0.19135737  0.41651124  0.31270665  1
  O  O342  1  0.19097615  0.41654003  0.56219989  1
  O  O343  1  0.19034122  0.41609753  0.81176503  1
  O  O344  1  0.19085085  0.74966084  0.06215510  1
  O  O345  1  0.19062640  0.74979929  0.31242982  1
  O  O346  1  0.18896844  0.75005466  0.56264700  1
  O  O347  1  0.18969098  0.75022736  0.81196069  1
  O  O348  1  0.69019128  0.08344021  0.06210948  1
  O  O349  1  0.69138471  0.08352404  0.31175473  1
  O  O350  1  0.69388755  0.08297986  0.56121094  1
  O  O351  1  0.69219210  0.08332138  0.81364552  1
  O  O352  1  0.69424094  0.41633701  0.06173079  1
  O  O353  1  0.69364923  0.41639729  0.31159388  1
  O  O354  1  0.69178724  0.41709449  0.56268392  1
  O  O355  1  0.69357097  0.41671234  0.81195490  1
  O  O356  1  0.69200400  0.75033014  0.06250746  1
  O  O357  1  0.69418643  0.75042937  0.31128468  1
  O  O358  1  0.69212687  0.74999523  0.56263269  1
  O  O359  1  0.69414661  0.75009516  0.81132811  1
  O  O360  1  0.30929097  0.24922876  0.18809398  1
  O  O361  1  0.30910359  0.24979923  0.43725027  1
  O  O362  1  0.30729978  0.24995414  0.68840770  1
  O  O363  1  0.30811109  0.24969412  0.93719160  1
  O  O364  1  0.30592220  0.58386549  0.18890956  1
  O  O365  1  0.30898543  0.58328587  0.43814476  1
  O  O366  1  0.30989407  0.58361876  0.68729255  1
  O  O367  1  0.30723024  0.58324398  0.93653873  1
  O  O368  1  0.30488215  0.91652660  0.18859685  1
  O  O369  1  0.30570445  0.91655619  0.43878202  1
  O  O370  1  0.30605351  0.91647706  0.68831605  1
  O  O371  1  0.30516906  0.91726741  0.93816253  1
  O  O372  1  0.80883857  0.24936226  0.18670688  1
  O  O373  1  0.80609898  0.24984542  0.43833208  1
  O  O374  1  0.80631440  0.24949303  0.68898234  1
  O  O375  1  0.80976598  0.24960715  0.93757852  1
  O  O376  1  0.80683069  0.58368180  0.18832454  1
  O  O377  1  0.80693311  0.58328874  0.43837098  1
  O  O378  1  0.80657522  0.58329620  0.68831840  1
  O  O379  1  0.80703920  0.58352104  0.93825308  1
  O  O380  1  0.80718597  0.91699512  0.18834547  1
  O  O381  1  0.81044708  0.91713170  0.43744835  1
  O  O382  1  0.81011769  0.91717008  0.68759689  1
  O  O383  1  0.80977343  0.91692487  0.93694151  1
  O  O384  1  0.23326741  0.24974332  0.03795427  1
  O  O385  1  0.23540053  0.24984902  0.28899634  1
  O  O386  1  0.23499242  0.25019399  0.53829889  1
  O  O387  1  0.23428400  0.24984674  0.78987953  1
  O  O388  1  0.23206281  0.58280820  0.03700048  1
  O  O389  1  0.23401660  0.58375689  0.29137591  1
  O  O390  1  0.23519141  0.58296473  0.53913200  1
  O  O391  1  0.23501810  0.58316916  0.78738437  1
  O  O392  1  0.23099327  0.91738913  0.03901337  1
  O  O393  1  0.23118111  0.91595458  0.29013917  1
  O  O394  1  0.23242159  0.91693749  0.54029952  1
  O  O395  1  0.23285396  0.91752280  0.78982765  1
  O  O396  1  0.73555127  0.24996095  0.03844251  1
  O  O397  1  0.73507203  0.25028028  0.28799771  1
  O  O398  1  0.73224715  0.24997220  0.53970143  1
  O  O399  1  0.73333294  0.25033483  0.79076312  1
  O  O400  1  0.73471220  0.58330216  0.04064638  1
  O  O401  1  0.73441524  0.58366021  0.29093813  1
  O  O402  1  0.73438128  0.58325564  0.54054916  1
  O  O403  1  0.73427721  0.58325849  0.79072254  1
  O  O404  1  0.73554239  0.91661547  0.03792952  1
  O  O405  1  0.73524233  0.91642667  0.29087013  1
  O  O406  1  0.73648915  0.91711443  0.53853665  1
  O  O407  1  0.73667408  0.91645746  0.78908418  1
  O  O408  1  0.26518381  0.08289180  0.21214641  1
  O  O409  1  0.26418257  0.08326440  0.46170983  1
  O  O410  1  0.26613630  0.08371238  0.71209492  1
  O  O411  1  0.26682148  0.08410518  0.96017710  1
  O  O412  1  0.26574432  0.41693281  0.21193342  1
  O  O413  1  0.26667105  0.41676385  0.46235482  1
  O  O414  1  0.26513919  0.41616732  0.71156391  1
  O  O415  1  0.26686330  0.41612741  0.95929489  1
  O  O416  1  0.26537608  0.74999931  0.21145137  1
  O  O417  1  0.26407308  0.74976442  0.46272777  1
  O  O418  1  0.26428029  0.75001700  0.71138579  1
  O  O419  1  0.26382304  0.75013050  0.96041245  1
  O  O420  1  0.76676535  0.08296417  0.21166673  1
  O  O421  1  0.76630855  0.08392215  0.45929693  1
  O  O422  1  0.76798023  0.08382531  0.71344239  1
  O  O423  1  0.76489706  0.08354273  0.96193910  1
  O  O424  1  0.76836651  0.41643107  0.21116470  1
  O  O425  1  0.76712803  0.41631860  0.46237520  1
  O  O426  1  0.76758547  0.41602085  0.71101404  1
  O  O427  1  0.76874511  0.41668451  0.96101851  1
  O  O428  1  0.76861760  0.75054112  0.21064119  1
  O  O429  1  0.76794702  0.74999861  0.46290003  1
  O  O430  1  0.76862214  0.75034072  0.71082904  1
  O  O431  1  0.76784781  0.74984277  0.96257247  1
  O  O432  1  0.01591047  0.08373297  0.16520983  1
  O  O433  1  0.01712211  0.08283421  0.41209648  1
  O  O434  1  0.01727403  0.08335490  0.66557234  1
  O  O435  1  0.01697903  0.08369348  0.91305625  1
  O  O436  1  0.01523359  0.41652770  0.16326599  1
  O  O437  1  0.01642657  0.41652766  0.41300017  1
  O  O438  1  0.01642967  0.41629843  0.66299273  1
  O  O439  1  0.01641004  0.41612618  0.91252702  1
  O  O440  1  0.01724477  0.74974739  0.16262838  1
  O  O441  1  0.01643408  0.75045883  0.41252784  1
  O  O442  1  0.01632633  0.74991915  0.66370424  1
  O  O443  1  0.01642502  0.75028128  0.91280782  1
  O  O444  1  0.51628074  0.08372767  0.16190369  1
  O  O445  1  0.51814638  0.08372137  0.41516654  1
  O  O446  1  0.51628089  0.08330327  0.66533421  1
  O  O447  1  0.51581241  0.08381019  0.91281817  1
  O  O448  1  0.51444468  0.41647141  0.16275264  1
  O  O449  1  0.51539870  0.41641668  0.41623706  1
  O  O450  1  0.51743830  0.41703834  0.66247363  1
  O  O451  1  0.51507201  0.41611134  0.91637496  1
  O  O452  1  0.51666126  0.75022001  0.16474766  1
  O  O453  1  0.51502281  0.75006480  0.41278648  1
  O  O454  1  0.51821460  0.74906026  0.66470594  1
  O  O455  1  0.51594474  0.74997181  0.91540998  1
  O  O456  1  0.48193978  0.24916336  0.08539973  1
  O  O457  1  0.48340084  0.25016352  0.33744726  1
  O  O458  1  0.48645919  0.24981250  0.58760343  1
  O  O459  1  0.48263520  0.25005389  0.83526770  1
  O  O460  1  0.48332621  0.58429890  0.08546265  1
  O  O461  1  0.48148688  0.58307138  0.33580406  1
  O  O462  1  0.48311375  0.58371043  0.58521082  1
  O  O463  1  0.48170746  0.58256503  0.83620686  1
  O  O464  1  0.48379533  0.91675804  0.08483916  1
  O  O465  1  0.48390311  0.91759994  0.33497030  1
  O  O466  1  0.48459945  0.91635692  0.58495156  1
  O  O467  1  0.48388031  0.91679662  0.83502515  1
  O  O468  1  0.98274865  0.24989988  0.08507429  1
  O  O469  1  0.98402112  0.25049244  0.33472255  1
  O  O470  1  0.98360538  0.24981022  0.58436982  1
  O  O471  1  0.98342049  0.25012353  0.83758036  1
  O  O472  1  0.98478990  0.58319326  0.08379545  1
  O  O473  1  0.98402431  0.58316823  0.33446846  1
  O  O474  1  0.98372775  0.58300724  0.58445564  1
  O  O475  1  0.98504986  0.58290971  0.83657298  1
  O  O476  1  0.98550951  0.91691802  0.08620441  1
  O  O477  1  0.98273009  0.91625209  0.33411334  1
  O  O478  1  0.98156774  0.91707369  0.58522197  1
  O  O479  1  0.98350278  0.91664727  0.83780937  1
  O  O480  1  0.08667368  0.31502811  0.07591563  1
  O  O481  1  0.08759528  0.31581894  0.32758119  1
  O  O482  1  0.08733605  0.31507623  0.57793877  1
  O  O483  1  0.08695211  0.31521238  0.82806963  1
  O  O484  1  0.08844479  0.64897472  0.07719393  1
  O  O485  1  0.08766437  0.64808986  0.32821893  1
  O  O486  1  0.08738868  0.64802372  0.57821297  1
  O  O487  1  0.08841211  0.64811639  0.82862467  1
  O  O488  1  0.08964098  0.98065440  0.07728880  1
  O  O489  1  0.08682217  0.98133548  0.32689001  1
  O  O490  1  0.08540737  0.98195930  0.57828562  1
  O  O491  1  0.08675404  0.98215494  0.82818899  1
  O  O492  1  0.58554381  0.31452273  0.07687252  1
  O  O493  1  0.58711366  0.31443798  0.32751028  1
  O  O494  1  0.58953460  0.31610154  0.57820329  1
  O  O495  1  0.58707042  0.31425873  0.82714687  1
  O  O496  1  0.58706468  0.64992414  0.07838971  1
  O  O497  1  0.58552066  0.64804158  0.32713451  1
  O  O498  1  0.58705071  0.64862343  0.57757892  1
  O  O499  1  0.58556832  0.64782263  0.82749715  1
  O  O500  1  0.58775418  0.98140980  0.07791432  1
  O  O501  1  0.58760527  0.98305067  0.32786020  1
  O  O502  1  0.58878387  0.98046307  0.57799267  1
  O  O503  1  0.58729332  0.98293080  0.82780359  1
  O  O504  1  0.41286289  0.01865797  0.17238646  1
  O  O505  1  0.41401335  0.01918033  0.42311549  1
  O  O506  1  0.41222502  0.01814185  0.67335542  1
  O  O507  1  0.41171132  0.01958115  0.92316962  1
  O  O508  1  0.41136975  0.35037017  0.17120010  1
  O  O509  1  0.41148153  0.35140352  0.42296613  1
  O  O510  1  0.41373924  0.35252501  0.67244138  1
  O  O511  1  0.41099097  0.35103995  0.92214077  1
  O  O512  1  0.41212215  0.68573919  0.17325377  1
  O  O513  1  0.41162767  0.68444550  0.42155666  1
  O  O514  1  0.41399726  0.68428304  0.67216430  1
  O  O515  1  0.41236959  0.68403939  0.92251728  1
  O  O516  1  0.91169946  0.01958988  0.17308443  1
  O  O517  1  0.91369150  0.01750246  0.42124091  1
  O  O518  1  0.91327846  0.01802252  0.67299368  1
  O  O519  1  0.91351502  0.01844633  0.92222642  1
  O  O520  1  0.91199565  0.35034147  0.17176288  1
  O  O521  1  0.91257841  0.35162345  0.42301961  1
  O  O522  1  0.91268981  0.35124182  0.67316713  1
  O  O523  1  0.91264872  0.35078882  0.92220555  1
  O  O524  1  0.91356837  0.68483344  0.17267432  1
  O  O525  1  0.91261457  0.68606171  0.42286090  1
  O  O526  1  0.91240221  0.68578548  0.67329267  1
  O  O527  1  0.91273606  0.68562465  0.92323562  1
  O  O528  1  0.16168501  0.01744902  0.20378688  1
  O  O529  1  0.16022270  0.01851659  0.45244775  1
  O  O530  1  0.16215446  0.01896572  0.70188846  1
  O  O531  1  0.16268528  0.01908211  0.95183490  1
  O  O532  1  0.16253630  0.35164890  0.20253745  1
  O  O533  1  0.16296964  0.35173725  0.45184940  1
  O  O534  1  0.16136693  0.35135783  0.70174520  1
  O  O535  1  0.16304482  0.35074630  0.95163351  1
  O  O536  1  0.16140011  0.68578234  0.20218729  1
  O  O537  1  0.16057181  0.68473945  0.45253832  1
  O  O538  1  0.16057639  0.68516571  0.70202120  1
  O  O539  1  0.16017046  0.68491784  0.95237819  1
  O  O540  1  0.66288854  0.01819833  0.20186563  1
  O  O541  1  0.66227914  0.01938994  0.45156188  1
  O  O542  1  0.66464338  0.01898629  0.70303274  1
  O  O543  1  0.66127829  0.01851796  0.95195543  1
  O  O544  1  0.66441274  0.35181539  0.20166325  1
  O  O545  1  0.66365477  0.35079606  0.45296854  1
  O  O546  1  0.66354799  0.35074845  0.70298387  1
  O  O547  1  0.66498139  0.35165085  0.95209575  1
  O  O548  1  0.66452505  0.68534724  0.20178410  1
  O  O549  1  0.66421664  0.68513677  0.45238140  1
  O  O550  1  0.66465560  0.68498667  0.70182502  1
  O  O551  1  0.66420987  0.68490012  0.95252233  1
  O  O552  1  0.33695460  0.31500380  0.04699477  1
  O  O553  1  0.33937846  0.31432392  0.29775567  1
  O  O554  1  0.33832722  0.31587622  0.54683752  1
  O  O555  1  0.33856313  0.31385872  0.79793137  1
  O  O556  1  0.33558226  0.64748685  0.04693783  1
  O  O557  1  0.33723203  0.65028748  0.29757499  1
  O  O558  1  0.33912804  0.64723735  0.54825586  1
  O  O559  1  0.33841160  0.64847845  0.79760459  1
  O  O560  1  0.33464081  0.98297028  0.04754068  1
  O  O561  1  0.33518334  0.98044367  0.29832912  1
  O  O562  1  0.33640120  0.98168915  0.54775777  1
  O  O563  1  0.33668922  0.98260112  0.79718644  1
  O  O564  1  0.83917458  0.31577119  0.04688902  1
  O  O565  1  0.83895135  0.31459369  0.29626765  1
  O  O566  1  0.83589475  0.31550287  0.54766491  1
  O  O567  1  0.83767728  0.31502293  0.79781630  1
  O  O568  1  0.83846281  0.64846931  0.04730716  1
  O  O569  1  0.83816809  0.64881765  0.29708859  1
  O  O570  1  0.83829429  0.64820203  0.54730827  1
  O  O571  1  0.83815102  0.64827763  0.79723751  1
  O  O572  1  0.83903850  0.98118741  0.04688537  1
  O  O573  1  0.83887147  0.98211288  0.29742241  1
  O  O574  1  0.84047039  0.98110247  0.54754310  1
  O  O575  1  0.84020069  0.98200221  0.79752121  1
  O  O576  1  0.41255619  0.14872730  0.17167243  1
  O  O577  1  0.41452482  0.14929566  0.42282221  1
  O  O578  1  0.41220124  0.14802736  0.67348628  1
  O  O579  1  0.41229044  0.14961738  0.92212446  1
  O  O580  1  0.41057718  0.48070440  0.17148709  1
  O  O581  1  0.41130516  0.48154941  0.42280530  1
  O  O582  1  0.41380569  0.48252477  0.67158836  1
  O  O583  1  0.41092901  0.48114165  0.92249193  1
  O  O584  1  0.41274246  0.81564846  0.17364290  1
  O  O585  1  0.41135746  0.81467417  0.42241427  1
  O  O586  1  0.41447001  0.81430281  0.67311354  1
  O  O587  1  0.41185157  0.81426277  0.92295272  1
  O  O588  1  0.91227641  0.14956550  0.17249121  1
  O  O589  1  0.91374348  0.14756843  0.42234893  1
  O  O590  1  0.91314942  0.14790885  0.67387463  1
  O  O591  1  0.91319572  0.14853907  0.92218117  1
  O  O592  1  0.91119211  0.48040705  0.17268054  1
  O  O593  1  0.91265016  0.48148505  0.42301047  1
  O  O594  1  0.91265138  0.48111068  0.67327924  1
  O  O595  1  0.91271597  0.48077214  0.92286751  1
  O  O596  1  0.91353609  0.81467883  0.17259419  1
  O  O597  1  0.91277912  0.81599670  0.42168303  1
  O  O598  1  0.91292617  0.81578960  0.67228328  1
  O  O599  1  0.91282608  0.81568059  0.92261085  1
  O  O600  1  0.08687919  0.18522524  0.07620947  1
  O  O601  1  0.08768041  0.18543652  0.32771818  1
  O  O602  1  0.08742996  0.18485186  0.57848692  1
  O  O603  1  0.08700947  0.18511533  0.82818698  1
  O  O604  1  0.08898552  0.51894542  0.07650908  1
  O  O605  1  0.08752045  0.51769968  0.32788611  1
  O  O606  1  0.08742286  0.51777992  0.57804761  1
  O  O607  1  0.08849922  0.51772179  0.82828235  1
  O  O608  1  0.08867606  0.85059651  0.07785668  1
  O  O609  1  0.08681095  0.85140010  0.32706031  1
  O  O610  1  0.08510607  0.85176404  0.57784621  1
  O  O611  1  0.08703657  0.85193972  0.82850527  1
  O  O612  1  0.58601355  0.18443073  0.07753477  1
  O  O613  1  0.58677443  0.18427763  0.32799543  1
  O  O614  1  0.59056918  0.18596726  0.57805972  1
  O  O615  1  0.58663069  0.18432243  0.82731886  1
  O  O616  1  0.58709713  0.51952271  0.07748057  1
  O  O617  1  0.58515009  0.51785075  0.32701036  1
  O  O618  1  0.58681517  0.51841735  0.57735290  1
  O  O619  1  0.58561366  0.51774743  0.82773824  1
  O  O620  1  0.58735258  0.85094728  0.07802182  1
  O  O621  1  0.58774570  0.85281192  0.32729056  1
  O  O622  1  0.58789825  0.85012529  0.57784253  1
  O  O623  1  0.58823931  0.85274350  0.82779454  1
  O  O624  1  0.33713262  0.18482469  0.04727569  1
  O  O625  1  0.33896957  0.18440571  0.29812622  1
  O  O626  1  0.33865455  0.18571538  0.54719456  1
  O  O627  1  0.33779427  0.18389582  0.79758266  1
  O  O628  1  0.33554490  0.51734489  0.04627995  1
  O  O629  1  0.33852615  0.52022431  0.29828674  1
  O  O630  1  0.33872442  0.51717134  0.54756819  1
  O  O631  1  0.33875745  0.51843876  0.79719624  1
  O  O632  1  0.33478435  0.85277611  0.04782108  1
  O  O633  1  0.33480847  0.85035717  0.29756856  1
  O  O634  1  0.33597817  0.85156862  0.54820273  1
  O  O635  1  0.33633834  0.85238150  0.79799908  1
  O  O636  1  0.83948899  0.18578269  0.04770048  1
  O  O637  1  0.83810523  0.18426841  0.29661562  1
  O  O638  1  0.83608989  0.18546450  0.54786072  1
  O  O639  1  0.83744518  0.18511509  0.79864722  1
  O  O640  1  0.83852917  0.51827565  0.04696280  1
  O  O641  1  0.83806606  0.51839234  0.29716336  1
  O  O642  1  0.83797219  0.51793980  0.54733028  1
  O  O643  1  0.83803595  0.51801064  0.79704681  1
  O  O644  1  0.83904801  0.85106190  0.04646579  1
  O  O645  1  0.83947339  0.85196091  0.29718440  1
  O  O646  1  0.83984019  0.85098585  0.54692565  1
  O  O647  1  0.84061271  0.85181097  0.79701508  1
  O  O648  1  0.16183192  0.14760039  0.20273611  1
  O  O649  1  0.16058774  0.14839400  0.45232014  1
  O  O650  1  0.16249748  0.14877166  0.70185516  1
  O  O651  1  0.16279692  0.14905861  0.95166660  1
  O  O652  1  0.16217268  0.48167581  0.20295802  1
  O  O653  1  0.16281962  0.48154079  0.45205471  1
  O  O654  1  0.16149598  0.48122534  0.70170904  1
  O  O655  1  0.16260550  0.48072727  0.95149989  1
  O  O656  1  0.16177632  0.81573756  0.20283854  1
  O  O657  1  0.16031091  0.81464379  0.45239030  1
  O  O658  1  0.16045409  0.81505629  0.70210016  1
  O  O659  1  0.16001797  0.81512785  0.95285547  1
  O  O660  1  0.66301174  0.14819667  0.20151727  1
  O  O661  1  0.66246197  0.14945122  0.45242234  1
  O  O662  1  0.66429703  0.14908025  0.70409248  1
  O  O663  1  0.66109520  0.14845183  0.95215912  1
  O  O664  1  0.66466495  0.48186558  0.20220147  1
  O  O665  1  0.66349930  0.48095630  0.45228633  1
  O  O666  1  0.66351416  0.48080211  0.70199635  1
  O  O667  1  0.66489688  0.48165090  0.95228126  1
  O  O668  1  0.66453041  0.81521618  0.20150105  1
  O  O669  1  0.66456136  0.81517601  0.45239323  1
  O  O670  1  0.66461089  0.81502276  0.70159775  1
  O  O671  1  0.66447760  0.81495314  0.95208518  1
