# generated using pymatgen
data_Na2MnFe(PO4)2
_symmetry_space_group_name_H-M   'P 1'
_cell_length_a   21.09160436
_cell_length_b   18.94502854
_cell_length_c   20.04999254
_cell_angle_alpha   89.99962446
_cell_angle_beta   90.00403588
_cell_angle_gamma   89.99992102
_symmetry_Int_Tables_number   1
_chemical_formula_structural   Na2MnFe(PO4)2
_chemical_formula_sum   'Na96 Mn48 Fe48 P96 O384'
_cell_volume   8011.59698210
_cell_formula_units_Z   48
loop_
 _symmetry_equiv_pos_site_id
 _symmetry_equiv_pos_as_xyz
  1  'x, y, z'
loop_
 _atom_site_type_symbol
 _atom_site_label
 _atom_site_symmetry_multiplicity
 _atom_site_fract_x
 _atom_site_fract_y
 _atom_site_fract_z
 _atom_site_occupancy
  Na  Na0  1  -0.00325111  -0.00112739  -0.00035434  1
  Na  Na1  1  -0.00002293  0.00030055  0.24932729  1
  Na  Na2  1  -0.00055762  -0.00051248  0.50122353  1
  Na  Na3  1  -0.00101550  0.00012924  0.74947702  1
  Na  Na4  1  -0.00029130  0.33309300  -0.00094300  1
  Na  Na5  1  0.00188149  0.33444156  0.24900902  1
  Na  Na6  1  0.00033111  0.33437117  0.50028727  1
  Na  Na7  1  -0.00052404  0.33368110  0.75078710  1
  Na  Na8  1  0.00090110  0.66736616  0.00006872  1
  Na  Na9  1  0.00139600  0.66696236  0.24862908  1
  Na  Na10  1  0.00061417  0.66676045  0.50004744  1
  Na  Na11  1  -0.00200277  0.66593912  0.75194525  1
  Na  Na12  1  0.49792324  -0.00036846  -0.00037253  1
  Na  Na13  1  0.49929489  0.00042335  0.24909980  1
  Na  Na14  1  0.49836865  -0.00047746  0.50028952  1
  Na  Na15  1  0.49854839  -0.00074517  0.75048134  1
  Na  Na16  1  0.49916377  0.33293027  0.00047172  1
  Na  Na17  1  0.50045589  0.33411908  0.24932417  1
  Na  Na18  1  0.49851488  0.33232182  0.49962198  1
  Na  Na19  1  0.49935466  0.33246026  0.75123711  1
  Na  Na20  1  0.50265422  0.66762791  -0.00056508  1
  Na  Na21  1  0.49972840  0.66595864  0.25067626  1
  Na  Na22  1  0.49897655  0.66626324  0.50038449  1
  Na  Na23  1  0.49866410  0.66601929  0.74987314  1
  Na  Na24  1  0.25171514  0.00088538  0.12363621  1
  Na  Na25  1  0.24908060  -0.00076275  0.37516220  1
  Na  Na26  1  0.25173045  0.00007565  0.62540010  1
  Na  Na27  1  0.25270491  0.00060590  0.87514622  1
  Na  Na28  1  0.25040433  0.33402321  0.12486983  1
  Na  Na29  1  0.24936376  0.33346290  0.37476561  1
  Na  Na30  1  0.24960032  0.33383160  0.62588580  1
  Na  Na31  1  0.25009600  0.33329969  0.87467335  1
  Na  Na32  1  0.24630263  0.66493926  0.12468028  1
  Na  Na33  1  0.25012180  0.66684083  0.37443665  1
  Na  Na34  1  0.25210541  0.66752334  0.62510591  1
  Na  Na35  1  0.25081168  0.66706897  0.87612093  1
  Na  Na36  1  0.75161936  -0.00025284  0.12470272  1
  Na  Na37  1  0.75209433  0.00044272  0.37400470  1
  Na  Na38  1  0.75099001  0.00031285  0.62530896  1
  Na  Na39  1  0.75206821  0.00077921  0.87585556  1
  Na  Na40  1  0.74933220  0.33316714  0.12437041  1
  Na  Na41  1  0.74892185  0.33313671  0.37386069  1
  Na  Na42  1  0.75164140  0.33402553  0.62502253  1
  Na  Na43  1  0.75040892  0.33311330  0.87663687  1
  Na  Na44  1  0.75004219  0.66688795  0.12489903  1
  Na  Na45  1  0.75133746  0.66700368  0.37495370  1
  Na  Na46  1  0.74994271  0.66656002  0.62506734  1
  Na  Na47  1  0.74992357  0.66726570  0.87542824  1
  Na  Na48  1  -0.00110346  0.16683815  -0.00118347  1
  Na  Na49  1  -0.00055437  0.16721061  0.24916934  1
  Na  Na50  1  -0.00119325  0.16698859  0.50073265  1
  Na  Na51  1  -0.00265331  0.16749558  0.75077317  1
  Na  Na52  1  0.00159674  0.49892762  0.00011556  1
  Na  Na53  1  0.00168697  0.49916175  0.24858154  1
  Na  Na54  1  0.00008947  0.49979020  0.50048937  1
  Na  Na55  1  0.00029258  0.49928410  0.75098253  1
  Na  Na56  1  -0.00236248  0.83397227  0.00001912  1
  Na  Na57  1  0.00176372  0.83239255  0.24914276  1
  Na  Na58  1  0.00152096  0.83268775  0.50016768  1
  Na  Na59  1  -0.00147077  0.83389849  0.75045605  1
  Na  Na60  1  0.49882130  0.16758400  -0.00013123  1
  Na  Na61  1  0.49894265  0.16721346  0.24899390  1
  Na  Na62  1  0.49962901  0.16665709  0.49996020  1
  Na  Na63  1  0.49832613  0.16796930  0.75128250  1
  Na  Na64  1  0.49942987  0.50002933  0.00046933  1
  Na  Na65  1  0.49939501  0.50001625  0.24962782  1
  Na  Na66  1  0.50044619  0.49949681  0.49944523  1
  Na  Na67  1  0.49906852  0.50059663  0.75092503  1
  Na  Na68  1  0.50126264  0.83279560  -0.00088610  1
  Na  Na69  1  0.50128519  0.83210229  0.25033209  1
  Na  Na70  1  0.49724523  0.83401520  0.50101804  1
  Na  Na71  1  0.49981179  0.83311896  0.74944034  1
  Na  Na72  1  0.25167752  0.16715081  0.12450177  1
  Na  Na73  1  0.25168986  0.16644598  0.37429469  1
  Na  Na74  1  0.25225652  0.16630576  0.62603785  1
  Na  Na75  1  0.25272258  0.16652810  0.87449036  1
  Na  Na76  1  0.24875568  0.49964988  0.12461313  1
  Na  Na77  1  0.24883753  0.49959382  0.37541464  1
  Na  Na78  1  0.24839181  0.50043225  0.62510456  1
  Na  Na79  1  0.24999936  0.49921892  0.87535497  1
  Na  Na80  1  0.24726750  0.83410345  0.12429423  1
  Na  Na81  1  0.24888876  0.83326390  0.37436586  1
  Na  Na82  1  0.25181078  0.83264346  0.62533613  1
  Na  Na83  1  0.25099695  0.83305161  0.87594606  1
  Na  Na84  1  0.75059124  0.16743580  0.12469249  1
  Na  Na85  1  0.74963333  0.16742640  0.37407831  1
  Na  Na86  1  0.75134543  0.16636553  0.62521172  1
  Na  Na87  1  0.75181722  0.16633369  0.87564821  1
  Na  Na88  1  0.74807402  0.50104592  0.12539186  1
  Na  Na89  1  0.75195476  0.49969712  0.37438796  1
  Na  Na90  1  0.75069741  0.49987508  0.62486687  1
  Na  Na91  1  0.75104882  0.49865578  0.87577727  1
  Na  Na92  1  0.75181884  0.83234220  0.12403218  1
  Na  Na93  1  0.74949436  0.83358871  0.37453422  1
  Na  Na94  1  0.75065254  0.83281525  0.62541608  1
  Na  Na95  1  0.75038077  0.83293612  0.87620405  1
  Mn  Mn96  1  0.35687511  0.74973488  0.25137433  1
  Mn  Mn97  1  0.10695022  0.75050999  0.87264835  1
  Mn  Mn98  1  0.39224313  0.91609600  0.12750775  1
  Mn  Mn99  1  0.64310437  0.91708818  0.99778914  1
  Mn  Mn100  1  0.89201365  0.25098140  0.37699448  1
  Mn  Mn101  1  0.60721209  0.08337376  0.12228556  1
  Mn  Mn102  1  0.89323619  0.91606342  0.37727284  1
  Mn  Mn103  1  0.39220564  0.58346902  0.12713414  1
  Mn  Mn104  1  0.39211772  0.58273361  0.62722603  1
  Mn  Mn105  1  0.85791560  0.41729381  0.25151816  1
  Mn  Mn106  1  0.10794735  0.08362561  0.37260759  1
  Mn  Mn107  1  0.89156281  0.25043390  0.62757625  1
  Mn  Mn108  1  0.35740355  0.41693434  0.50259484  1
  Mn  Mn109  1  0.60750598  0.08282428  0.87307552  1
  Mn  Mn110  1  0.85864560  0.74998679  0.50194228  1
  Mn  Mn111  1  0.64228106  0.58342722  0.24826877  1
  Mn  Mn112  1  0.60730527  0.74996986  0.62304467  1
  Mn  Mn113  1  0.14243143  0.24955587  0.24709661  1
  Mn  Mn114  1  0.89184573  0.58320257  0.87823813  1
  Mn  Mn115  1  0.14178431  0.58381858  0.49742702  1
  Mn  Mn116  1  0.60772006  0.08332528  0.62347579  1
  Mn  Mn117  1  0.10723509  0.08340112  0.87274897  1
  Mn  Mn118  1  0.60815460  0.08307956  0.37277334  1
  Mn  Mn119  1  0.64229511  0.25041032  0.49804854  1
  Mn  Mn120  1  0.14214481  0.24945852  0.49820840  1
  Mn  Mn121  1  0.14250144  0.24896761  0.74814632  1
  Mn  Mn122  1  0.14196467  0.91768852  0.99684072  1
  Mn  Mn123  1  0.14274462  0.91674932  0.49838046  1
  Mn  Mn124  1  0.39127129  0.91580701  0.37651821  1
  Mn  Mn125  1  0.39217060  0.25038474  0.37683194  1
  Mn  Mn126  1  0.64242588  0.58286259  0.74790244  1
  Mn  Mn127  1  0.89305181  0.58296066  0.12691814  1
  Mn  Mn128  1  0.35791113  0.74948778  0.00296865  1
  Mn  Mn129  1  0.35761310  0.41708988  0.75259699  1
  Mn  Mn130  1  0.89178976  0.58344302  0.62735112  1
  Mn  Mn131  1  0.60735442  0.74983151  0.37339516  1
  Mn  Mn132  1  0.60784282  0.41680726  0.37288142  1
  Mn  Mn133  1  0.35839216  0.08297746  0.50263383  1
  Mn  Mn134  1  0.10788501  0.08390002  0.62349232  1
  Mn  Mn135  1  0.64261951  0.91667677  0.24748072  1
  Mn  Mn136  1  0.10785537  0.08366809  0.12196336  1
  Mn  Mn137  1  0.14260875  0.58445967  0.74838443  1
  Mn  Mn138  1  0.60754533  0.41696949  0.87324230  1
  Mn  Mn139  1  0.10824532  0.74940822  0.62400470  1
  Mn  Mn140  1  0.89173664  0.91626865  0.62770961  1
  Mn  Mn141  1  0.64184402  0.91652951  0.49798955  1
  Mn  Mn142  1  0.60846581  0.41639494  0.62315765  1
  Mn  Mn143  1  0.85803770  0.08340866  0.25223427  1
  Fe  Fe144  1  0.64265190  0.58286876  0.99858275  1
  Fe  Fe145  1  0.10647384  0.74998031  0.12286382  1
  Fe  Fe146  1  0.14229346  0.58334955  0.24842334  1
  Fe  Fe147  1  0.85824493  0.74966104  0.25166313  1
  Fe  Fe148  1  0.39269928  0.25063738  0.87769845  1
  Fe  Fe149  1  0.35741278  0.08413629  0.00162971  1
  Fe  Fe150  1  0.64289259  0.91733747  0.74892422  1
  Fe  Fe151  1  0.14344591  0.91670800  0.74900107  1
  Fe  Fe152  1  0.85680000  0.75028245  0.75222022  1
  Fe  Fe153  1  0.39308358  0.91622349  0.87653592  1
  Fe  Fe154  1  0.89380846  0.58336787  0.37614169  1
  Fe  Fe155  1  0.10664559  0.41667807  0.62392355  1
  Fe  Fe156  1  0.39163184  0.58324639  0.37653609  1
  Fe  Fe157  1  0.64314456  0.24951160  0.74896643  1
  Fe  Fe158  1  0.85651315  0.74942086  0.00225082  1
  Fe  Fe159  1  0.10665084  0.41603961  0.87353117  1
  Fe  Fe160  1  0.39282569  0.25073824  0.12656988  1
  Fe  Fe161  1  0.14222079  0.91688952  0.24783531  1
  Fe  Fe162  1  0.60730462  0.75028338  0.87303048  1
  Fe  Fe163  1  0.35791135  0.75032759  0.75249420  1
  Fe  Fe164  1  0.85791410  0.41669825  0.50123183  1
  Fe  Fe165  1  0.64317494  0.58322707  0.49794968  1
  Fe  Fe166  1  0.35702831  0.08326608  0.25149770  1
  Fe  Fe167  1  0.10806250  0.74937585  0.37266986  1
  Fe  Fe168  1  0.14277592  0.58249310  0.99781428  1
  Fe  Fe169  1  0.14321164  0.25009096  0.99798079  1
  Fe  Fe170  1  0.85772742  0.08372399  0.50130957  1
  Fe  Fe171  1  0.10796616  0.41611757  0.12229492  1
  Fe  Fe172  1  0.89315731  0.91672622  0.12704374  1
  Fe  Fe173  1  0.64328900  0.25017496  0.99854630  1
  Fe  Fe174  1  0.89169694  0.91691931  0.87625213  1
  Fe  Fe175  1  0.89309786  0.25016770  0.12618413  1
  Fe  Fe176  1  0.89198820  0.25012464  0.87733239  1
  Fe  Fe177  1  0.85703417  0.08323201  0.75192117  1
  Fe  Fe178  1  0.10719914  0.41698779  0.37330642  1
  Fe  Fe179  1  0.60861686  0.74956574  0.12365537  1
  Fe  Fe180  1  0.35653907  0.41638160  0.00188906  1
  Fe  Fe181  1  0.64227972  0.24993476  0.24739031  1
  Fe  Fe182  1  0.39217105  0.91703863  0.62812519  1
  Fe  Fe183  1  0.60665665  0.41701195  0.12309778  1
  Fe  Fe184  1  0.35695058  0.74978807  0.50127466  1
  Fe  Fe185  1  0.39281024  0.58338101  0.87764536  1
  Fe  Fe186  1  0.35804732  0.08280329  0.75209384  1
  Fe  Fe187  1  0.85704673  0.41679349  0.00250003  1
  Fe  Fe188  1  0.85748313  0.08367371  0.00198976  1
  Fe  Fe189  1  0.35663103  0.41703433  0.25147316  1
  Fe  Fe190  1  0.85770731  0.41652097  0.75225169  1
  Fe  Fe191  1  0.39256913  0.24987490  0.62718584  1
  P  P192  1  0.05327994  0.25040696  0.10852066  1
  P  P193  1  0.05315384  0.25091667  0.35973835  1
  P  P194  1  0.05306581  0.25078583  0.61067646  1
  P  P195  1  0.05305491  0.25037662  0.86137875  1
  P  P196  1  0.05577936  0.58306658  0.11030576  1
  P  P197  1  0.05315136  0.58300485  0.35915128  1
  P  P198  1  0.05331144  0.58283728  0.61075181  1
  P  P199  1  0.05428813  0.58232626  0.86160216  1
  P  P200  1  0.05342894  0.91643174  0.11054873  1
  P  P201  1  0.05451015  0.91606514  0.35931951  1
  P  P202  1  0.05473419  0.91644291  0.61177464  1
  P  P203  1  0.05200101  0.91713753  0.85936804  1
  P  P204  1  0.55398434  0.25094997  0.11028605  1
  P  P205  1  0.55408008  0.24998890  0.35884737  1
  P  P206  1  0.55334646  0.24973545  0.61157276  1
  P  P207  1  0.55420899  0.25001658  0.86143911  1
  P  P208  1  0.55418128  0.58312793  0.10963454  1
  P  P209  1  0.55282338  0.58320585  0.36106535  1
  P  P210  1  0.55419842  0.58304358  0.60931205  1
  P  P211  1  0.55350591  0.58388357  0.86143517  1
  P  P212  1  0.55349372  0.91600214  0.10955426  1
  P  P213  1  0.55277175  0.91652468  0.35975196  1
  P  P214  1  0.55290231  0.91699147  0.61158659  1
  P  P215  1  0.55306187  0.91611345  0.85963739  1
  P  P216  1  0.44429548  0.08456021  0.13888952  1
  P  P217  1  0.44553350  0.08322567  0.38873036  1
  P  P218  1  0.44601086  0.08352087  0.64120343  1
  P  P219  1  0.44471124  0.08326929  0.88943828  1
  P  P220  1  0.44538544  0.41621002  0.13906094  1
  P  P221  1  0.44501990  0.41753035  0.38858379  1
  P  P222  1  0.44702260  0.41595873  0.64056172  1
  P  P223  1  0.44565664  0.41687260  0.89102920  1
  P  P224  1  0.44860454  0.74947879  0.14003550  1
  P  P225  1  0.44524831  0.74879570  0.39043873  1
  P  P226  1  0.44440415  0.75041460  0.63966786  1
  P  P227  1  0.44644681  0.75000853  0.88889062  1
  P  P228  1  0.94535686  0.08399644  0.13823691  1
  P  P229  1  0.94650805  0.08344695  0.39071559  1
  P  P230  1  0.94462142  0.08350436  0.64002860  1
  P  P231  1  0.94403020  0.08324670  0.88909061  1
  P  P232  1  0.94703082  0.41574469  0.13805291  1
  P  P233  1  0.94743830  0.41800728  0.38974396  1
  P  P234  1  0.94580013  0.41691403  0.64008533  1
  P  P235  1  0.94517002  0.41605281  0.88996224  1
  P  P236  1  0.94582254  0.75022370  0.13884938  1
  P  P237  1  0.94786982  0.74883554  0.38836109  1
  P  P238  1  0.94613575  0.74967973  0.64143674  1
  P  P239  1  0.94396555  0.75089687  0.88991232  1
  P  P240  1  0.19780501  0.08275838  0.23435868  1
  P  P241  1  0.19726046  0.08352391  0.48508753  1
  P  P242  1  0.19828138  0.08229574  0.73577784  1
  P  P243  1  0.19797545  0.08487422  0.98458943  1
  P  P244  1  0.19546964  0.41741726  0.23545294  1
  P  P245  1  0.19452351  0.41646526  0.48566892  1
  P  P246  1  0.19456362  0.41662553  0.73598602  1
  P  P247  1  0.19549689  0.41590558  0.98553477  1
  P  P248  1  0.19418092  0.74967623  0.23509382  1
  P  P249  1  0.19711012  0.75003525  0.48450860  1
  P  P250  1  0.19846207  0.75104857  0.73588697  1
  P  P251  1  0.19484220  0.74941211  0.98617151  1
  P  P252  1  0.69670081  0.08388596  0.23431362  1
  P  P253  1  0.69817802  0.08334115  0.48502937  1
  P  P254  1  0.69768976  0.08344222  0.73601344  1
  P  P255  1  0.69794780  0.08420894  0.98541735  1
  P  P256  1  0.69568706  0.41628161  0.23406797  1
  P  P257  1  0.69815622  0.41761011  0.48487928  1
  P  P258  1  0.69820150  0.41539089  0.73583886  1
  P  P259  1  0.69617437  0.41666244  0.98685892  1
  P  P260  1  0.69779958  0.74987965  0.23452889  1
  P  P261  1  0.69685107  0.74910857  0.48517443  1
  P  P262  1  0.69622968  0.75099405  0.73665066  1
  P  P263  1  0.69553729  0.74915273  0.98576289  1
  P  P264  1  0.30430881  0.25070864  0.01409607  1
  P  P265  1  0.30470082  0.25067398  0.26308624  1
  P  P266  1  0.30401206  0.25029148  0.51602251  1
  P  P267  1  0.30560628  0.24960788  0.76479116  1
  P  P268  1  0.30326700  0.58223663  0.01402376  1
  P  P269  1  0.30220660  0.58243961  0.26486099  1
  P  P270  1  0.30389530  0.58394646  0.51386012  1
  P  P271  1  0.30427919  0.58404537  0.76621271  1
  P  P272  1  0.30481031  0.91709675  0.01365931  1
  P  P273  1  0.30159168  0.91690344  0.26414607  1
  P  P274  1  0.30435269  0.91549181  0.51574391  1
  P  P275  1  0.30449283  0.91646848  0.76498234  1
  P  P276  1  0.80450253  0.25028177  0.01445563  1
  P  P277  1  0.80329601  0.25067087  0.26321315  1
  P  P278  1  0.80360647  0.25056831  0.51450722  1
  P  P279  1  0.80303998  0.25016256  0.76597689  1
  P  P280  1  0.80228654  0.58318713  0.01491496  1
  P  P281  1  0.80463205  0.58428425  0.26535629  1
  P  P282  1  0.80414309  0.58256339  0.51342310  1
  P  P283  1  0.80340381  0.58325835  0.76554536  1
  P  P284  1  0.80576159  0.91648898  0.01423166  1
  P  P285  1  0.80534571  0.91536937  0.26354072  1
  P  P286  1  0.80356254  0.91705931  0.51484674  1
  P  P287  1  0.80245709  0.91660667  0.76580209  1
  O  O288  1  0.05714562  0.24984737  0.18524268  1
  O  O289  1  0.05596640  0.25004277  0.43646269  1
  O  O290  1  0.05621532  0.24969755  0.68744218  1
  O  O291  1  0.05843254  0.24952901  0.93791825  1
  O  O292  1  0.05917630  0.58288040  0.18701017  1
  O  O293  1  0.05606621  0.58337567  0.43592661  1
  O  O294  1  0.05634498  0.58376181  0.68748675  1
  O  O295  1  0.05871397  0.58295122  0.93851960  1
  O  O296  1  0.05857449  0.91739336  0.18716530  1
  O  O297  1  0.05723608  0.91667108  0.43615628  1
  O  O298  1  0.05952223  0.91662411  0.68847364  1
  O  O299  1  0.05598592  0.91718507  0.93611853  1
  O  O300  1  0.55860712  0.25015525  0.18695788  1
  O  O301  1  0.55718202  0.24988225  0.43572301  1
  O  O302  1  0.55892078  0.24987697  0.68822072  1
  O  O303  1  0.55978211  0.24990278  0.93808093  1
  O  O304  1  0.55676493  0.58309401  0.18641538  1
  O  O305  1  0.55820386  0.58300442  0.43765074  1
  O  O306  1  0.55742408  0.58312954  0.68617043  1
  O  O307  1  0.55881662  0.58307632  0.93803697  1
  O  O308  1  0.55658904  0.91677974  0.18630406  1
  O  O309  1  0.55575891  0.91681548  0.43658503  1
  O  O310  1  0.55873586  0.91708172  0.68817310  1
  O  O311  1  0.55725488  0.91698290  0.93629618  1
  O  O312  1  0.44034895  0.08395694  0.06207067  1
  O  O313  1  0.44089147  0.08312357  0.31196551  1
  O  O314  1  0.44369681  0.08341409  0.56436688  1
  O  O315  1  0.44122069  0.08331029  0.81266469  1
  O  O316  1  0.44046616  0.41674284  0.06242464  1
  O  O317  1  0.44084981  0.41729580  0.31184312  1
  O  O318  1  0.44390713  0.41636821  0.56379071  1
  O  O319  1  0.44305054  0.41685052  0.81431187  1
  O  O320  1  0.44444470  0.74953725  0.06335663  1
  O  O321  1  0.44230786  0.74935901  0.31363652  1
  O  O322  1  0.44045167  0.74983195  0.56297199  1
  O  O323  1  0.44190776  0.74984106  0.81222153  1
  O  O324  1  0.94131550  0.08390346  0.06147088  1
  O  O325  1  0.94348995  0.08352904  0.31386141  1
  O  O326  1  0.94041925  0.08339306  0.56329545  1
  O  O327  1  0.94006928  0.08334822  0.81228572  1
  O  O328  1  0.94150756  0.41665826  0.06149154  1
  O  O329  1  0.94385580  0.41704554  0.31302508  1
  O  O330  1  0.94114043  0.41689286  0.56340667  1
  O  O331  1  0.94059640  0.41665976  0.81321257  1
  O  O332  1  0.94078947  0.74929872  0.06221717  1
  O  O333  1  0.94318445  0.74955132  0.31174295  1
  O  O334  1  0.94343111  0.74985186  0.56459029  1
  O  O335  1  0.93971986  0.75006169  0.81312651  1
  O  O336  1  0.19397063  0.08428172  0.06123431  1
  O  O337  1  0.19403783  0.08336138  0.31102990  1
  O  O338  1  0.19392209  0.08386490  0.56183909  1
  O  O339  1  0.19404832  0.08316406  0.81241391  1
  O  O340  1  0.19125504  0.41582548  0.06228346  1
  O  O341  1  0.19084161  0.41663414  0.31214081  1
  O  O342  1  0.19019342  0.41674315  0.56239797  1
  O  O343  1  0.19033679  0.41618842  0.81279977  1
  O  O344  1  0.19016434  0.75018407  0.06286277  1
  O  O345  1  0.19097570  0.74955924  0.31194130  1
  O  O346  1  0.19352343  0.74953725  0.56121268  1
  O  O347  1  0.19406266  0.75041808  0.81253727  1
  O  O348  1  0.69381493  0.08357135  0.06202339  1
  O  O349  1  0.69381620  0.08335226  0.31108770  1
  O  O350  1  0.69416713  0.08320191  0.56175925  1
  O  O351  1  0.69399739  0.08338033  0.81261769  1
  O  O352  1  0.69117197  0.41679872  0.06346131  1
  O  O353  1  0.69300135  0.41693676  0.31083775  1
  O  O354  1  0.69459703  0.41704312  0.56160763  1
  O  O355  1  0.69407960  0.41590749  0.81246313  1
  O  O356  1  0.69117787  0.74987133  0.06248648  1
  O  O357  1  0.69343198  0.74997659  0.31116126  1
  O  O358  1  0.69350403  0.74965437  0.56196123  1
  O  O359  1  0.69134795  0.75038059  0.81332521  1
  O  O360  1  0.30845994  0.25108185  0.18634976  1
  O  O361  1  0.30695824  0.25047197  0.43918810  1
  O  O362  1  0.30947389  0.25063673  0.68805687  1
  O  O363  1  0.30867747  0.25085994  0.93737013  1
  O  O364  1  0.30584513  0.58291936  0.18812996  1
  O  O365  1  0.30762604  0.58292924  0.43713852  1
  O  O366  1  0.30693945  0.58299202  0.68940229  1
  O  O367  1  0.30859714  0.58324387  0.93744784  1
  O  O368  1  0.30555569  0.91609139  0.18745277  1
  O  O369  1  0.30654530  0.91635781  0.43892983  1
  O  O370  1  0.30852524  0.91646299  0.68824587  1
  O  O371  1  0.30938111  0.91590138  0.93696446  1
  O  O372  1  0.80861774  0.25086487  0.18661221  1
  O  O373  1  0.80607660  0.25068172  0.43773975  1
  O  O374  1  0.80626385  0.25051659  0.68918838  1
  O  O375  1  0.80880067  0.25040177  0.93777639  1
  O  O376  1  0.80765022  0.58351967  0.18833703  1
  O  O377  1  0.80921514  0.58332637  0.43684485  1
  O  O378  1  0.80597469  0.58331556  0.68863774  1
  O  O379  1  0.80580031  0.58297623  0.93867498  1
  O  O380  1  0.80957292  0.91586330  0.18675252  1
  O  O381  1  0.80695161  0.91622891  0.43808749  1
  O  O382  1  0.80574999  0.91634819  0.68906475  1
  O  O383  1  0.80885796  0.91657282  0.93745874  1
  O  O384  1  0.23398238  0.25079885  0.03801325  1
  O  O385  1  0.23483345  0.25031690  0.28784221  1
  O  O386  1  0.23440526  0.25020324  0.54123829  1
  O  O387  1  0.23549852  0.24980991  0.78889110  1
  O  O388  1  0.23280610  0.58210626  0.03724369  1
  O  O389  1  0.23209124  0.58317677  0.28925802  1
  O  O390  1  0.23409936  0.58386794  0.53870118  1
  O  O391  1  0.23456606  0.58351917  0.79135317  1
  O  O392  1  0.23465457  0.91733534  0.03738940  1
  O  O393  1  0.23162935  0.91639471  0.28877635  1
  O  O394  1  0.23483293  0.91640044  0.54138246  1
  O  O395  1  0.23430739  0.91674449  0.78945333  1
  O  O396  1  0.73403813  0.25044200  0.03803602  1
  O  O397  1  0.73292190  0.25048256  0.28662627  1
  O  O398  1  0.73419927  0.25052954  0.54054494  1
  O  O399  1  0.73303410  0.24972347  0.79086325  1
  O  O400  1  0.73228969  0.58345468  0.03986342  1
  O  O401  1  0.73491513  0.58345979  0.29005415  1
  O  O402  1  0.73401868  0.58300802  0.53771130  1
  O  O403  1  0.73382315  0.58298499  0.79112716  1
  O  O404  1  0.73577803  0.91634902  0.03880529  1
  O  O405  1  0.73541942  0.91637899  0.28783786  1
  O  O406  1  0.73395694  0.91632687  0.54019005  1
  O  O407  1  0.73249647  0.91695730  0.79084179  1
  O  O408  1  0.26782112  0.08354223  0.20974083  1
  O  O409  1  0.26690781  0.08290907  0.46006774  1
  O  O410  1  0.26845640  0.08277251  0.71172571  1
  O  O411  1  0.26812707  0.08436064  0.96049157  1
  O  O412  1  0.26584882  0.41697742  0.21172974  1
  O  O413  1  0.26459520  0.41640517  0.46176486  1
  O  O414  1  0.26470377  0.41704387  0.71224494  1
  O  O415  1  0.26587006  0.41598896  0.96185295  1
  O  O416  1  0.26406201  0.74935360  0.21010798  1
  O  O417  1  0.26708257  0.75019924  0.45988543  1
  O  O418  1  0.26851623  0.75043588  0.71165982  1
  O  O419  1  0.26502103  0.74973641  0.96261102  1
  O  O420  1  0.76639087  0.08357662  0.20924077  1
  O  O421  1  0.76814312  0.08392099  0.46030998  1
  O  O422  1  0.76778909  0.08344512  0.71142948  1
  O  O423  1  0.76816387  0.08378958  0.96148177  1
  O  O424  1  0.76545585  0.41709882  0.20900961  1
  O  O425  1  0.76800892  0.41672548  0.45977094  1
  O  O426  1  0.76829673  0.41619443  0.71142857  1
  O  O427  1  0.76662180  0.41624259  0.96338071  1
  O  O428  1  0.76797179  0.74944433  0.21042978  1
  O  O429  1  0.76653912  0.74990970  0.46012574  1
  O  O430  1  0.76657811  0.75035075  0.71289365  1
  O  O431  1  0.76604533  0.74985618  0.96250087  1
  O  O432  1  0.01529643  0.08401275  0.16270922  1
  O  O433  1  0.01612623  0.08320556  0.41591510  1
  O  O434  1  0.01462408  0.08388208  0.66421712  1
  O  O435  1  0.01409085  0.08287580  0.91337784  1
  O  O436  1  0.01752143  0.41631496  0.16112822  1
  O  O437  1  0.01748067  0.41738227  0.41429367  1
  O  O438  1  0.01602555  0.41668509  0.66396962  1
  O  O439  1  0.01569528  0.41626378  0.91326580  1
  O  O440  1  0.01637579  0.74961965  0.16187880  1
  O  O441  1  0.01812589  0.74928099  0.41245571  1
  O  O442  1  0.01571949  0.74969703  0.66679604  1
  O  O443  1  0.01417518  0.75051490  0.91367768  1
  O  O444  1  0.51438926  0.08388839  0.16280460  1
  O  O445  1  0.51540602  0.08341487  0.41321104  1
  O  O446  1  0.51552218  0.08356469  0.66700524  1
  O  O447  1  0.51468784  0.08351653  0.91407681  1
  O  O448  1  0.51586923  0.41692043  0.16237391  1
  O  O449  1  0.51495767  0.41640894  0.41304268  1
  O  O450  1  0.51655798  0.41669081  0.66618475  1
  O  O451  1  0.51538533  0.41649412  0.91618407  1
  O  O452  1  0.51863307  0.74901213  0.16443326  1
  O  O453  1  0.51484362  0.74985788  0.41585891  1
  O  O454  1  0.51447197  0.74946818  0.66387796  1
  O  O455  1  0.51684313  0.75020723  0.91259275  1
  O  O456  1  0.48349157  0.25050337  0.08689958  1
  O  O457  1  0.48430729  0.25057538  0.33412340  1
  O  O458  1  0.48299580  0.24941004  0.58805535  1
  O  O459  1  0.48341983  0.25028605  0.83921294  1
  O  O460  1  0.48448803  0.58349656  0.08434383  1
  O  O461  1  0.48257640  0.58331251  0.33721107  1
  O  O462  1  0.48435165  0.58289322  0.58488038  1
  O  O463  1  0.48307641  0.58343502  0.83806384  1
  O  O464  1  0.48383650  0.91625722  0.08434829  1
  O  O465  1  0.48318588  0.91595134  0.33439227  1
  O  O466  1  0.48237641  0.91706282  0.58867720  1
  O  O467  1  0.48280007  0.91625581  0.83578489  1
  O  O468  1  0.98313981  0.25007751  0.08434042  1
  O  O469  1  0.98361819  0.25112649  0.33406839  1
  O  O470  1  0.98340835  0.25067299  0.58555415  1
  O  O471  1  0.98257592  0.25040026  0.83807644  1
  O  O472  1  0.98567044  0.58304684  0.08572512  1
  O  O473  1  0.98338694  0.58292588  0.33369518  1
  O  O474  1  0.98379180  0.58328560  0.58527951  1
  O  O475  1  0.98439144  0.58253572  0.83785652  1
  O  O476  1  0.98295009  0.91653417  0.08727579  1
  O  O477  1  0.98485019  0.91637851  0.33404691  1
  O  O478  1  0.98466389  0.91606181  0.58783446  1
  O  O479  1  0.98173605  0.91714278  0.83557027  1
  O  O480  1  0.08718036  0.31547680  0.07598281  1
  O  O481  1  0.08749944  0.31602687  0.32777323  1
  O  O482  1  0.08698566  0.31604962  0.57873905  1
  O  O483  1  0.08630763  0.31549998  0.82832869  1
  O  O484  1  0.08936004  0.64815664  0.07745540  1
  O  O485  1  0.08754441  0.64780611  0.32656333  1
  O  O486  1  0.08766024  0.64772742  0.57810252  1
  O  O487  1  0.08767948  0.64742491  0.82836629  1
  O  O488  1  0.08637772  0.98141734  0.07658411  1
  O  O489  1  0.08884804  0.98097563  0.32658096  1
  O  O490  1  0.08787274  0.98161478  0.57851891  1
  O  O491  1  0.08593968  0.98201286  0.82657680  1
  O  O492  1  0.58707365  0.31623988  0.07724115  1
  O  O493  1  0.58852872  0.31487495  0.32651502  1
  O  O494  1  0.58628464  0.31485293  0.57791423  1
  O  O495  1  0.58727441  0.31493410  0.82772414  1
  O  O496  1  0.58883803  0.64792223  0.07736780  1
  O  O497  1  0.58622438  0.64824280  0.32778589  1
  O  O498  1  0.58822412  0.64806559  0.57679431  1
  O  O499  1  0.58648308  0.64898990  0.82808545  1
  O  O500  1  0.58751162  0.98103599  0.07676134  1
  O  O501  1  0.58671972  0.98154907  0.32720479  1
  O  O502  1  0.58590603  0.98200250  0.57790949  1
  O  O503  1  0.58671316  0.98113625  0.82649256  1
  O  O504  1  0.41033408  0.01981419  0.17224268  1
  O  O505  1  0.41200449  0.01811924  0.42166927  1
  O  O506  1  0.41148209  0.01844619  0.67334921  1
  O  O507  1  0.41113174  0.01801214  0.92200236  1
  O  O508  1  0.41239200  0.35099890  0.17229823  1
  O  O509  1  0.41107622  0.35270755  0.42163412  1
  O  O510  1  0.41307876  0.35088637  0.67290730  1
  O  O511  1  0.41124633  0.35189881  0.92339602  1
  O  O512  1  0.41435721  0.68463792  0.17259660  1
  O  O513  1  0.41137119  0.68346190  0.42255983  1
  O  O514  1  0.41033863  0.68572403  0.67294244  1
  O  O515  1  0.41327245  0.68500230  0.92252905  1
  O  O516  1  0.91183795  0.01890780  0.17117478  1
  O  O517  1  0.91211916  0.01853090  0.42306958  1
  O  O518  1  0.91100794  0.01851571  0.67320880  1
  O  O519  1  0.91015183  0.01831561  0.92192974  1
  O  O520  1  0.91423123  0.35057124  0.17142155  1
  O  O521  1  0.91312491  0.35341623  0.42295259  1
  O  O522  1  0.91216753  0.35200521  0.67348140  1
  O  O523  1  0.91189321  0.35091321  0.92296704  1
  O  O524  1  0.91257862  0.68528438  0.17262408  1
  O  O525  1  0.91470032  0.68355912  0.42136158  1
  O  O526  1  0.91165904  0.68478671  0.67366160  1
  O  O527  1  0.91037409  0.68612421  0.92351397  1
  O  O528  1  0.16426829  0.01760625  0.20160947  1
  O  O529  1  0.16288462  0.01855311  0.45293720  1
  O  O530  1  0.16478543  0.01715364  0.70318440  1
  O  O531  1  0.16405416  0.01995737  0.95167857  1
  O  O532  1  0.16189717  0.35265744  0.20158875  1
  O  O533  1  0.16092652  0.35157026  0.45240383  1
  O  O534  1  0.16117274  0.35161798  0.70274501  1
  O  O535  1  0.16211555  0.35084441  0.95223021  1
  O  O536  1  0.16012536  0.68459840  0.20264500  1
  O  O537  1  0.16313309  0.68518700  0.45139660  1
  O  O538  1  0.16470051  0.68606106  0.70280825  1
  O  O539  1  0.16171167  0.68408814  0.95326060  1
  O  O540  1  0.66256311  0.01886424  0.20180563  1
  O  O541  1  0.66466674  0.01815207  0.45221615  1
  O  O542  1  0.66399199  0.01834772  0.70322327  1
  O  O543  1  0.66429128  0.01923436  0.95230051  1
  O  O544  1  0.66167680  0.35120537  0.20170110  1
  O  O545  1  0.66365902  0.35277101  0.45247311  1
  O  O546  1  0.66487765  0.35010222  0.70310063  1
  O  O547  1  0.66287870  0.35166662  0.95350618  1
  O  O548  1  0.66376392  0.68490414  0.20177565  1
  O  O549  1  0.66328083  0.68369514  0.45281537  1
  O  O550  1  0.66278563  0.68605086  0.70325413  1
  O  O551  1  0.66248515  0.68392248  0.95265899  1
  O  O552  1  0.33778133  0.31568028  0.04750125  1
  O  O553  1  0.33792485  0.31593624  0.29616176  1
  O  O554  1  0.33833036  0.31514496  0.54860940  1
  O  O555  1  0.33921487  0.31445725  0.79834490  1
  O  O556  1  0.33615326  0.64718868  0.04803841  1
  O  O557  1  0.33653594  0.64726096  0.29752655  1
  O  O558  1  0.33763548  0.64921523  0.54616041  1
  O  O559  1  0.33828875  0.64930793  0.79828171  1
  O  O560  1  0.33825834  0.98247745  0.04595309  1
  O  O561  1  0.33529563  0.98203288  0.29661839  1
  O  O562  1  0.33935733  0.98004032  0.54834955  1
  O  O563  1  0.33845843  0.98141709  0.79779716  1
  O  O564  1  0.83801610  0.31517639  0.04788851  1
  O  O565  1  0.83633352  0.31578826  0.29668976  1
  O  O566  1  0.83789761  0.31578522  0.54657324  1
  O  O567  1  0.83698843  0.31514118  0.79876582  1
  O  O568  1  0.83632943  0.64829730  0.04756566  1
  O  O569  1  0.83853977  0.64948378  0.29747040  1
  O  O570  1  0.83773771  0.64740558  0.54701870  1
  O  O571  1  0.83736730  0.64843349  0.79768208  1
  O  O572  1  0.83948606  0.98160708  0.04699814  1
  O  O573  1  0.83939917  0.98019764  0.29642486  1
  O  O574  1  0.83728838  0.98241033  0.54696034  1
  O  O575  1  0.83676053  0.98160754  0.79809236  1
  O  O576  1  0.41107899  0.14992212  0.17155108  1
  O  O577  1  0.41198708  0.14830286  0.42173968  1
  O  O578  1  0.41146608  0.14843287  0.67336512  1
  O  O579  1  0.41081175  0.14829041  0.92232540  1
  O  O580  1  0.41174891  0.48095765  0.17272064  1
  O  O581  1  0.41186359  0.48280784  0.42162336  1
  O  O582  1  0.41249302  0.48094107  0.67279735  1
  O  O583  1  0.41155754  0.48196936  0.92343354  1
  O  O584  1  0.41487148  0.81449528  0.17285336  1
  O  O585  1  0.41040905  0.81348834  0.42283842  1
  O  O586  1  0.41130933  0.81575405  0.67276841  1
  O  O587  1  0.41318827  0.81512392  0.92204022  1
  O  O588  1  0.91196810  0.14936525  0.17097778  1
  O  O589  1  0.91224800  0.14855873  0.42286847  1
  O  O590  1  0.91062288  0.14833753  0.67307161  1
  O  O591  1  0.91063712  0.14847572  0.92212036  1
  O  O592  1  0.91386023  0.48069733  0.17181433  1
  O  O593  1  0.91391976  0.48333533  0.42222111  1
  O  O594  1  0.91241917  0.48183244  0.67350612  1
  O  O595  1  0.91183182  0.48079240  0.92375951  1
  O  O596  1  0.91299839  0.81533208  0.17227149  1
  O  O597  1  0.91444118  0.81361844  0.42212974  1
  O  O598  1  0.91151656  0.81453814  0.67375522  1
  O  O599  1  0.91067223  0.81622501  0.92245424  1
  O  O600  1  0.08732873  0.18558076  0.07544067  1
  O  O601  1  0.08718529  0.18586093  0.32700318  1
  O  O602  1  0.08713250  0.18583718  0.57793894  1
  O  O603  1  0.08602083  0.18537169  0.82748081  1
  O  O604  1  0.08951294  0.51800556  0.07738123  1
  O  O605  1  0.08737761  0.51786787  0.32692418  1
  O  O606  1  0.08722104  0.51756990  0.57866787  1
  O  O607  1  0.08773486  0.51712620  0.82905796  1
  O  O608  1  0.08640601  0.85124862  0.07740987  1
  O  O609  1  0.08857218  0.85090844  0.32717596  1
  O  O610  1  0.08823239  0.85136863  0.57873899  1
  O  O611  1  0.08589584  0.85213577  0.82667319  1
  O  O612  1  0.58751651  0.18621388  0.07647335  1
  O  O613  1  0.58798018  0.18495193  0.32620752  1
  O  O614  1  0.58659236  0.18474826  0.57810361  1
  O  O615  1  0.58695206  0.18499265  0.82755121  1
  O  O616  1  0.58810260  0.51784035  0.07717950  1
  O  O617  1  0.58613297  0.51830939  0.32749341  1
  O  O618  1  0.58849975  0.51812318  0.57685931  1
  O  O619  1  0.58668718  0.51881304  0.82788039  1
  O  O620  1  0.58753977  0.85075081  0.07768457  1
  O  O621  1  0.58733174  0.85152729  0.32779368  1
  O  O622  1  0.58571125  0.85184307  0.57798106  1
  O  O623  1  0.58678518  0.85111652  0.82690141  1
  O  O624  1  0.33788660  0.18566503  0.04705696  1
  O  O625  1  0.33846712  0.18547203  0.29561865  1
  O  O626  1  0.33846224  0.18529876  0.54820767  1
  O  O627  1  0.33922568  0.18443030  0.79739191  1
  O  O628  1  0.33630593  0.51701303  0.04710770  1
  O  O629  1  0.33582035  0.51729399  0.29756165  1
  O  O630  1  0.33753487  0.51912545  0.54737716  1
  O  O631  1  0.33875517  0.51926340  0.79887959  1
  O  O632  1  0.33788344  0.85213070  0.04750359  1
  O  O633  1  0.33542715  0.85180988  0.29686191  1
  O  O634  1  0.33816366  0.85005373  0.54757314  1
  O  O635  1  0.33803180  0.85139867  0.79817014  1
  O  O636  1  0.83780187  0.18515122  0.04756045  1
  O  O637  1  0.83667579  0.18578615  0.29662302  1
  O  O638  1  0.83791779  0.18552812  0.54667224  1
  O  O639  1  0.83732347  0.18514432  0.79823309  1
  O  O640  1  0.83616864  0.51817551  0.04801709  1
  O  O641  1  0.83927249  0.51952755  0.29762867  1
  O  O642  1  0.83732991  0.51717694  0.54639673  1
  O  O643  1  0.83772501  0.51821432  0.79758817  1
  O  O644  1  0.83953612  0.85133762  0.04692765  1
  O  O645  1  0.83839673  0.84994511  0.29644253  1
  O  O646  1  0.83805312  0.85220232  0.54743493  1
  O  O647  1  0.83645282  0.85164967  0.79852123  1
  O  O648  1  0.16377975  0.14770957  0.20149907  1
  O  O649  1  0.16364884  0.14863807  0.45222258  1
  O  O650  1  0.16449173  0.14723470  0.70269229  1
  O  O651  1  0.16453979  0.15007751  0.95190434  1
  O  O652  1  0.16230073  0.48263451  0.20245181  1
  O  O653  1  0.16095001  0.48143687  0.45227807  1
  O  O654  1  0.16081671  0.48157911  0.70304611  1
  O  O655  1  0.16185842  0.48087066  0.95240774  1
  O  O656  1  0.16036494  0.81480293  0.20236414  1
  O  O657  1  0.16298226  0.81499115  0.45206183  1
  O  O658  1  0.16498844  0.81618405  0.70321643  1
  O  O659  1  0.16142452  0.81434533  0.95264118  1
  O  O660  1  0.66268646  0.14902250  0.20205773  1
  O  O661  1  0.66399775  0.14831757  0.45260522  1
  O  O662  1  0.66409868  0.14863673  0.70328759  1
  O  O663  1  0.66446104  0.14928096  0.95268536  1
  O  O664  1  0.66101931  0.48114580  0.20181536  1
  O  O665  1  0.66451168  0.48284309  0.45230870  1
  O  O666  1  0.66420865  0.48026951  0.70294451  1
  O  O667  1  0.66333766  0.48182828  0.95322500  1
  O  O668  1  0.66415845  0.81477275  0.20123725  1
  O  O669  1  0.66242180  0.81395243  0.45271980  1
  O  O670  1  0.66325903  0.81628914  0.70355137  1
  O  O671  1  0.66195647  0.81397114  0.95217292  1
