# generated using pymatgen
data_Na2MnFe(PO4)2
_symmetry_space_group_name_H-M   'P 1'
_cell_length_a   21.08591619
_cell_length_b   18.93840753
_cell_length_c   20.04489689
_cell_angle_alpha   90.00010031
_cell_angle_beta   89.99668414
_cell_angle_gamma   89.99996437
_symmetry_Int_Tables_number   1
_chemical_formula_structural   Na2MnFe(PO4)2
_chemical_formula_sum   'Na96 Mn48 Fe48 P96 O384'
_cell_volume   8004.60230582
_cell_formula_units_Z   48
loop_
 _symmetry_equiv_pos_site_id
 _symmetry_equiv_pos_as_xyz
  1  'x, y, z'
loop_
 _atom_site_type_symbol
 _atom_site_label
 _atom_site_symmetry_multiplicity
 _atom_site_fract_x
 _atom_site_fract_y
 _atom_site_fract_z
 _atom_site_occupancy
  Na  Na0  1  0.00139998  0.00068603  -0.00001950  1
  Na  Na1  1  0.00192959  0.00073804  0.25014188  1
  Na  Na2  1  0.00130963  0.00076757  0.49989799  1
  Na  Na3  1  -0.00000562  -0.00033996  0.75021964  1
  Na  Na4  1  -0.00090404  0.33384306  0.00166511  1
  Na  Na5  1  -0.00134806  0.33297840  0.24886726  1
  Na  Na6  1  0.00068357  0.33370563  0.49912837  1
  Na  Na7  1  0.00043933  0.33410365  0.74997767  1
  Na  Na8  1  -0.00167308  0.66722662  -0.00006622  1
  Na  Na9  1  -0.00150747  0.66679991  0.25080139  1
  Na  Na10  1  -0.00071285  0.66707605  0.49925935  1
  Na  Na11  1  -0.00165354  0.66612049  0.74919722  1
  Na  Na12  1  0.50101949  0.00045294  -0.00014483  1
  Na  Na13  1  0.49959588  -0.00075026  0.24956212  1
  Na  Na14  1  0.50082441  -0.00032609  0.49986742  1
  Na  Na15  1  0.49946253  -0.00098531  0.75096793  1
  Na  Na16  1  0.49886000  0.33379249  -0.00092599  1
  Na  Na17  1  0.49911012  0.33320202  0.25049833  1
  Na  Na18  1  0.49753200  0.33252945  0.50114831  1
  Na  Na19  1  0.49858208  0.33339726  0.74908081  1
  Na  Na20  1  0.50074949  0.66591296  0.00056731  1
  Na  Na21  1  0.50304705  0.66742432  0.24901537  1
  Na  Na22  1  0.50155439  0.66723715  0.50071257  1
  Na  Na23  1  0.50058978  0.66668703  0.75053826  1
  Na  Na24  1  0.25010290  0.00017085  0.12606418  1
  Na  Na25  1  0.25004861  -0.00011597  0.37587365  1
  Na  Na26  1  0.25043626  -0.00051419  0.62397906  1
  Na  Na27  1  0.25078217  0.00019688  0.87460461  1
  Na  Na28  1  0.25066909  0.33294241  0.12415753  1
  Na  Na29  1  0.25177611  0.33378378  0.37587678  1
  Na  Na30  1  0.25230328  0.33450777  0.62521112  1
  Na  Na31  1  0.25160482  0.33396066  0.87434164  1
  Na  Na32  1  0.24947401  0.66652622  0.12367699  1
  Na  Na33  1  0.24962726  0.66697055  0.37509913  1
  Na  Na34  1  0.24799944  0.66640358  0.62591335  1
  Na  Na35  1  0.25034824  0.66707258  0.87552428  1
  Na  Na36  1  0.74853748  -0.00014535  0.12563829  1
  Na  Na37  1  0.74715286  -0.00084034  0.37468596  1
  Na  Na38  1  0.74980377  0.00012195  0.62524916  1
  Na  Na39  1  0.74905576  -0.00115369  0.87389126  1
  Na  Na40  1  0.75125944  0.33383129  0.12426164  1
  Na  Na41  1  0.75151826  0.33390816  0.37523055  1
  Na  Na42  1  0.74780393  0.33223488  0.62535429  1
  Na  Na43  1  0.75000249  0.33380660  0.87576337  1
  Na  Na44  1  0.74940321  0.66610030  0.12460769  1
  Na  Na45  1  0.74920707  0.66668369  0.37505892  1
  Na  Na46  1  0.75128398  0.66725106  0.62489821  1
  Na  Na47  1  0.75097149  0.66632661  0.87491872  1
  Na  Na48  1  -0.00062542  0.16803030  0.00069507  1
  Na  Na49  1  0.00282486  0.16603175  0.24954429  1
  Na  Na50  1  0.00197808  0.16691078  0.50016419  1
  Na  Na51  1  0.00083837  0.16699216  0.74996771  1
  Na  Na52  1  -0.00322010  0.50134100  0.00065731  1
  Na  Na53  1  -0.00166402  0.50037578  0.25044242  1
  Na  Na54  1  0.00044520  0.49979726  0.49856291  1
  Na  Na55  1  0.00019616  0.49974823  0.75016343  1
  Na  Na56  1  -0.00042716  0.83219387  -0.00027884  1
  Na  Na57  1  -0.00141436  0.83282752  0.25009054  1
  Na  Na58  1  -0.00219969  0.83330394  0.49930697  1
  Na  Na59  1  -0.00086339  0.83193312  0.74978239  1
  Na  Na60  1  0.49708424  0.16839269  -0.00006752  1
  Na  Na61  1  0.49952807  0.16690586  0.24980091  1
  Na  Na62  1  0.49987220  0.16723242  0.50041489  1
  Na  Na63  1  0.49912020  0.16734556  0.74992352  1
  Na  Na64  1  0.50215536  0.49965046  -0.00024779  1
  Na  Na65  1  0.50210873  0.49950675  0.24921475  1
  Na  Na66  1  0.49944053  0.50078881  0.50118103  1
  Na  Na67  1  0.50002007  0.49994830  0.74993172  1
  Na  Na68  1  0.49983322  0.83300820  -0.00039556  1
  Na  Na69  1  0.50136582  0.83218205  0.25024857  1
  Na  Na70  1  0.49937205  0.83337023  0.50012462  1
  Na  Na71  1  0.50012801  0.83300365  0.75088742  1
  Na  Na72  1  0.25113722  0.16683762  0.12495403  1
  Na  Na73  1  0.24938639  0.16697726  0.37534827  1
  Na  Na74  1  0.24954111  0.16749125  0.62402557  1
  Na  Na75  1  0.25305273  0.16634056  0.87528924  1
  Na  Na76  1  0.25104485  0.49987401  0.12410631  1
  Na  Na77  1  0.25054133  0.50010825  0.37540011  1
  Na  Na78  1  0.25039261  0.49975496  0.62599116  1
  Na  Na79  1  0.25140472  0.49909565  0.87495026  1
  Na  Na80  1  0.24904086  0.83284195  0.12470913  1
  Na  Na81  1  0.25165073  0.83211639  0.37608727  1
  Na  Na82  1  0.25059864  0.83245287  0.62522210  1
  Na  Na83  1  0.24889415  0.83268568  0.87415106  1
  Na  Na84  1  0.75013576  0.16704543  0.12495583  1
  Na  Na85  1  0.74895265  0.16725759  0.37514054  1
  Na  Na86  1  0.74843497  0.16760432  0.62438993  1
  Na  Na87  1  0.75045728  0.16690591  0.87554227  1
  Na  Na88  1  0.74966937  0.50000064  0.12368247  1
  Na  Na89  1  0.74887263  0.50017395  0.37459976  1
  Na  Na90  1  0.74994456  0.49991847  0.62612652  1
  Na  Na91  1  0.74967956  0.50034948  0.87458753  1
  Na  Na92  1  0.74990821  0.83252818  0.12593977  1
  Na  Na93  1  0.75059485  0.83219238  0.37529685  1
  Na  Na94  1  0.75030560  0.83301609  0.62523115  1
  Na  Na95  1  0.75144487  0.83196712  0.87426880  1
  Mn  Mn96  1  0.60739797  0.08386967  0.12221657  1
  Mn  Mn97  1  0.89207715  0.91688833  0.12713724  1
  Mn  Mn98  1  0.60731769  0.41667256  0.37289131  1
  Mn  Mn99  1  0.10845307  0.08410232  0.87262711  1
  Mn  Mn100  1  0.35754008  0.08303029  0.25285321  1
  Mn  Mn101  1  0.60769991  0.08265520  0.62279464  1
  Mn  Mn102  1  0.14269796  0.25013018  0.74841482  1
  Mn  Mn103  1  0.39276261  0.58374016  0.37729011  1
  Mn  Mn104  1  0.89161140  0.91824444  0.37755334  1
  Mn  Mn105  1  0.39376105  0.58318016  0.12696707  1
  Mn  Mn106  1  0.10719590  0.41760456  0.12263605  1
  Mn  Mn107  1  0.14181359  0.58278502  0.99769170  1
  Mn  Mn108  1  0.89212120  0.91706181  0.87789442  1
  Mn  Mn109  1  0.60692226  0.41685580  0.62315122  1
  Mn  Mn110  1  0.39260019  0.91639481  0.12714391  1
  Mn  Mn111  1  0.35857851  0.41716885  0.25200824  1
  Mn  Mn112  1  0.35793714  0.08361129  0.75177329  1
  Mn  Mn113  1  0.14159990  0.91679242  0.74713466  1
  Mn  Mn114  1  0.85825115  0.08381442  0.75197147  1
  Mn  Mn115  1  0.10735209  0.75057246  0.37295124  1
  Mn  Mn116  1  0.64198413  0.24991081  0.99734122  1
  Mn  Mn117  1  0.39186241  0.58402344  0.62786783  1
  Mn  Mn118  1  0.89223682  0.25020906  0.62713207  1
  Mn  Mn119  1  0.14173815  0.58300892  0.24709986  1
  Mn  Mn120  1  0.85813788  0.08366808  0.25276641  1
  Mn  Mn121  1  0.89263111  0.24985964  0.12779249  1
  Mn  Mn122  1  0.85799175  0.08263183  0.00233579  1
  Mn  Mn123  1  0.85745326  0.08306012  0.50186015  1
  Mn  Mn124  1  0.89128298  0.58264936  0.37740489  1
  Mn  Mn125  1  0.64189935  0.25101082  0.24801346  1
  Mn  Mn126  1  0.85791514  0.41663915  0.75229716  1
  Mn  Mn127  1  0.35817518  0.08291646  0.50237204  1
  Mn  Mn128  1  0.14144157  0.58299471  0.74837783  1
  Mn  Mn129  1  0.64253679  0.91633585  0.74730062  1
  Mn  Mn130  1  0.64236460  0.58333459  0.49803881  1
  Mn  Mn131  1  0.85769712  0.41664991  0.50271664  1
  Mn  Mn132  1  0.60812651  0.74936367  0.87303648  1
  Mn  Mn133  1  0.35838489  0.74967104  0.25168040  1
  Mn  Mn134  1  0.10806832  0.41603642  0.37222538  1
  Mn  Mn135  1  0.14235826  0.91653637  0.99773022  1
  Mn  Mn136  1  0.60743679  0.08448095  0.87301744  1
  Mn  Mn137  1  0.14239951  0.91566079  0.49814964  1
  Mn  Mn138  1  0.35753788  0.74937316  0.75223521  1
  Mn  Mn139  1  0.14227598  0.91660279  0.24796680  1
  Mn  Mn140  1  0.14338946  0.25049274  0.99751706  1
  Mn  Mn141  1  0.39200321  0.91618041  0.87802780  1
  Mn  Mn142  1  0.64164286  0.91621483  0.24769615  1
  Mn  Mn143  1  0.14284423  0.25086230  0.49786023  1
  Fe  Fe144  1  0.10802537  0.41711280  0.62337065  1
  Fe  Fe145  1  0.64314356  0.58271439  0.24810811  1
  Fe  Fe146  1  0.35821762  0.41724467  0.00169326  1
  Fe  Fe147  1  0.89146045  0.58385928  0.12691803  1
  Fe  Fe148  1  0.85712055  0.74974326  0.00193674  1
  Fe  Fe149  1  0.14329414  0.25060993  0.24853948  1
  Fe  Fe150  1  0.64287968  0.91597951  0.99856871  1
  Fe  Fe151  1  0.60810950  0.41635479  0.12270727  1
  Fe  Fe152  1  0.39244985  0.24962799  0.37686518  1
  Fe  Fe153  1  0.39295016  0.24909385  0.62700381  1
  Fe  Fe154  1  0.89229349  0.25073928  0.87621805  1
  Fe  Fe155  1  0.64322417  0.58333191  0.74863525  1
  Fe  Fe156  1  0.60847920  0.74983581  0.12217150  1
  Fe  Fe157  1  0.10627680  0.74912382  0.87348484  1
  Fe  Fe158  1  0.39294365  0.25077011  0.87654221  1
  Fe  Fe159  1  0.64173129  0.24964056  0.49766346  1
  Fe  Fe160  1  0.89236900  0.91671697  0.62576446  1
  Fe  Fe161  1  0.85688629  0.41695994  0.00123283  1
  Fe  Fe162  1  0.35690992  0.74981892  0.00191178  1
  Fe  Fe163  1  0.10746828  0.08307022  0.62346579  1
  Fe  Fe164  1  0.39330807  0.91652493  0.62641876  1
  Fe  Fe165  1  0.85618438  0.74964947  0.25159337  1
  Fe  Fe166  1  0.35723110  0.41796234  0.50190951  1
  Fe  Fe167  1  0.39333846  0.58302297  0.87699560  1
  Fe  Fe168  1  0.10625818  0.74988332  0.12345146  1
  Fe  Fe169  1  0.10599678  0.74975803  0.62280644  1
  Fe  Fe170  1  0.60705475  0.41646021  0.87318472  1
  Fe  Fe171  1  0.85661606  0.41681714  0.25131940  1
  Fe  Fe172  1  0.35801948  0.74908398  0.50222896  1
  Fe  Fe173  1  0.39283497  0.25048905  0.12699569  1
  Fe  Fe174  1  0.10697966  0.41729795  0.87428027  1
  Fe  Fe175  1  0.39327484  0.91631747  0.37690743  1
  Fe  Fe176  1  0.35784647  0.08285297  0.00224715  1
  Fe  Fe177  1  0.64210665  0.25030997  0.74891497  1
  Fe  Fe178  1  0.60782654  0.75022966  0.62341750  1
  Fe  Fe179  1  0.89211863  0.58250805  0.87654093  1
  Fe  Fe180  1  0.64380129  0.58355546  0.99756058  1
  Fe  Fe181  1  0.10779568  0.08366155  0.37332763  1
  Fe  Fe182  1  0.60672735  0.08331766  0.37363407  1
  Fe  Fe183  1  0.14255678  0.58349569  0.49904837  1
  Fe  Fe184  1  0.64229098  0.91677348  0.49857667  1
  Fe  Fe185  1  0.60752748  0.75047306  0.37379241  1
  Fe  Fe186  1  0.85745405  0.74973354  0.75107575  1
  Fe  Fe187  1  0.10815178  0.08286785  0.12289620  1
  Fe  Fe188  1  0.85650504  0.75022185  0.50188438  1
  Fe  Fe189  1  0.35726354  0.41736444  0.75247781  1
  Fe  Fe190  1  0.89312499  0.58321978  0.62623027  1
  Fe  Fe191  1  0.89315310  0.24941856  0.37635264  1
  P  P192  1  0.05535193  0.24974906  0.11114603  1
  P  P193  1  0.05348939  0.24978061  0.35927725  1
  P  P194  1  0.05400050  0.25071154  0.61013265  1
  P  P195  1  0.05235084  0.25185516  0.86074304  1
  P  P196  1  0.05130589  0.58448939  0.10999249  1
  P  P197  1  0.05427196  0.58345416  0.36116156  1
  P  P198  1  0.05277831  0.58330594  0.60931008  1
  P  P199  1  0.05156035  0.58306138  0.86081091  1
  P  P200  1  0.05340140  0.91595582  0.11005233  1
  P  P201  1  0.05315016  0.91711848  0.36016247  1
  P  P202  1  0.05183518  0.91592423  0.60993668  1
  P  P203  1  0.05331685  0.91556215  0.86005663  1
  P  P204  1  0.55217404  0.25119407  0.10976033  1
  P  P205  1  0.55280338  0.24949885  0.36127620  1
  P  P206  1  0.55378943  0.25006855  0.61084254  1
  P  P207  1  0.55233428  0.25133896  0.85945952  1
  P  P208  1  0.55680174  0.58294493  0.11036556  1
  P  P209  1  0.55440654  0.58424339  0.35942693  1
  P  P210  1  0.55466114  0.58428322  0.61180321  1
  P  P211  1  0.55464359  0.58243698  0.86073516  1
  P  P212  1  0.55431043  0.91569780  0.10909148  1
  P  P213  1  0.55360450  0.91651278  0.36156734  1
  P  P214  1  0.55317357  0.91544340  0.60971181  1
  P  P215  1  0.55476322  0.91635835  0.86124685  1
  P  P216  1  0.44527157  0.08397030  0.13902801  1
  P  P217  1  0.44752037  0.08306311  0.38992882  1
  P  P218  1  0.44686292  0.08260269  0.63991019  1
  P  P219  1  0.44577449  0.08413469  0.89051047  1
  P  P220  1  0.44746611  0.41637366  0.13858872  1
  P  P221  1  0.44605651  0.41646223  0.39096078  1
  P  P222  1  0.44397964  0.41639449  0.63961445  1
  P  P223  1  0.44614878  0.41734178  0.88892588  1
  P  P224  1  0.44781552  0.74966923  0.13864052  1
  P  P225  1  0.44761392  0.75009827  0.39042948  1
  P  P226  1  0.44705542  0.75070075  0.63940544  1
  P  P227  1  0.44606228  0.74851980  0.89077477  1
  P  P228  1  0.94833617  0.08311614  0.14023036  1
  P  P229  1  0.94823320  0.08479588  0.39007981  1
  P  P230  1  0.94792384  0.08287298  0.63953803  1
  P  P231  1  0.94712847  0.08462564  0.89017796  1
  P  P232  1  0.94413881  0.41813090  0.13938220  1
  P  P233  1  0.94517709  0.41538937  0.38841792  1
  P  P234  1  0.94808941  0.41761687  0.63951715  1
  P  P235  1  0.94679211  0.41675326  0.89084216  1
  P  P236  1  0.94481678  0.74926739  0.13948234  1
  P  P237  1  0.94371644  0.75008351  0.38945501  1
  P  P238  1  0.94515102  0.74976261  0.63846612  1
  P  P239  1  0.94513357  0.74878329  0.88906727  1
  P  P240  1  0.19498321  0.08441731  0.23585353  1
  P  P241  1  0.19492994  0.08310763  0.48561466  1
  P  P242  1  0.19652849  0.08363807  0.73382370  1
  P  P243  1  0.19761668  0.08353736  0.98598983  1
  P  P244  1  0.19724072  0.41582158  0.23453706  1
  P  P245  1  0.19662931  0.41786968  0.48643005  1
  P  P246  1  0.19606475  0.41673952  0.73599118  1
  P  P247  1  0.19776938  0.41679782  0.98421820  1
  P  P248  1  0.19605702  0.74989265  0.23407263  1
  P  P249  1  0.19637769  0.74903844  0.48658791  1
  P  P250  1  0.19403913  0.74951625  0.73543148  1
  P  P251  1  0.19548389  0.74949460  0.98530607  1
  P  P252  1  0.69516781  0.08402011  0.23605692  1
  P  P253  1  0.69538070  0.08301231  0.48443905  1
  P  P254  1  0.69668455  0.08465193  0.73510683  1
  P  P255  1  0.69676762  0.08243252  0.98476960  1
  P  P256  1  0.69703777  0.41699496  0.23421518  1
  P  P257  1  0.69625220  0.41599750  0.48521550  1
  P  P258  1  0.69496024  0.41656827  0.73677496  1
  P  P259  1  0.69584240  0.41738201  0.98522487  1
  P  P260  1  0.69547590  0.74898558  0.23576878  1
  P  P261  1  0.69584166  0.75090847  0.48594938  1
  P  P262  1  0.69721775  0.74870688  0.73457502  1
  P  P263  1  0.69712901  0.74969317  0.98597370  1
  P  P264  1  0.30635366  0.25069713  0.01408450  1
  P  P265  1  0.30418007  0.25017755  0.26474454  1
  P  P266  1  0.30572639  0.25064974  0.51451096  1
  P  P267  1  0.30553094  0.25084469  0.76428368  1
  P  P268  1  0.30499866  0.58324865  0.01351383  1
  P  P269  1  0.30338537  0.58360795  0.26490720  1
  P  P270  1  0.30243274  0.58395623  0.51535991  1
  P  P271  1  0.30368818  0.58290930  0.76623494  1
  P  P272  1  0.30339474  0.91598288  0.01517170  1
  P  P273  1  0.30412683  0.91614092  0.26621877  1
  P  P274  1  0.30576974  0.91531491  0.51454617  1
  P  P275  1  0.30438354  0.91640022  0.76382727  1
  P  P276  1  0.80476016  0.25083949  0.01382884  1
  P  P277  1  0.80389273  0.25084331  0.26561325  1
  P  P278  1  0.80277925  0.24958092  0.51392588  1
  P  P279  1  0.80243416  0.25042699  0.76556388  1
  P  P280  1  0.80442990  0.58303405  0.01375659  1
  P  P281  1  0.80295741  0.58315135  0.26337912  1
  P  P282  1  0.80370756  0.58384472  0.51596685  1
  P  P283  1  0.80438302  0.58386993  0.76401494  1
  P  P284  1  0.80198005  0.91568291  0.01521452  1
  P  P285  1  0.80293331  0.91603930  0.26509279  1
  P  P286  1  0.80217770  0.91642069  0.51537167  1
  P  P287  1  0.80509029  0.91577600  0.76339672  1
  O  O288  1  0.05948506  0.25054714  0.18787429  1
  O  O289  1  0.05732620  0.25100221  0.43581455  1
  O  O290  1  0.05684296  0.25095349  0.68704182  1
  O  O291  1  0.05629132  0.25118309  0.93735683  1
  O  O292  1  0.05511574  0.58362015  0.18679110  1
  O  O293  1  0.05888772  0.58348782  0.43757394  1
  O  O294  1  0.05586869  0.58310635  0.68626514  1
  O  O295  1  0.05514885  0.58347448  0.93704852  1
  O  O296  1  0.05604650  0.91592884  0.18681048  1
  O  O297  1  0.05636520  0.91603035  0.43687042  1
  O  O298  1  0.05506133  0.91558500  0.68666194  1
  O  O299  1  0.05653502  0.91597577  0.93682645  1
  O  O300  1  0.55586740  0.25075481  0.18645916  1
  O  O301  1  0.55750250  0.25028385  0.43798591  1
  O  O302  1  0.55853147  0.25019767  0.68747874  1
  O  O303  1  0.55608743  0.25079498  0.93617636  1
  O  O304  1  0.56048048  0.58291681  0.18717004  1
  O  O305  1  0.55698482  0.58331974  0.43628123  1
  O  O306  1  0.55891625  0.58368979  0.68849148  1
  O  O307  1  0.55958545  0.58337577  0.93745427  1
  O  O308  1  0.55685110  0.91590626  0.18595080  1
  O  O309  1  0.55803432  0.91628802  0.43824044  1
  O  O310  1  0.55668376  0.91593838  0.68647340  1
  O  O311  1  0.55947589  0.91602675  0.93794606  1
  O  O312  1  0.44134746  0.08309129  0.06226154  1
  O  O313  1  0.44411181  0.08309267  0.31324617  1
  O  O314  1  0.44430345  0.08288404  0.56307928  1
  O  O315  1  0.44317928  0.08297534  0.81373576  1
  O  O316  1  0.44273038  0.41737381  0.06192598  1
  O  O317  1  0.44380250  0.41733322  0.31410385  1
  O  O318  1  0.44008124  0.41785272  0.56281370  1
  O  O319  1  0.44174513  0.41760258  0.81224037  1
  O  O320  1  0.44202647  0.74953850  0.06209644  1
  O  O321  1  0.44419018  0.74924841  0.31372193  1
  O  O322  1  0.44233840  0.74932448  0.56273646  1
  O  O323  1  0.44302571  0.74938044  0.81400272  1
  O  O324  1  0.94383475  0.08322043  0.06358705  1
  O  O325  1  0.94441688  0.08394351  0.31338836  1
  O  O326  1  0.94409175  0.08359654  0.56289214  1
  O  O327  1  0.94399280  0.08383230  0.81336702  1
  O  O328  1  0.94008898  0.41739142  0.06268963  1
  O  O329  1  0.94061332  0.41658056  0.31174730  1
  O  O330  1  0.94414596  0.41687563  0.56295602  1
  O  O331  1  0.94370236  0.41668800  0.81367534  1
  O  O332  1  0.94023289  0.74997138  0.06271627  1
  O  O333  1  0.93923369  0.74969636  0.31273695  1
  O  O334  1  0.94059843  0.75005853  0.56178708  1
  O  O335  1  0.94081072  0.74925331  0.81231856  1
  O  O336  1  0.19235111  0.08346175  0.06266604  1
  O  O337  1  0.19100298  0.08355459  0.31269201  1
  O  O338  1  0.19038478  0.08293696  0.56237559  1
  O  O339  1  0.19380590  0.08374171  0.81071032  1
  O  O340  1  0.19315160  0.41703321  0.06089065  1
  O  O341  1  0.19425537  0.41637001  0.31134005  1
  O  O342  1  0.19189401  0.41706611  0.56317977  1
  O  O343  1  0.19069811  0.41678141  0.81259958  1
  O  O344  1  0.19029881  0.74932590  0.06194541  1
  O  O345  1  0.19287076  0.74996808  0.31087540  1
  O  O346  1  0.19081603  0.75004389  0.56324179  1
  O  O347  1  0.18939497  0.74932861  0.81219714  1
  O  O348  1  0.69359439  0.08363751  0.06158869  1
  O  O349  1  0.69024754  0.08400141  0.31278190  1
  O  O350  1  0.69275414  0.08326014  0.56124506  1
  O  O351  1  0.69355074  0.08388571  0.81185807  1
  O  O352  1  0.69158275  0.41614129  0.06190510  1
  O  O353  1  0.69315218  0.41623026  0.31093442  1
  O  O354  1  0.69288162  0.41631386  0.56197337  1
  O  O355  1  0.69129813  0.41657658  0.81345357  1
  O  O356  1  0.69281780  0.74977486  0.06265537  1
  O  O357  1  0.69104805  0.74995593  0.31249003  1
  O  O358  1  0.69145229  0.75039539  0.56262738  1
  O  O359  1  0.69362874  0.74921757  0.81133406  1
  O  O360  1  0.30895213  0.25023509  0.18801755  1
  O  O361  1  0.30960240  0.24935663  0.43763586  1
  O  O362  1  0.30909703  0.24979072  0.68750875  1
  O  O363  1  0.31002128  0.25083717  0.93723809  1
  O  O364  1  0.30736678  0.58367505  0.18813846  1
  O  O365  1  0.30613177  0.58412010  0.43871311  1
  O  O366  1  0.30646666  0.58385940  0.68939626  1
  O  O367  1  0.30905769  0.58309458  0.93679016  1
  O  O368  1  0.30728598  0.91624647  0.18941929  1
  O  O369  1  0.31012330  0.91620637  0.43778408  1
  O  O370  1  0.30902668  0.91621233  0.68709349  1
  O  O371  1  0.30580791  0.91594800  0.93833266  1
  O  O372  1  0.80700945  0.24959217  0.18882658  1
  O  O373  1  0.80851510  0.24956862  0.43738888  1
  O  O374  1  0.80634576  0.25056257  0.68885484  1
  O  O375  1  0.80899948  0.25040597  0.93706086  1
  O  O376  1  0.80693605  0.58343011  0.18686309  1
  O  O377  1  0.80609428  0.58290922  0.43888084  1
  O  O378  1  0.80927466  0.58286988  0.68738718  1
  O  O379  1  0.80875836  0.58297932  0.93696817  1
  O  O380  1  0.80614739  0.91694162  0.18833879  1
  O  O381  1  0.80570132  0.91723720  0.43865035  1
  O  O382  1  0.80938076  0.91677079  0.68666363  1
  O  O383  1  0.80568814  0.91625938  0.93843905  1
  O  O384  1  0.23629842  0.25045603  0.03835729  1
  O  O385  1  0.23392175  0.25026233  0.28861220  1
  O  O386  1  0.23571708  0.25065681  0.53853346  1
  O  O387  1  0.23561637  0.25009477  0.78902769  1
  O  O388  1  0.23508988  0.58299747  0.03792473  1
  O  O389  1  0.23365476  0.58352761  0.28960227  1
  O  O390  1  0.23261572  0.58358400  0.54055344  1
  O  O391  1  0.23390885  0.58305639  0.79115975  1
  O  O392  1  0.23392574  0.91624966  0.04096403  1
  O  O393  1  0.23439825  0.91615689  0.29115593  1
  O  O394  1  0.23562036  0.91574813  0.53841501  1
  O  O395  1  0.23431794  0.91640373  0.78777566  1
  O  O396  1  0.73469521  0.25053371  0.03801099  1
  O  O397  1  0.73409404  0.25061477  0.29043650  1
  O  O398  1  0.73222832  0.24948599  0.53701299  1
  O  O399  1  0.73241182  0.25064581  0.79006713  1
  O  O400  1  0.73401890  0.58313196  0.03736600  1
  O  O401  1  0.73285325  0.58315227  0.28812703  1
  O  O402  1  0.73411709  0.58342576  0.54109852  1
  O  O403  1  0.73404701  0.58329851  0.78772751  1
  O  O404  1  0.73212635  0.91585527  0.04021031  1
  O  O405  1  0.73321790  0.91571683  0.29009356  1
  O  O406  1  0.73210934  0.91677772  0.53994841  1
  O  O407  1  0.73502849  0.91548419  0.78748721  1
  O  O408  1  0.26508193  0.08347212  0.21186360  1
  O  O409  1  0.26524876  0.08318721  0.46207114  1
  O  O410  1  0.26610594  0.08364779  0.70854659  1
  O  O411  1  0.26803400  0.08352965  0.96261171  1
  O  O412  1  0.26684067  0.41640230  0.20915991  1
  O  O413  1  0.26703847  0.41727563  0.46272501  1
  O  O414  1  0.26658666  0.41726572  0.71296029  1
  O  O415  1  0.26815079  0.41676079  0.96074747  1
  O  O416  1  0.26586938  0.74973330  0.20921737  1
  O  O417  1  0.26683822  0.74944140  0.46319693  1
  O  O418  1  0.26430684  0.74929371  0.71203269  1
  O  O419  1  0.26601444  0.74952458  0.96203464  1
  O  O420  1  0.76528696  0.08395265  0.21223840  1
  O  O421  1  0.76503720  0.08290192  0.45903932  1
  O  O422  1  0.76627122  0.08430637  0.70963076  1
  O  O423  1  0.76636438  0.08272261  0.95946548  1
  O  O424  1  0.76711688  0.41673666  0.20982582  1
  O  O425  1  0.76597943  0.41686757  0.46024527  1
  O  O426  1  0.76496511  0.41646883  0.71190485  1
  O  O427  1  0.76624588  0.41728790  0.96151155  1
  O  O428  1  0.76588207  0.74947230  0.21203701  1
  O  O429  1  0.76622360  0.74985877  0.46217424  1
  O  O430  1  0.76736695  0.74956922  0.71032716  1
  O  O431  1  0.76734988  0.74900977  0.96175300  1
  O  O432  1  0.01856850  0.08301864  0.16401208  1
  O  O433  1  0.01826337  0.08427809  0.41456880  1
  O  O434  1  0.01798466  0.08315492  0.66426357  1
  O  O435  1  0.01682643  0.08455153  0.91534499  1
  O  O436  1  0.01423883  0.41720639  0.16348987  1
  O  O437  1  0.01520362  0.41612858  0.41238598  1
  O  O438  1  0.01811863  0.41726862  0.66411429  1
  O  O439  1  0.01659754  0.41745859  0.91592242  1
  O  O440  1  0.01510173  0.74957639  0.16333714  1
  O  O441  1  0.01386514  0.75028089  0.41308871  1
  O  O442  1  0.01556246  0.74912490  0.66227143  1
  O  O443  1  0.01551437  0.74935181  0.91286550  1
  O  O444  1  0.51515536  0.08326567  0.16355579  1
  O  O445  1  0.51737437  0.08337955  0.41508052  1
  O  O446  1  0.51630349  0.08275384  0.66571626  1
  O  O447  1  0.51545910  0.08434229  0.91580462  1
  O  O448  1  0.51770075  0.41652898  0.16257040  1
  O  O449  1  0.51557970  0.41671514  0.41666722  1
  O  O450  1  0.51406138  0.41687038  0.66354369  1
  O  O451  1  0.51651867  0.41699781  0.91281086  1
  O  O452  1  0.51832704  0.74956190  0.16164054  1
  O  O453  1  0.51775496  0.75020179  0.41489359  1
  O  O454  1  0.51722284  0.75030816  0.66361531  1
  O  O455  1  0.51594864  0.74922433  0.91539494  1
  O  O456  1  0.48221619  0.25104444  0.08509284  1
  O  O457  1  0.48250726  0.24989384  0.33734941  1
  O  O458  1  0.48325344  0.24991116  0.58760510  1
  O  O459  1  0.48215276  0.25089597  0.83530504  1
  O  O460  1  0.48673511  0.58298340  0.08616139  1
  O  O461  1  0.48486303  0.58354074  0.33381499  1
  O  O462  1  0.48461404  0.58395837  0.58756919  1
  O  O463  1  0.48421428  0.58300039  0.83729517  1
  O  O464  1  0.48464452  0.91643865  0.08394752  1
  O  O465  1  0.48342016  0.91594339  0.33713014  1
  O  O466  1  0.48319992  0.91637773  0.58509256  1
  O  O467  1  0.48460795  0.91594830  0.83762351  1
  O  O468  1  0.98521363  0.25042146  0.08730174  1
  O  O469  1  0.98344769  0.24971512  0.33458085  1
  O  O470  1  0.98435848  0.25062950  0.58472193  1
  O  O471  1  0.98239566  0.25105446  0.83578652  1
  O  O472  1  0.98123459  0.58435795  0.08561467  1
  O  O473  1  0.98386156  0.58333759  0.33734053  1
  O  O474  1  0.98275561  0.58360094  0.58452732  1
  O  O475  1  0.98153348  0.58257653  0.83563180  1
  O  O476  1  0.98389147  0.91644283  0.08422172  1
  O  O477  1  0.98345762  0.91710467  0.33502310  1
  O  O478  1  0.98189804  0.91637197  0.58473980  1
  O  O479  1  0.98362469  0.91588895  0.83501057  1
  O  O480  1  0.08888000  0.31470468  0.07778374  1
  O  O481  1  0.08743765  0.31462329  0.32583490  1
  O  O482  1  0.08803612  0.31586354  0.57773650  1
  O  O483  1  0.08580317  0.31730961  0.82831321  1
  O  O484  1  0.08513382  0.64954577  0.07752199  1
  O  O485  1  0.08726174  0.64860594  0.32774730  1
  O  O486  1  0.08687906  0.64833245  0.57688749  1
  O  O487  1  0.08510086  0.64807850  0.82742456  1
  O  O488  1  0.08811957  0.98094245  0.07798417  1
  O  O489  1  0.08736971  0.98236083  0.32834359  1
  O  O490  1  0.08635657  0.98085878  0.57790252  1
  O  O491  1  0.08755422  0.98073141  0.82781213  1
  O  O492  1  0.58614584  0.31610292  0.07704194  1
  O  O493  1  0.58610752  0.31455214  0.32775243  1
  O  O494  1  0.58685666  0.31507927  0.57720333  1
  O  O495  1  0.58599248  0.31639850  0.82672329  1
  O  O496  1  0.59051395  0.64802311  0.07730306  1
  O  O497  1  0.58849337  0.64961735  0.32773859  1
  O  O498  1  0.58809987  0.64942267  0.57886842  1
  O  O499  1  0.58835788  0.64722244  0.82711696  1
  O  O500  1  0.58892977  0.98061400  0.07693034  1
  O  O501  1  0.58662154  0.98181488  0.32843078  1
  O  O502  1  0.58764850  0.98016519  0.57694266  1
  O  O503  1  0.58784790  0.98160581  0.82810169  1
  O  O504  1  0.41132898  0.01917212  0.17220731  1
  O  O505  1  0.41380532  0.01786898  0.42253795  1
  O  O506  1  0.41277083  0.01735316  0.67186669  1
  O  O507  1  0.41161370  0.01919444  0.92340329  1
  O  O508  1  0.41391792  0.35126669  0.17151586  1
  O  O509  1  0.41154082  0.35136711  0.42261053  1
  O  O510  1  0.41070255  0.35093382  0.67197145  1
  O  O511  1  0.41251622  0.35232275  0.92196275  1
  O  O512  1  0.41488786  0.68466256  0.17247347  1
  O  O513  1  0.41390492  0.68509292  0.42375576  1
  O  O514  1  0.41331530  0.68596276  0.67308981  1
  O  O515  1  0.41249469  0.68313341  0.92303084  1
  O  O516  1  0.91461649  0.01812109  0.17314619  1
  O  O517  1  0.91413136  0.01990883  0.42299513  1
  O  O518  1  0.91415710  0.01768293  0.67190683  1
  O  O519  1  0.91325276  0.01934854  0.92275685  1
  O  O520  1  0.90998854  0.35348662  0.17267596  1
  O  O521  1  0.91218537  0.34992743  0.42129295  1
  O  O522  1  0.91394544  0.35279857  0.67262822  1
  O  O523  1  0.91279068  0.35168919  0.92312032  1
  O  O524  1  0.91128699  0.68408259  0.17245657  1
  O  O525  1  0.91024445  0.68499420  0.42285834  1
  O  O526  1  0.91162919  0.68467468  0.67173055  1
  O  O527  1  0.91197176  0.68353459  0.92209960  1
  O  O528  1  0.16094818  0.01962873  0.20252943  1
  O  O529  1  0.16154979  0.01808304  0.45238627  1
  O  O530  1  0.16212677  0.01867738  0.70148920  1
  O  O531  1  0.16432742  0.01857729  0.95256038  1
  O  O532  1  0.16337749  0.35056605  0.20242400  1
  O  O533  1  0.16335608  0.35297348  0.45274344  1
  O  O534  1  0.16327853  0.35167040  0.70217963  1
  O  O535  1  0.16420457  0.35180645  0.95107515  1
  O  O536  1  0.16165210  0.68510237  0.20134437  1
  O  O537  1  0.16327885  0.68389725  0.45347349  1
  O  O538  1  0.16048015  0.68442466  0.70237987  1
  O  O539  1  0.16211133  0.68456807  0.95172178  1
  O  O540  1  0.66164513  0.01885779  0.20320147  1
  O  O541  1  0.66103494  0.01776304  0.45248024  1
  O  O542  1  0.66250528  0.01953853  0.70265497  1
  O  O543  1  0.66275524  0.01718523  0.95291313  1
  O  O544  1  0.66309054  0.35209156  0.20104492  1
  O  O545  1  0.66257431  0.35087017  0.45253364  1
  O  O546  1  0.66121232  0.35150615  0.70394079  1
  O  O547  1  0.66209913  0.35267425  0.95155607  1
  O  O548  1  0.66248489  0.68378660  0.20259483  1
  O  O549  1  0.66194646  0.68622320  0.45245486  1
  O  O550  1  0.66370480  0.68347962  0.70201889  1
  O  O551  1  0.66352721  0.68463431  0.95282550  1
  O  O552  1  0.33978406  0.31605989  0.04699819  1
  O  O553  1  0.33796495  0.31503947  0.29788171  1
  O  O554  1  0.33941603  0.31577686  0.54695280  1
  O  O555  1  0.33888952  0.31632863  0.79682692  1
  O  O556  1  0.33849236  0.64850159  0.04652944  1
  O  O557  1  0.33731701  0.64861291  0.29766103  1
  O  O558  1  0.33632061  0.64907335  0.54828360  1
  O  O559  1  0.33813394  0.64765368  0.79880273  1
  O  O560  1  0.33775880  0.98101838  0.04729824  1
  O  O561  1  0.33836378  0.98110433  0.29881696  1
  O  O562  1  0.33949674  0.98027426  0.54790461  1
  O  O563  1  0.33786141  0.98148591  0.79689566  1
  O  O564  1  0.83803521  0.31623198  0.04641894  1
  O  O565  1  0.83780741  0.31625534  0.29742129  1
  O  O566  1  0.83573185  0.31463913  0.54778934  1
  O  O567  1  0.83656999  0.31548481  0.79835067  1
  O  O568  1  0.83776628  0.64801027  0.04722190  1
  O  O569  1  0.83647984  0.64807552  0.29679398  1
  O  O570  1  0.83778655  0.64914340  0.54761773  1
  O  O571  1  0.83748998  0.64909101  0.79704588  1
  O  O572  1  0.83594670  0.98068953  0.04800027  1
  O  O573  1  0.83665184  0.98123202  0.29791708  1
  O  O574  1  0.83646200  0.98123741  0.54824853  1
  O  O575  1  0.83830239  0.98081637  0.79692909  1
  O  O576  1  0.41206144  0.14951974  0.17151513  1
  O  O577  1  0.41329956  0.14796957  0.42254210  1
  O  O578  1  0.41253855  0.14776352  0.67191343  1
  O  O579  1  0.41148529  0.14939413  0.92212963  1
  O  O580  1  0.41421081  0.48131179  0.17229533  1
  O  O581  1  0.41157903  0.48149615  0.42341425  1
  O  O582  1  0.41015248  0.48106087  0.67332170  1
  O  O583  1  0.41305184  0.48236611  0.92268699  1
  O  O584  1  0.41483458  0.81470685  0.17231118  1
  O  O585  1  0.41338137  0.81495670  0.42292583  1
  O  O586  1  0.41375089  0.81604975  0.67205188  1
  O  O587  1  0.41142007  0.81316707  0.92359122  1
  O  O588  1  0.91482792  0.14815762  0.17328975  1
  O  O589  1  0.91462260  0.14997439  0.42265032  1
  O  O590  1  0.91414511  0.14796497  0.67246729  1
  O  O591  1  0.91295912  0.14972598  0.92213306  1
  O  O592  1  0.91099268  0.48360188  0.17221673  1
  O  O593  1  0.91135085  0.48023953  0.42197421  1
  O  O594  1  0.91435051  0.48281818  0.67215167  1
  O  O595  1  0.91202306  0.48163034  0.92276610  1
  O  O596  1  0.91114242  0.81411331  0.17290340  1
  O  O597  1  0.90994699  0.81494916  0.42261013  1
  O  O598  1  0.91207338  0.81485727  0.67195963  1
  O  O599  1  0.91144819  0.81355150  0.92270247  1
  O  O600  1  0.08851271  0.18439102  0.07823539  1
  O  O601  1  0.08782453  0.18464950  0.32721247  1
  O  O602  1  0.08822059  0.18556130  0.57817695  1
  O  O603  1  0.08687709  0.18717970  0.82785035  1
  O  O604  1  0.08515831  0.51951595  0.07701595  1
  O  O605  1  0.08748172  0.51839452  0.32766544  1
  O  O606  1  0.08689583  0.51832713  0.57684117  1
  O  O607  1  0.08575842  0.51792990  0.82823352  1
  O  O608  1  0.08705631  0.85043420  0.07788023  1
  O  O609  1  0.08709030  0.85216702  0.32728294  1
  O  O610  1  0.08543347  0.85070876  0.57710304  1
  O  O611  1  0.08702353  0.85030764  0.82772383  1
  O  O612  1  0.58584794  0.18605620  0.07687079  1
  O  O613  1  0.58601354  0.18440979  0.32819661  1
  O  O614  1  0.58710236  0.18511933  0.57736744  1
  O  O615  1  0.58632935  0.18644674  0.82652480  1
  O  O616  1  0.59036040  0.51787791  0.07732316  1
  O  O617  1  0.58921203  0.51947442  0.32688507  1
  O  O618  1  0.58809865  0.51930764  0.57842195  1
  O  O619  1  0.58781933  0.51729484  0.82761670  1
  O  O620  1  0.58843783  0.85058471  0.07675058  1
  O  O621  1  0.58730850  0.85150160  0.32846799  1
  O  O622  1  0.58685002  0.85027912  0.57707258  1
  O  O623  1  0.58830852  0.85141456  0.82790840  1
  O  O624  1  0.34007154  0.18575611  0.04718232  1
  O  O625  1  0.33756394  0.18513876  0.29818031  1
  O  O626  1  0.33936737  0.18561384  0.54792393  1
  O  O627  1  0.33986308  0.18633166  0.79751754  1
  O  O628  1  0.33883439  0.51815367  0.04649807  1
  O  O629  1  0.33738183  0.51854280  0.29744586  1
  O  O630  1  0.33660335  0.51897758  0.54792324  1
  O  O631  1  0.33802954  0.51776325  0.79814239  1
  O  O632  1  0.33745641  0.85059986  0.04725304  1
  O  O633  1  0.33848230  0.85112585  0.29845224  1
  O  O634  1  0.33919777  0.85012591  0.54746226  1
  O  O635  1  0.33784255  0.85141491  0.79714716  1
  O  O636  1  0.83840646  0.18595371  0.04719980  1
  O  O637  1  0.83829687  0.18615075  0.29871118  1
  O  O638  1  0.83585963  0.18455584  0.54756868  1
  O  O639  1  0.83663203  0.18560340  0.79821014  1
  O  O640  1  0.83763452  0.51796876  0.04701291  1
  O  O641  1  0.83639413  0.51790009  0.29648482  1
  O  O642  1  0.83839912  0.51921264  0.54855209  1
  O  O643  1  0.83796166  0.51899593  0.79786057  1
  O  O644  1  0.83588644  0.85050700  0.04743486  1
  O  O645  1  0.83701000  0.85088839  0.29698631  1
  O  O646  1  0.83612999  0.85126951  0.54775382  1
  O  O647  1  0.83853303  0.85045123  0.79598366  1
  O  O648  1  0.16206701  0.14983610  0.20296558  1
  O  O649  1  0.16161326  0.14815369  0.45242411  1
  O  O650  1  0.16210779  0.14864689  0.70170774  1
  O  O651  1  0.16468895  0.14866752  0.95236691  1
  O  O652  1  0.16276522  0.48072472  0.20196391  1
  O  O653  1  0.16358122  0.48306214  0.45346746  1
  O  O654  1  0.16252090  0.48164457  0.70242879  1
  O  O655  1  0.16391831  0.48162580  0.95111150  1
  O  O656  1  0.16193661  0.81498327  0.20164744  1
  O  O657  1  0.16319571  0.81398963  0.45272130  1
  O  O658  1  0.16070125  0.81437912  0.70180600  1
  O  O659  1  0.16220343  0.81450046  0.95182980  1
  O  O660  1  0.66181867  0.14908086  0.20271586  1
  O  O661  1  0.66092182  0.14794656  0.45202724  1
  O  O662  1  0.66263490  0.14992492  0.70320431  1
  O  O663  1  0.66257275  0.14757420  0.95226228  1
  O  O664  1  0.66326799  0.48206531  0.20163784  1
  O  O665  1  0.66205847  0.48105591  0.45281653  1
  O  O666  1  0.66147086  0.48179188  0.70390990  1
  O  O667  1  0.66250730  0.48262269  0.95235627  1
  O  O668  1  0.66183326  0.81371309  0.20205523  1
  O  O669  1  0.66298013  0.81624459  0.45267821  1
  O  O670  1  0.66286096  0.81340553  0.70159566  1
  O  O671  1  0.66403946  0.81478489  0.95265755  1
