# generated using pymatgen
data_Na2MnFe(PO4)2
_symmetry_space_group_name_H-M   'P 1'
_cell_length_a   21.08246612
_cell_length_b   18.93461056
_cell_length_c   20.04149757
_cell_angle_alpha   90.00095605
_cell_angle_beta   90.00247435
_cell_angle_gamma   90.00070342
_symmetry_Int_Tables_number   1
_chemical_formula_structural   Na2MnFe(PO4)2
_chemical_formula_sum   'Na96 Mn48 Fe48 P96 O384'
_cell_volume   8000.33104972
_cell_formula_units_Z   48
loop_
 _symmetry_equiv_pos_site_id
 _symmetry_equiv_pos_as_xyz
  1  'x, y, z'
loop_
 _atom_site_type_symbol
 _atom_site_label
 _atom_site_symmetry_multiplicity
 _atom_site_fract_x
 _atom_site_fract_y
 _atom_site_fract_z
 _atom_site_occupancy
  Na  Na0  1  -0.00200110  -0.00121543  0.00136139  1
  Na  Na1  1  0.00248222  0.00037764  0.24924877  1
  Na  Na2  1  0.00216421  0.00002838  0.49996616  1
  Na  Na3  1  -0.00007833  -0.00024537  0.75003802  1
  Na  Na4  1  -0.00166977  0.33343563  -0.00084029  1
  Na  Na5  1  -0.00054207  0.33334453  0.25051662  1
  Na  Na6  1  0.00046179  0.33312766  0.49982505  1
  Na  Na7  1  -0.00239995  0.33208536  0.75009601  1
  Na  Na8  1  0.00014106  0.66691143  -0.00086631  1
  Na  Na9  1  0.00049313  0.66689312  0.25108114  1
  Na  Na10  1  0.00068276  0.66691116  0.50088188  1
  Na  Na11  1  0.00001748  0.66709508  0.74955632  1
  Na  Na12  1  0.49802585  -0.00123806  -0.00026555  1
  Na  Na13  1  0.49981358  0.00058635  0.24932124  1
  Na  Na14  1  0.49988323  0.00057432  0.50073726  1
  Na  Na15  1  0.49838765  -0.00060230  0.74975737  1
  Na  Na16  1  0.50184957  0.33391625  -0.00159596  1
  Na  Na17  1  0.49924131  0.33299720  0.25041026  1
  Na  Na18  1  0.49698370  0.33275407  0.50049758  1
  Na  Na19  1  0.49872171  0.33328087  0.75016852  1
  Na  Na20  1  0.49977346  0.66710884  -0.00080299  1
  Na  Na21  1  0.49820702  0.66643784  0.25070927  1
  Na  Na22  1  0.49964540  0.66613544  0.50030362  1
  Na  Na23  1  0.50141046  0.66716540  0.74992743  1
  Na  Na24  1  0.25234605  -0.00018104  0.12451479  1
  Na  Na25  1  0.24953473  -0.00010824  0.37370732  1
  Na  Na26  1  0.25036361  0.00030395  0.62563625  1
  Na  Na27  1  0.25412101  0.00107392  0.87571779  1
  Na  Na28  1  0.25004594  0.33333651  0.12463369  1
  Na  Na29  1  0.24980286  0.33308571  0.37368186  1
  Na  Na30  1  0.25012104  0.33360936  0.62532824  1
  Na  Na31  1  0.24984964  0.33360416  0.87590865  1
  Na  Na32  1  0.25204577  0.66785426  0.12559444  1
  Na  Na33  1  0.24918058  0.66626991  0.37412839  1
  Na  Na34  1  0.24947051  0.66674796  0.62497109  1
  Na  Na35  1  0.25010955  0.66710559  0.87593137  1
  Na  Na36  1  0.74918679  0.00006806  0.12524868  1
  Na  Na37  1  0.74727088  -0.00075418  0.37478617  1
  Na  Na38  1  0.74908200  -0.00090142  0.62450006  1
  Na  Na39  1  0.75044257  -0.00013998  0.87557115  1
  Na  Na40  1  0.75148310  0.33352832  0.12437683  1
  Na  Na41  1  0.75100749  0.33355177  0.37504917  1
  Na  Na42  1  0.75263770  0.33407322  0.62598872  1
  Na  Na43  1  0.75130411  0.33300594  0.87424387  1
  Na  Na44  1  0.74898777  0.66657153  0.12463122  1
  Na  Na45  1  0.75062630  0.66652437  0.37378313  1
  Na  Na46  1  0.75110271  0.66723778  0.62644740  1
  Na  Na47  1  0.74824919  0.66654046  0.87554137  1
  Na  Na48  1  -0.00324236  0.16780922  0.00026933  1
  Na  Na49  1  -0.00064087  0.16688607  0.24998456  1
  Na  Na50  1  0.00176382  0.16672919  0.50028045  1
  Na  Na51  1  -0.00044084  0.16704999  0.75005262  1
  Na  Na52  1  -0.00144920  0.49981207  -0.00081590  1
  Na  Na53  1  -0.00093869  0.50052381  0.25034872  1
  Na  Na54  1  -0.00012354  0.50062451  0.49993691  1
  Na  Na55  1  -0.00047417  0.50036780  0.75036969  1
  Na  Na56  1  0.00164838  0.83244975  0.00042663  1
  Na  Na57  1  0.00321221  0.83242674  0.25049373  1
  Na  Na58  1  0.00122764  0.83309499  0.50029289  1
  Na  Na59  1  -0.00143206  0.83359944  0.74932249  1
  Na  Na60  1  0.49938266  0.16670096  -0.00122492  1
  Na  Na61  1  0.49826343  0.16659850  0.24929523  1
  Na  Na62  1  0.49820373  0.16628678  0.50001314  1
  Na  Na63  1  0.49853391  0.16700532  0.75034859  1
  Na  Na64  1  0.50017862  0.50014553  -0.00088147  1
  Na  Na65  1  0.49777951  0.50103482  0.25111410  1
  Na  Na66  1  0.49975313  0.50011266  0.50142405  1
  Na  Na67  1  0.50091631  0.49974931  0.74871304  1
  Na  Na68  1  0.50073623  0.83283614  -0.00026291  1
  Na  Na69  1  0.50039304  0.83312398  0.24960856  1
  Na  Na70  1  0.49922407  0.83327582  0.50030458  1
  Na  Na71  1  0.49901716  0.83352342  0.75058839  1
  Na  Na72  1  0.25360871  0.16506688  0.12569839  1
  Na  Na73  1  0.24931512  0.16730688  0.37393196  1
  Na  Na74  1  0.25127647  0.16624169  0.62531558  1
  Na  Na75  1  0.25139134  0.16706185  0.87507271  1
  Na  Na76  1  0.25057302  0.50022610  0.12461240  1
  Na  Na77  1  0.25107954  0.49999049  0.37377915  1
  Na  Na78  1  0.24952684  0.50047974  0.62478745  1
  Na  Na79  1  0.24960545  0.50014124  0.87653810  1
  Na  Na80  1  0.25085077  0.83275307  0.12419392  1
  Na  Na81  1  0.24751741  0.83411705  0.37402686  1
  Na  Na82  1  0.24871505  0.83326686  0.62555347  1
  Na  Na83  1  0.25196597  0.83230695  0.87621175  1
  Na  Na84  1  0.75065594  0.16667663  0.12558943  1
  Na  Na85  1  0.74861499  0.16729285  0.37419792  1
  Na  Na86  1  0.75172104  0.16583475  0.62538646  1
  Na  Na87  1  0.75121274  0.16673606  0.87413723  1
  Na  Na88  1  0.75272959  0.49894028  0.12496317  1
  Na  Na89  1  0.75031033  0.50071937  0.37455274  1
  Na  Na90  1  0.75041179  0.50010424  0.62554476  1
  Na  Na91  1  0.75077736  0.49982726  0.87466214  1
  Na  Na92  1  0.74624600  0.83458861  0.12381368  1
  Na  Na93  1  0.74915581  0.83307712  0.37496126  1
  Na  Na94  1  0.75160772  0.83222988  0.62573588  1
  Na  Na95  1  0.74863620  0.83350114  0.87648618  1
  Mn  Mn96  1  0.35797840  0.41686063  0.25177072  1
  Mn  Mn97  1  0.85842736  0.08236629  0.75252632  1
  Mn  Mn98  1  0.64203722  0.58267462  0.99791623  1
  Mn  Mn99  1  0.85714544  0.75019949  0.00275940  1
  Mn  Mn100  1  0.10752662  0.74989521  0.62341899  1
  Mn  Mn101  1  0.89210623  0.58386292  0.87724400  1
  Mn  Mn102  1  0.14341205  0.91718497  0.99751647  1
  Mn  Mn103  1  0.39232489  0.25028279  0.87729383  1
  Mn  Mn104  1  0.60735032  0.41610961  0.37319038  1
  Mn  Mn105  1  0.64292758  0.24960082  0.74687393  1
  Mn  Mn106  1  0.64199186  0.25030903  0.24739867  1
  Mn  Mn107  1  0.60745268  0.41596630  0.62290213  1
  Mn  Mn108  1  0.39265319  0.58355537  0.87639245  1
  Mn  Mn109  1  0.10781682  0.08401470  0.12193051  1
  Mn  Mn110  1  0.60817323  0.75000967  0.62295498  1
  Mn  Mn111  1  0.85750207  0.08269681  0.25295042  1
  Mn  Mn112  1  0.85826134  0.41717693  0.50277200  1
  Mn  Mn113  1  0.39163549  0.58323503  0.62765568  1
  Mn  Mn114  1  0.39152566  0.25044603  0.37770344  1
  Mn  Mn115  1  0.10847380  0.41674867  0.37268189  1
  Mn  Mn116  1  0.85816295  0.08267773  0.50140312  1
  Mn  Mn117  1  0.14211773  0.24939437  0.99850039  1
  Mn  Mn118  1  0.64185908  0.91591560  0.49762094  1
  Mn  Mn119  1  0.10901859  0.08350323  0.62303997  1
  Mn  Mn120  1  0.89216888  0.91694034  0.62715799  1
  Mn  Mn121  1  0.14263062  0.58375576  0.24687767  1
  Mn  Mn122  1  0.89279172  0.24901479  0.37764845  1
  Mn  Mn123  1  0.10787875  0.41686814  0.62332446  1
  Mn  Mn124  1  0.10764746  0.08291426  0.87375777  1
  Mn  Mn125  1  0.60765557  0.08314861  0.87260333  1
  Mn  Mn126  1  0.64179295  0.25056717  0.49853168  1
  Mn  Mn127  1  0.39180856  0.91631460  0.37731269  1
  Mn  Mn128  1  0.64184617  0.58326758  0.24760439  1
  Mn  Mn129  1  0.60775418  0.75022804  0.37288087  1
  Mn  Mn130  1  0.14226826  0.58345935  0.99855252  1
  Mn  Mn131  1  0.10695991  0.41661748  0.87254067  1
  Mn  Mn132  1  0.85767726  0.75043211  0.25139849  1
  Mn  Mn133  1  0.14242385  0.24962304  0.24641776  1
  Mn  Mn134  1  0.39096997  0.91663447  0.62738586  1
  Mn  Mn135  1  0.35660677  0.75026859  0.50224918  1
  Mn  Mn136  1  0.14284307  0.91693664  0.74928286  1
  Mn  Mn137  1  0.35855736  0.41680601  0.00273973  1
  Mn  Mn138  1  0.60689478  0.08351300  0.12214197  1
  Mn  Mn139  1  0.89300145  0.91668302  0.37639513  1
  Mn  Mn140  1  0.89253971  0.58425639  0.37776738  1
  Mn  Mn141  1  0.89212483  0.91575010  0.12783728  1
  Mn  Mn142  1  0.60817104  0.41707319  0.12274705  1
  Mn  Mn143  1  0.60688233  0.08386402  0.62299122  1
  Fe  Fe144  1  0.14264490  0.58306188  0.74878276  1
  Fe  Fe145  1  0.14247861  0.58328796  0.49827320  1
  Fe  Fe146  1  0.10777796  0.75036365  0.37331915  1
  Fe  Fe147  1  0.10803707  0.74906774  0.12323652  1
  Fe  Fe148  1  0.60652163  0.08349365  0.37370787  1
  Fe  Fe149  1  0.35668937  0.41723867  0.75189444  1
  Fe  Fe150  1  0.89248635  0.58302443  0.62701779  1
  Fe  Fe151  1  0.64190601  0.91773459  0.99785613  1
  Fe  Fe152  1  0.60594228  0.74972207  0.12370850  1
  Fe  Fe153  1  0.64335336  0.58329484  0.49870543  1
  Fe  Fe154  1  0.10887193  0.08288709  0.37294849  1
  Fe  Fe155  1  0.89212891  0.25051197  0.12678592  1
  Fe  Fe156  1  0.64348795  0.58366181  0.74831069  1
  Fe  Fe157  1  0.35712081  0.74949785  0.75213730  1
  Fe  Fe158  1  0.85740902  0.41740643  0.75166046  1
  Fe  Fe159  1  0.39322261  0.91596068  0.87666750  1
  Fe  Fe160  1  0.14371273  0.91668369  0.24770303  1
  Fe  Fe161  1  0.14324016  0.25003304  0.49881686  1
  Fe  Fe162  1  0.85717444  0.41619086  0.00191068  1
  Fe  Fe163  1  0.35808195  0.75008606  0.00233387  1
  Fe  Fe164  1  0.35654395  0.41659793  0.50169700  1
  Fe  Fe165  1  0.35724298  0.08359689  0.75197614  1
  Fe  Fe166  1  0.89198736  0.91664318  0.87699255  1
  Fe  Fe167  1  0.39076893  0.25026073  0.62691847  1
  Fe  Fe168  1  0.85799600  0.41676243  0.25164419  1
  Fe  Fe169  1  0.39277826  0.58325436  0.12661452  1
  Fe  Fe170  1  0.10607137  0.41703277  0.12346699  1
  Fe  Fe171  1  0.64150980  0.91666889  0.24805819  1
  Fe  Fe172  1  0.85687082  0.75026301  0.75265405  1
  Fe  Fe173  1  0.35661004  0.08357907  0.50097399  1
  Fe  Fe174  1  0.10753796  0.75036515  0.87323845  1
  Fe  Fe175  1  0.35840977  0.08333155  0.00213697  1
  Fe  Fe176  1  0.39337062  0.91612758  0.12716030  1
  Fe  Fe177  1  0.39238655  0.58344107  0.37769020  1
  Fe  Fe178  1  0.85681402  0.08335446  0.00162260  1
  Fe  Fe179  1  0.14240435  0.91699329  0.49799624  1
  Fe  Fe180  1  0.89286274  0.58354957  0.12634388  1
  Fe  Fe181  1  0.14266620  0.25053665  0.74872815  1
  Fe  Fe182  1  0.35724498  0.75059768  0.25187029  1
  Fe  Fe183  1  0.89336620  0.25019196  0.62627219  1
  Fe  Fe184  1  0.39324234  0.25047091  0.12589097  1
  Fe  Fe185  1  0.85799641  0.74997422  0.50135151  1
  Fe  Fe186  1  0.60678613  0.74973914  0.87299007  1
  Fe  Fe187  1  0.64343647  0.24986757  0.99833092  1
  Fe  Fe188  1  0.64263876  0.91635277  0.74870908  1
  Fe  Fe189  1  0.60845746  0.41713420  0.87272944  1
  Fe  Fe190  1  0.35725353  0.08263916  0.25208075  1
  Fe  Fe191  1  0.89242989  0.24888246  0.87703110  1
  P  P192  1  0.05143348  0.25105200  0.10980704  1
  P  P193  1  0.05573113  0.24907698  0.36097920  1
  P  P194  1  0.05455199  0.25049919  0.61085745  1
  P  P195  1  0.05245182  0.24952351  0.85979353  1
  P  P196  1  0.05198264  0.58310630  0.11003920  1
  P  P197  1  0.05517409  0.58417859  0.36115668  1
  P  P198  1  0.05391002  0.58313917  0.61093754  1
  P  P199  1  0.05402669  0.58430926  0.85947427  1
  P  P200  1  0.05524390  0.91575113  0.11102765  1
  P  P201  1  0.05625418  0.91669257  0.36028528  1
  P  P202  1  0.05449428  0.91653491  0.60977854  1
  P  P203  1  0.05191748  0.91618745  0.86050758  1
  P  P204  1  0.55276483  0.25001617  0.10880557  1
  P  P205  1  0.55275427  0.24908165  0.36011029  1
  P  P206  1  0.55077520  0.25002821  0.61011999  1
  P  P207  1  0.55530428  0.25061967  0.86061545  1
  P  P208  1  0.55165576  0.58403811  0.11011001  1
  P  P209  1  0.55325380  0.58323366  0.36151683  1
  P  P210  1  0.55525708  0.58337691  0.61060543  1
  P  P211  1  0.55456044  0.58325389  0.85908108  1
  P  P212  1  0.55356939  0.91608819  0.11040347  1
  P  P213  1  0.55338515  0.91751452  0.35938199  1
  P  P214  1  0.55365854  0.91652491  0.61123301  1
  P  P215  1  0.55395045  0.91607831  0.86056069  1
  P  P216  1  0.44449709  0.08326031  0.13892466  1
  P  P217  1  0.44555555  0.08287569  0.38959128  1
  P  P218  1  0.44359234  0.08417398  0.63948892  1
  P  P219  1  0.44476144  0.08251490  0.88913756  1
  P  P220  1  0.44736657  0.41644031  0.13981277  1
  P  P221  1  0.44548733  0.41767374  0.39124334  1
  P  P222  1  0.44392202  0.41602187  0.63971911  1
  P  P223  1  0.44704098  0.41725019  0.88838711  1
  P  P224  1  0.44574599  0.75010786  0.13927618  1
  P  P225  1  0.44532610  0.74960006  0.38926959  1
  P  P226  1  0.44561066  0.74973943  0.64096255  1
  P  P227  1  0.44585421  0.75025613  0.88917506  1
  P  P228  1  0.94494497  0.08377682  0.13908736  1
  P  P229  1  0.94920547  0.08252501  0.38995266  1
  P  P230  1  0.94738611  0.08396933  0.63983102  1
  P  P231  1  0.94586268  0.08268881  0.89099752  1
  P  P232  1  0.94550276  0.41685661  0.13912933  1
  P  P233  1  0.94610387  0.41673510  0.38928869  1
  P  P234  1  0.94614144  0.41703898  0.64058186  1
  P  P235  1  0.94411823  0.41592019  0.88913638  1
  P  P236  1  0.94831826  0.74923440  0.14009484  1
  P  P237  1  0.94783925  0.75061427  0.39063241  1
  P  P238  1  0.94436672  0.74902505  0.63961803  1
  P  P239  1  0.94633192  0.75098080  0.88906899  1
  P  P240  1  0.19696467  0.08229981  0.23527312  1
  P  P241  1  0.19750713  0.08368519  0.48453520  1
  P  P242  1  0.19798279  0.08409833  0.73613103  1
  P  P243  1  0.19893749  0.08339532  0.98514518  1
  P  P244  1  0.19604116  0.41697393  0.23345450  1
  P  P245  1  0.19770593  0.41662858  0.48510454  1
  P  P246  1  0.19735752  0.41697078  0.73569047  1
  P  P247  1  0.19525575  0.41656254  0.98644876  1
  P  P248  1  0.19639021  0.75080078  0.23525310  1
  P  P249  1  0.19552639  0.74985214  0.48458977  1
  P  P250  1  0.19647365  0.74943779  0.73687405  1
  P  P251  1  0.19639151  0.74989604  0.98585404  1
  P  P252  1  0.69467772  0.08278419  0.23592362  1
  P  P253  1  0.69578309  0.08371411  0.48433044  1
  P  P254  1  0.69676226  0.08191749  0.73499110  1
  P  P255  1  0.69740411  0.08393011  0.98513237  1
  P  P256  1  0.69816382  0.41677752  0.23476997  1
  P  P257  1  0.69698854  0.41752247  0.48525774  1
  P  P258  1  0.69682832  0.41729528  0.73607570  1
  P  P259  1  0.69754243  0.41578369  0.98439464  1
  P  P260  1  0.69537473  0.75054305  0.23394212  1
  P  P261  1  0.69817485  0.74849837  0.48522343  1
  P  P262  1  0.69616583  0.75047977  0.73699807  1
  P  P263  1  0.69366417  0.75055986  0.98593505  1
  P  P264  1  0.30428426  0.24958387  0.01581648  1
  P  P265  1  0.30495176  0.24941209  0.26328851  1
  P  P266  1  0.30244828  0.25006804  0.51510127  1
  P  P267  1  0.30320257  0.25084076  0.76419232  1
  P  P268  1  0.30450507  0.58438764  0.01559617  1
  P  P269  1  0.30577185  0.58442439  0.26412702  1
  P  P270  1  0.30282140  0.58294949  0.51379379  1
  P  P271  1  0.30190288  0.58320238  0.76529737  1
  P  P272  1  0.30636599  0.91611630  0.01433241  1
  P  P273  1  0.30414791  0.91619696  0.26326373  1
  P  P274  1  0.30129442  0.91728791  0.51458522  1
  P  P275  1  0.30420614  0.91619495  0.76601437  1
  P  P276  1  0.80410886  0.24975710  0.01400118  1
  P  P277  1  0.80489990  0.25082291  0.26398982  1
  P  P278  1  0.80399467  0.24956201  0.51584630  1
  P  P279  1  0.80597002  0.25049357  0.76411247  1
  P  P280  1  0.80387047  0.58277582  0.01536118  1
  P  P281  1  0.80505667  0.58307752  0.26347751  1
  P  P282  1  0.80324583  0.58439680  0.51583989  1
  P  P283  1  0.80373596  0.58379629  0.76403380  1
  P  P284  1  0.80290775  0.91731517  0.01418707  1
  P  P285  1  0.80137714  0.91619824  0.26500060  1
  P  P286  1  0.80337421  0.91575846  0.51458740  1
  P  P287  1  0.80274504  0.91563567  0.76604535  1
  O  O288  1  0.05562366  0.25005443  0.18651368  1
  O  O289  1  0.06014557  0.24988429  0.43779579  1
  O  O290  1  0.05948798  0.25034996  0.68757612  1
  O  O291  1  0.05646942  0.24982095  0.93648333  1
  O  O292  1  0.05557798  0.58328856  0.18675726  1
  O  O293  1  0.05925091  0.58318644  0.43796885  1
  O  O294  1  0.05899027  0.58310059  0.68761696  1
  O  O295  1  0.05711179  0.58357858  0.93624190  1
  O  O296  1  0.05985003  0.91657443  0.18778407  1
  O  O297  1  0.05970368  0.91697773  0.43715577  1
  O  O298  1  0.05780996  0.91656876  0.68656401  1
  O  O299  1  0.05624094  0.91665473  0.93718890  1
  O  O300  1  0.55626982  0.24981835  0.18557639  1
  O  O301  1  0.55570055  0.24980813  0.43686607  1
  O  O302  1  0.55555264  0.25017767  0.68680827  1
  O  O303  1  0.55992553  0.24992840  0.93734036  1
  O  O304  1  0.55521300  0.58343756  0.18681238  1
  O  O305  1  0.55859328  0.58337582  0.43814167  1
  O  O306  1  0.56023087  0.58355237  0.68733707  1
  O  O307  1  0.55689046  0.58291826  0.93596016  1
  O  O308  1  0.55798861  0.91698785  0.18709589  1
  O  O309  1  0.55623821  0.91654695  0.43625829  1
  O  O310  1  0.55813781  0.91626914  0.68797139  1
  O  O311  1  0.55850872  0.91725962  0.93733837  1
  O  O312  1  0.44137141  0.08313383  0.06200824  1
  O  O313  1  0.44084027  0.08271159  0.31284504  1
  O  O314  1  0.43938210  0.08330469  0.56266611  1
  O  O315  1  0.44058828  0.08354824  0.81232362  1
  O  O316  1  0.44519177  0.41643965  0.06296773  1
  O  O317  1  0.44278317  0.41680018  0.31444137  1
  O  O318  1  0.43937445  0.41682894  0.56296594  1
  O  O319  1  0.44134414  0.41727715  0.81178767  1
  O  O320  1  0.44210690  0.75017195  0.06248218  1
  O  O321  1  0.44132046  0.75056227  0.31250964  1
  O  O322  1  0.44201764  0.74958030  0.56415464  1
  O  O323  1  0.44091115  0.74943981  0.81250521  1
  O  O324  1  0.94017836  0.08301234  0.06235771  1
  O  O325  1  0.94463729  0.08239204  0.31324292  1
  O  O326  1  0.94443189  0.08326628  0.56311340  1
  O  O327  1  0.94369214  0.08252099  0.81411838  1
  O  O328  1  0.94123527  0.41656337  0.06233673  1
  O  O329  1  0.94189230  0.41688004  0.31251059  1
  O  O330  1  0.94400028  0.41722337  0.56371956  1
  O  O331  1  0.94031965  0.41709898  0.81236472  1
  O  O332  1  0.94397598  0.75012915  0.06341198  1
  O  O333  1  0.94363067  0.75047519  0.31394346  1
  O  O334  1  0.94081074  0.74973492  0.56283002  1
  O  O335  1  0.94121594  0.75045849  0.81238736  1
  O  O336  1  0.19451358  0.08320576  0.06181879  1
  O  O337  1  0.19243029  0.08322844  0.31194744  1
  O  O338  1  0.19453304  0.08354653  0.56132156  1
  O  O339  1  0.19430254  0.08356915  0.81278729  1
  O  O340  1  0.19013259  0.41669182  0.06312111  1
  O  O341  1  0.19313918  0.41698984  0.31027473  1
  O  O342  1  0.19421912  0.41686402  0.56180475  1
  O  O343  1  0.19378480  0.41681570  0.81240633  1
  O  O344  1  0.19136393  0.74949058  0.06256959  1
  O  O345  1  0.19166332  0.74988576  0.31189524  1
  O  O346  1  0.19303042  0.74958496  0.56142594  1
  O  O347  1  0.19184058  0.75024874  0.81359277  1
  O  O348  1  0.69360976  0.08390285  0.06183854  1
  O  O349  1  0.69028028  0.08354743  0.31262308  1
  O  O350  1  0.69273038  0.08371623  0.56116994  1
  O  O351  1  0.69358054  0.08299631  0.81172197  1
  O  O352  1  0.69385814  0.41652241  0.06113900  1
  O  O353  1  0.69376569  0.41687045  0.31144180  1
  O  O354  1  0.69373477  0.41641713  0.56204675  1
  O  O355  1  0.69229266  0.41658611  0.81276131  1
  O  O356  1  0.68914358  0.74967864  0.06265336  1
  O  O357  1  0.69280212  0.74955855  0.31078002  1
  O  O358  1  0.69467717  0.74933606  0.56194667  1
  O  O359  1  0.69139534  0.75034205  0.81366835  1
  O  O360  1  0.30941074  0.25028830  0.18663642  1
  O  O361  1  0.30557670  0.25018239  0.43832528  1
  O  O362  1  0.30700717  0.25066885  0.68748281  1
  O  O363  1  0.30704984  0.25069900  0.93894170  1
  O  O364  1  0.31004788  0.58356293  0.18732684  1
  O  O365  1  0.30745124  0.58346277  0.43711802  1
  O  O366  1  0.30516057  0.58345114  0.68857253  1
  O  O367  1  0.30741720  0.58359408  0.93883824  1
  O  O368  1  0.30880668  0.91586847  0.18660773  1
  O  O369  1  0.30494962  0.91656232  0.43788004  1
  O  O370  1  0.30578974  0.91589514  0.68916152  1
  O  O371  1  0.31010375  0.91583958  0.93754628  1
  O  O372  1  0.80892999  0.25024258  0.18717096  1
  O  O373  1  0.80694720  0.24947838  0.43898808  1
  O  O374  1  0.81027304  0.24968303  0.68736914  1
  O  O375  1  0.80826894  0.24945290  0.93725756  1
  O  O376  1  0.80940779  0.58389395  0.18673796  1
  O  O377  1  0.80664651  0.58373714  0.43903490  1
  O  O378  1  0.80810279  0.58354678  0.68738810  1
  O  O379  1  0.80668637  0.58412466  0.93857691  1
  O  O380  1  0.80557873  0.91627966  0.18827195  1
  O  O381  1  0.80662721  0.91655575  0.43785021  1
  O  O382  1  0.80651561  0.91624875  0.68932591  1
  O  O383  1  0.80807726  0.91629212  0.93757313  1
  O  O384  1  0.23463851  0.24926756  0.04109401  1
  O  O385  1  0.23488078  0.25007977  0.28729139  1
  O  O386  1  0.23242634  0.24983436  0.54005591  1
  O  O387  1  0.23310896  0.25066204  0.78896404  1
  O  O388  1  0.23479245  0.58408805  0.04075155  1
  O  O389  1  0.23553102  0.58351404  0.28764622  1
  O  O390  1  0.23253122  0.58370519  0.53782787  1
  O  O391  1  0.23211323  0.58323904  0.79067001  1
  O  O392  1  0.23631744  0.91616119  0.03863326  1
  O  O393  1  0.23389986  0.91652606  0.28717701  1
  O  O394  1  0.23134363  0.91692935  0.53951741  1
  O  O395  1  0.23479143  0.91661249  0.79229301  1
  O  O396  1  0.73381131  0.25014934  0.03828961  1
  O  O397  1  0.73489571  0.25050792  0.28819858  1
  O  O398  1  0.73435195  0.25005269  0.54120637  1
  O  O399  1  0.73576756  0.24964624  0.78784780  1
  O  O400  1  0.73403757  0.58279989  0.04032507  1
  O  O401  1  0.73501469  0.58357638  0.28765089  1
  O  O402  1  0.73335369  0.58346429  0.54082094  1
  O  O403  1  0.73351861  0.58366890  0.78832556  1
  O  O404  1  0.73232416  0.91723481  0.03735177  1
  O  O405  1  0.73128226  0.91599602  0.28915522  1
  O  O406  1  0.73369456  0.91567567  0.53986060  1
  O  O407  1  0.73268544  0.91622574  0.79055940  1
  O  O408  1  0.26731963  0.08223411  0.21163469  1
  O  O409  1  0.26750089  0.08387425  0.45936886  1
  O  O410  1  0.26802819  0.08337998  0.71147317  1
  O  O411  1  0.26915773  0.08369254  0.96131860  1
  O  O412  1  0.26590667  0.41696257  0.20890520  1
  O  O413  1  0.26759726  0.41635505  0.45985764  1
  O  O414  1  0.26722193  0.41708962  0.71060762  1
  O  O415  1  0.26552209  0.41681188  0.96297903  1
  O  O416  1  0.26684046  0.75032161  0.21177077  1
  O  O417  1  0.26512433  0.75000293  0.45898687  1
  O  O418  1  0.26671749  0.74995762  0.71276525  1
  O  O419  1  0.26702348  0.74993290  0.96302311  1
  O  O420  1  0.76472851  0.08313677  0.21178776  1
  O  O421  1  0.76549614  0.08328570  0.45908945  1
  O  O422  1  0.76652022  0.08211911  0.71003675  1
  O  O423  1  0.76743078  0.08354350  0.96046281  1
  O  O424  1  0.76824627  0.41657786  0.21054010  1
  O  O425  1  0.76667069  0.41738355  0.46014137  1
  O  O426  1  0.76719830  0.41715199  0.71236862  1
  O  O427  1  0.76771959  0.41635545  0.96015373  1
  O  O428  1  0.76501427  0.75052319  0.20847857  1
  O  O429  1  0.76802795  0.74947674  0.46001871  1
  O  O430  1  0.76648237  0.75034795  0.71319113  1
  O  O431  1  0.76395061  0.74986657  0.96238754  1
  O  O432  1  0.01515613  0.08363412  0.16277648  1
  O  O433  1  0.01931163  0.08271338  0.41406830  1
  O  O434  1  0.01702084  0.08356655  0.66528786  1
  O  O435  1  0.01535344  0.08310114  0.91696672  1
  O  O436  1  0.01575995  0.41687215  0.16350645  1
  O  O437  1  0.01607207  0.41678436  0.41357557  1
  O  O438  1  0.01565805  0.41669371  0.66638848  1
  O  O439  1  0.01421919  0.41675251  0.91319645  1
  O  O440  1  0.01844343  0.74955013  0.16443719  1
  O  O441  1  0.01802310  0.75032720  0.41468597  1
  O  O442  1  0.01447253  0.74994466  0.66382664  1
  O  O443  1  0.01676018  0.75009523  0.91259978  1
  O  O444  1  0.51446503  0.08331082  0.16340545  1
  O  O445  1  0.51580729  0.08309435  0.41339054  1
  O  O446  1  0.51362616  0.08350375  0.66377626  1
  O  O447  1  0.51484019  0.08278022  0.91320026  1
  O  O448  1  0.51670215  0.41682376  0.16615578  1
  O  O449  1  0.51510452  0.41669048  0.41659858  1
  O  O450  1  0.51415744  0.41662920  0.66334767  1
  O  O451  1  0.51755647  0.41739674  0.91145166  1
  O  O452  1  0.51597811  0.75023866  0.16371030  1
  O  O453  1  0.51522938  0.74982610  0.41390020  1
  O  O454  1  0.51548895  0.74987014  0.66538605  1
  O  O455  1  0.51635488  0.74962797  0.91244411  1
  O  O456  1  0.48275787  0.25013668  0.08415248  1
  O  O457  1  0.48304269  0.24957013  0.33499164  1
  O  O458  1  0.48060629  0.24997900  0.58617802  1
  O  O459  1  0.48506145  0.25021957  0.83690918  1
  O  O460  1  0.48174144  0.58368948  0.08508119  1
  O  O461  1  0.48285012  0.58342136  0.33809275  1
  O  O462  1  0.48485144  0.58335672  0.58757196  1
  O  O463  1  0.48491546  0.58333402  0.83362384  1
  O  O464  1  0.48312311  0.91625694  0.08688863  1
  O  O465  1  0.48371582  0.91680079  0.33421069  1
  O  O466  1  0.48359756  0.91662625  0.58704887  1
  O  O467  1  0.48348415  0.91636082  0.83710913  1
  O  O468  1  0.98129276  0.25081879  0.08561559  1
  O  O469  1  0.98568993  0.24953649  0.33689120  1
  O  O470  1  0.98414338  0.25052848  0.58732658  1
  O  O471  1  0.98215234  0.24929654  0.83599019  1
  O  O472  1  0.98210433  0.58327362  0.08483624  1
  O  O473  1  0.98516964  0.58406205  0.33701881  1
  O  O474  1  0.98347003  0.58334793  0.58757048  1
  O  O475  1  0.98414489  0.58393001  0.83485582  1
  O  O476  1  0.98505634  0.91574790  0.08729880  1
  O  O477  1  0.98637032  0.91651041  0.33537885  1
  O  O478  1  0.98468684  0.91649220  0.58505586  1
  O  O479  1  0.98190238  0.91669118  0.83591545  1
  O  O480  1  0.08498831  0.31622218  0.07730632  1
  O  O481  1  0.08929174  0.31402506  0.32763495  1
  O  O482  1  0.08782020  0.31553247  0.57741864  1
  O  O483  1  0.08600946  0.31456648  0.82655876  1
  O  O484  1  0.08618091  0.64813593  0.07753792  1
  O  O485  1  0.08864471  0.64953639  0.32850701  1
  O  O486  1  0.08748281  0.64807554  0.57767154  1
  O  O487  1  0.08797171  0.64943733  0.82709519  1
  O  O488  1  0.08847959  0.98085027  0.07743800  1
  O  O489  1  0.09024641  0.98165028  0.32732315  1
  O  O490  1  0.08878530  0.98146829  0.57720271  1
  O  O491  1  0.08593023  0.98128518  0.82784504  1
  O  O492  1  0.58713369  0.31495161  0.07641969  1
  O  O493  1  0.58696513  0.31412338  0.32748840  1
  O  O494  1  0.58447918  0.31504222  0.57711454  1
  O  O495  1  0.58846676  0.31584173  0.82756245  1
  O  O496  1  0.58536826  0.64912340  0.07756659  1
  O  O497  1  0.58651911  0.64817851  0.32784592  1
  O  O498  1  0.58856220  0.64835672  0.57708322  1
  O  O499  1  0.58879718  0.64858116  0.82718809  1
  O  O500  1  0.58686476  0.98102281  0.07648901  1
  O  O501  1  0.58719683  0.98286841  0.32727218  1
  O  O502  1  0.58718577  0.98154565  0.57823516  1
  O  O503  1  0.58745813  0.98074863  0.82674057  1
  O  O504  1  0.41087329  0.01804073  0.17185614  1
  O  O505  1  0.41212063  0.01793115  0.42307346  1
  O  O506  1  0.40960239  0.01934951  0.67274881  1
  O  O507  1  0.41134210  0.01727547  0.92180491  1
  O  O508  1  0.41320983  0.35112310  0.17177973  1
  O  O509  1  0.41052706  0.35294854  0.42363364  1
  O  O510  1  0.41066005  0.35081828  0.67274324  1
  O  O511  1  0.41399217  0.35219199  0.92205832  1
  O  O512  1  0.41216510  0.68513953  0.17231919  1
  O  O513  1  0.41165608  0.68441784  0.42193328  1
  O  O514  1  0.41158385  0.68472282  0.67376869  1
  O  O515  1  0.41228032  0.68550912  0.92286142  1
  O  O516  1  0.91173869  0.01864754  0.17263917  1
  O  O517  1  0.91551989  0.01745157  0.42276852  1
  O  O518  1  0.91310149  0.01894919  0.67243426  1
  O  O519  1  0.91142133  0.01764843  0.92319644  1
  O  O520  1  0.91191812  0.35187462  0.17242184  1
  O  O521  1  0.91259566  0.35166868  0.42224289  1
  O  O522  1  0.91145817  0.35206178  0.67243658  1
  O  O523  1  0.91103017  0.35038939  0.92176871  1
  O  O524  1  0.91470800  0.68402719  0.17255836  1
  O  O525  1  0.91384723  0.68576453  0.42375750  1
  O  O526  1  0.91118702  0.68365317  0.67251682  1
  O  O527  1  0.91270158  0.68607392  0.92247625  1
  O  O528  1  0.16363025  0.01723555  0.20224433  1
  O  O529  1  0.16356793  0.01862287  0.45188014  1
  O  O530  1  0.16403298  0.01911115  0.70332135  1
  O  O531  1  0.16565744  0.01824838  0.95200143  1
  O  O532  1  0.16166906  0.35211878  0.20096203  1
  O  O533  1  0.16380401  0.35141245  0.45275863  1
  O  O534  1  0.16348748  0.35187234  0.70301455  1
  O  O535  1  0.16214626  0.35139882  0.95305558  1
  O  O536  1  0.16293913  0.68589495  0.20142149  1
  O  O537  1  0.16127582  0.68484161  0.45213705  1
  O  O538  1  0.16328690  0.68420547  0.70375815  1
  O  O539  1  0.16294187  0.68506418  0.95237513  1
  O  O540  1  0.66131475  0.01744247  0.20304750  1
  O  O541  1  0.66107553  0.01881682  0.45211497  1
  O  O542  1  0.66272523  0.01655777  0.70320233  1
  O  O543  1  0.66321533  0.01894621  0.95252561  1
  O  O544  1  0.66435733  0.35181934  0.20180743  1
  O  O545  1  0.66288627  0.35249904  0.45256450  1
  O  O546  1  0.66359511  0.35229775  0.70236375  1
  O  O547  1  0.66387617  0.35067113  0.95172880  1
  O  O548  1  0.66092704  0.68556957  0.20139190  1
  O  O549  1  0.66467069  0.68310768  0.45279415  1
  O  O550  1  0.66293906  0.68544196  0.70352589  1
  O  O551  1  0.65996826  0.68571144  0.95239268  1
  O  O552  1  0.33851409  0.31462921  0.04836935  1
  O  O553  1  0.33853967  0.31430026  0.29676017  1
  O  O554  1  0.33630967  0.31510080  0.54786390  1
  O  O555  1  0.33672429  0.31602210  0.79722836  1
  O  O556  1  0.33860836  0.64959521  0.04771667  1
  O  O557  1  0.33874325  0.64982919  0.29709147  1
  O  O558  1  0.33652903  0.64772075  0.54734203  1
  O  O559  1  0.33607727  0.64822048  0.79781613  1
  O  O560  1  0.34006759  0.98120780  0.04716750  1
  O  O561  1  0.33755399  0.98127399  0.29648515  1
  O  O562  1  0.33510853  0.98246835  0.54686789  1
  O  O563  1  0.33912598  0.98120417  0.79758679  1
  O  O564  1  0.83772461  0.31503829  0.04686012  1
  O  O565  1  0.83855202  0.31598486  0.29661884  1
  O  O566  1  0.83872721  0.31445895  0.54803259  1
  O  O567  1  0.83895765  0.31584262  0.79708297  1
  O  O568  1  0.83812143  0.64758122  0.04833068  1
  O  O569  1  0.83862763  0.64812790  0.29680360  1
  O  O570  1  0.83706056  0.64965973  0.54809719  1
  O  O571  1  0.83690420  0.64898424  0.79740886  1
  O  O572  1  0.83606147  0.98241950  0.04732239  1
  O  O573  1  0.83511997  0.98117234  0.29803369  1
  O  O574  1  0.83725629  0.98090349  0.54738621  1
  O  O575  1  0.83709962  0.98050099  0.79881883  1
  O  O576  1  0.41071237  0.14835140  0.17158286  1
  O  O577  1  0.41177726  0.14778919  0.42275802  1
  O  O578  1  0.41024622  0.14950593  0.67233079  1
  O  O579  1  0.41102900  0.14742951  0.92249556  1
  O  O580  1  0.41263833  0.48141331  0.17171497  1
  O  O581  1  0.41157352  0.48298620  0.42340831  1
  O  O582  1  0.41024209  0.48097160  0.67320172  1
  O  O583  1  0.41375481  0.48215323  0.92194984  1
  O  O584  1  0.41219467  0.81522306  0.17249625  1
  O  O585  1  0.41170138  0.81461516  0.42251485  1
  O  O586  1  0.41136902  0.81468270  0.67342112  1
  O  O587  1  0.41301465  0.81547542  0.92261384  1
  O  O588  1  0.91168491  0.14911924  0.17181963  1
  O  O589  1  0.91535423  0.14748405  0.42278796  1
  O  O590  1  0.91339421  0.14911518  0.67201519  1
  O  O591  1  0.91109525  0.14782819  0.92273172  1
  O  O592  1  0.91211704  0.48210778  0.17208483  1
  O  O593  1  0.91255157  0.48184007  0.42228156  1
  O  O594  1  0.91180685  0.48223493  0.67278996  1
  O  O595  1  0.91002754  0.48051057  0.92261682  1
  O  O596  1  0.91454384  0.81415806  0.17339425  1
  O  O597  1  0.91415789  0.81568806  0.42344229  1
  O  O598  1  0.91020551  0.81374558  0.67287364  1
  O  O599  1  0.91340904  0.81612019  0.92262308  1
  O  O600  1  0.08518479  0.18601578  0.07666670  1
  O  O601  1  0.08897805  0.18370640  0.32806158  1
  O  O602  1  0.08813492  0.18561903  0.57747815  1
  O  O603  1  0.08641181  0.18453754  0.82707674  1
  O  O604  1  0.08566871  0.51791544  0.07740864  1
  O  O605  1  0.08875600  0.51938447  0.32764945  1
  O  O606  1  0.08720547  0.51813979  0.57738707  1
  O  O607  1  0.08819991  0.51934520  0.82667890  1
  O  O608  1  0.08874678  0.85056307  0.07830926  1
  O  O609  1  0.09021328  0.85143243  0.32778667  1
  O  O610  1  0.08856796  0.85152170  0.57727886  1
  O  O611  1  0.08562784  0.85110567  0.82768247  1
  O  O612  1  0.58663659  0.18497006  0.07595339  1
  O  O613  1  0.58649723  0.18384108  0.32773321  1
  O  O614  1  0.58446466  0.18503179  0.57730144  1
  O  O615  1  0.58850010  0.18545604  0.82723115  1
  O  O616  1  0.58581530  0.51910571  0.07728697  1
  O  O617  1  0.58627908  0.51810458  0.32786891  1
  O  O618  1  0.58859063  0.51834524  0.57731074  1
  O  O619  1  0.58909825  0.51845188  0.82666969  1
  O  O620  1  0.58691874  0.85101555  0.07744075  1
  O  O621  1  0.58806443  0.85274177  0.32680759  1
  O  O622  1  0.58703300  0.85141147  0.57794549  1
  O  O623  1  0.58709595  0.85071063  0.82770928  1
  O  O624  1  0.33898617  0.18463538  0.04753944  1
  O  O625  1  0.33789167  0.18392154  0.29622758  1
  O  O626  1  0.33655112  0.18501077  0.54751319  1
  O  O627  1  0.33711594  0.18585808  0.79703647  1
  O  O628  1  0.33894057  0.51951217  0.04822316  1
  O  O629  1  0.33968531  0.51968929  0.29757455  1
  O  O630  1  0.33581690  0.51771282  0.54699964  1
  O  O631  1  0.33595571  0.51805849  0.79772616  1
  O  O632  1  0.33993441  0.85097932  0.04745086  1
  O  O633  1  0.33714912  0.85109775  0.29689691  1
  O  O634  1  0.33525940  0.85240310  0.54759154  1
  O  O635  1  0.33860657  0.85106747  0.79815466  1
  O  O636  1  0.83744306  0.18477942  0.04743298  1
  O  O637  1  0.83848492  0.18574637  0.29723873  1
  O  O638  1  0.83829766  0.18445544  0.54800437  1
  O  O639  1  0.83984549  0.18568323  0.79763824  1
  O  O640  1  0.83802061  0.51743001  0.04699884  1
  O  O641  1  0.83845982  0.51784169  0.29633257  1
  O  O642  1  0.83790815  0.51971026  0.54867310  1
  O  O643  1  0.83729341  0.51879499  0.79712682  1
  O  O644  1  0.83587221  0.85221741  0.04806898  1
  O  O645  1  0.83538559  0.85118703  0.29755562  1
  O  O646  1  0.83752609  0.85065578  0.54676630  1
  O  O647  1  0.83649532  0.85057820  0.79896939  1
  O  O648  1  0.16380558  0.14734417  0.20155843  1
  O  O649  1  0.16343640  0.14876960  0.45213217  1
  O  O650  1  0.16456378  0.14931071  0.70333927  1
  O  O651  1  0.16499729  0.14830238  0.95246287  1
  O  O652  1  0.16186492  0.48200914  0.20104612  1
  O  O653  1  0.16392792  0.48176577  0.45240140  1
  O  O654  1  0.16341503  0.48207754  0.70307527  1
  O  O655  1  0.16189347  0.48159373  0.95314165  1
  O  O656  1  0.16325106  0.81589731  0.20202717  1
  O  O657  1  0.16128829  0.81502958  0.45246917  1
  O  O658  1  0.16275329  0.81432634  0.70359703  1
  O  O659  1  0.16327007  0.81496121  0.95228916  1
  O  O660  1  0.66113874  0.14770275  0.20237485  1
  O  O661  1  0.66165302  0.14885060  0.45196762  1
  O  O662  1  0.66270331  0.14688463  0.70207866  1
  O  O663  1  0.66393976  0.14908794  0.95227506  1
  O  O664  1  0.66460278  0.48191171  0.20172533  1
  O  O665  1  0.66310266  0.48292212  0.45324234  1
  O  O666  1  0.66350699  0.48239920  0.70313608  1
  O  O667  1  0.66337540  0.48075056  0.95154711  1
  O  O668  1  0.66075623  0.81563719  0.20219842  1
  O  O669  1  0.66339308  0.81314645  0.45258128  1
  O  O670  1  0.66302515  0.81569611  0.70364000  1
  O  O671  1  0.66046902  0.81586484  0.95298292  1
