# generated using pymatgen
data_Na2MnFe(PO4)2
_symmetry_space_group_name_H-M   'P 1'
_cell_length_a   21.09368183
_cell_length_b   18.94760943
_cell_length_c   20.05131414
_cell_angle_alpha   90.00044287
_cell_angle_beta   90.00189576
_cell_angle_gamma   89.99937631
_symmetry_Int_Tables_number   1
_chemical_formula_structural   Na2MnFe(PO4)2
_chemical_formula_sum   'Na96 Mn48 Fe48 P96 O384'
_cell_volume   8014.00586203
_cell_formula_units_Z   48
loop_
 _symmetry_equiv_pos_site_id
 _symmetry_equiv_pos_as_xyz
  1  'x, y, z'
loop_
 _atom_site_type_symbol
 _atom_site_label
 _atom_site_symmetry_multiplicity
 _atom_site_fract_x
 _atom_site_fract_y
 _atom_site_fract_z
 _atom_site_occupancy
  Na  Na0  1  0.00154481  0.00073608  -0.00134967  1
  Na  Na1  1  -0.00008611  -0.00067931  0.25125481  1
  Na  Na2  1  0.00087622  -0.00048698  0.50015763  1
  Na  Na3  1  0.00068464  -0.00018000  0.75002789  1
  Na  Na4  1  -0.00097786  0.33273164  0.00069655  1
  Na  Na5  1  -0.00037922  0.33325394  0.25115925  1
  Na  Na6  1  0.00123568  0.33392096  0.49951456  1
  Na  Na7  1  0.00321660  0.33521205  0.74860611  1
  Na  Na8  1  -0.00051133  0.66613267  0.00025458  1
  Na  Na9  1  0.00046290  0.66603610  0.24878119  1
  Na  Na10  1  -0.00100888  0.66558027  0.49952034  1
  Na  Na11  1  -0.00182053  0.66595736  0.75126191  1
  Na  Na12  1  0.50163452  0.00027484  -0.00070690  1
  Na  Na13  1  0.49861296  -0.00006597  0.25011431  1
  Na  Na14  1  0.49680253  -0.00072655  0.50126232  1
  Na  Na15  1  0.50041415  0.00023155  0.74886656  1
  Na  Na16  1  0.50237679  0.33438514  0.00053057  1
  Na  Na17  1  0.49895944  0.33311260  0.25108190  1
  Na  Na18  1  0.49918928  0.33293414  0.49964633  1
  Na  Na19  1  0.50311166  0.33456385  0.74870523  1
  Na  Na20  1  0.49854291  0.66557815  -0.00016717  1
  Na  Na21  1  0.49789374  0.66598374  0.25145776  1
  Na  Na22  1  0.49825823  0.66583482  0.50013082  1
  Na  Na23  1  0.49950228  0.66583349  0.74849874  1
  Na  Na24  1  0.24846759  -0.00026137  0.12500892  1
  Na  Na25  1  0.25214928  0.00076812  0.37517324  1
  Na  Na26  1  0.25046495  0.00018370  0.62560680  1
  Na  Na27  1  0.24659268  -0.00101755  0.87405933  1
  Na  Na28  1  0.25075016  0.33431256  0.12554937  1
  Na  Na29  1  0.25058191  0.33388659  0.37626045  1
  Na  Na30  1  0.24810533  0.33323394  0.62492581  1
  Na  Na31  1  0.24702179  0.33304464  0.87389467  1
  Na  Na32  1  0.25082840  0.66555008  0.12442243  1
  Na  Na33  1  0.25325107  0.66719310  0.37589918  1
  Na  Na34  1  0.25193519  0.66638833  0.62488247  1
  Na  Na35  1  0.25080928  0.66585550  0.87428893  1
  Na  Na36  1  0.75013379  0.00015764  0.12568504  1
  Na  Na37  1  0.74973313  0.00004215  0.37420626  1
  Na  Na38  1  0.75029683  0.00005137  0.62453102  1
  Na  Na39  1  0.74989391  -0.00015460  0.87596067  1
  Na  Na40  1  0.74991049  0.33367027  0.12489627  1
  Na  Na41  1  0.75022221  0.33387762  0.37524449  1
  Na  Na42  1  0.74766503  0.33314556  0.62499824  1
  Na  Na43  1  0.74767171  0.33288153  0.87547849  1
  Na  Na44  1  0.74963403  0.66605245  0.12492939  1
  Na  Na45  1  0.75054703  0.66597345  0.37484944  1
  Na  Na46  1  0.75100323  0.66581464  0.62442906  1
  Na  Na47  1  0.75247099  0.66718730  0.87546732  1
  Na  Na48  1  0.00017847  0.16683151  -0.00025438  1
  Na  Na49  1  -0.00019313  0.16808364  0.25095571  1
  Na  Na50  1  0.00060815  0.16767048  0.50041961  1
  Na  Na51  1  0.00113290  0.16648917  0.74940616  1
  Na  Na52  1  0.00177424  0.49942847  0.00119150  1
  Na  Na53  1  0.00002495  0.49978196  0.24973381  1
  Na  Na54  1  -0.00081201  0.49981782  0.49917620  1
  Na  Na55  1  -0.00074450  0.50050111  0.74969256  1
  Na  Na56  1  -0.00132212  0.83377389  -0.00127364  1
  Na  Na57  1  -0.00012136  0.83360375  0.25050289  1
  Na  Na58  1  0.00249234  0.83224648  0.49995457  1
  Na  Na59  1  0.00103021  0.83277497  0.75054208  1
  Na  Na60  1  0.50070496  0.16741075  0.00042854  1
  Na  Na61  1  0.50105371  0.16675574  0.25044241  1
  Na  Na62  1  0.49901823  0.16795531  0.50058114  1
  Na  Na63  1  0.50048249  0.16697036  0.74899769  1
  Na  Na64  1  0.50070607  0.49990367  -0.00000571  1
  Na  Na65  1  0.49698398  0.50094239  0.25162648  1
  Na  Na66  1  0.49846091  0.50012205  0.49996455  1
  Na  Na67  1  0.50205048  0.49938702  0.74828859  1
  Na  Na68  1  0.50116769  0.83229427  -0.00072153  1
  Na  Na69  1  0.49734415  0.83330086  0.25045886  1
  Na  Na70  1  0.49664299  0.83432315  0.50044555  1
  Na  Na71  1  0.50099231  0.83263383  0.74883803  1
  Na  Na72  1  0.24935896  0.16744576  0.12457034  1
  Na  Na73  1  0.25150647  0.16739191  0.37581203  1
  Na  Na74  1  0.25059100  0.16729880  0.62561523  1
  Na  Na75  1  0.24790318  0.16774034  0.87423252  1
  Na  Na76  1  0.24997565  0.50023559  0.12517359  1
  Na  Na77  1  0.25126070  0.49924250  0.37545738  1
  Na  Na78  1  0.25069430  0.49952682  0.62533227  1
  Na  Na79  1  0.24953226  0.50053955  0.87409069  1
  Na  Na80  1  0.25075590  0.83275083  0.12514998  1
  Na  Na81  1  0.25212678  0.83271521  0.37622230  1
  Na  Na82  1  0.24859099  0.83390456  0.62445309  1
  Na  Na83  1  0.24684223  0.83398853  0.87392046  1
  Na  Na84  1  0.74905492  0.16766456  0.12550538  1
  Na  Na85  1  0.74943465  0.16796452  0.37439578  1
  Na  Na86  1  0.74961128  0.16740930  0.62394232  1
  Na  Na87  1  0.75035164  0.16637249  0.87609457  1
  Na  Na88  1  0.75044040  0.49965896  0.12449862  1
  Na  Na89  1  0.75170598  0.49899088  0.37577956  1
  Na  Na90  1  0.74933439  0.50038830  0.62537157  1
  Na  Na91  1  0.74883612  0.50043913  0.87471717  1
  Na  Na92  1  0.75020560  0.83261318  0.12559224  1
  Na  Na93  1  0.74928378  0.83293531  0.37395193  1
  Na  Na94  1  0.75019652  0.83307804  0.62471097  1
  Na  Na95  1  0.75126642  0.83276182  0.87598249  1
  Mn  Mn96  1  0.64101246  0.91682237  0.24747078  1
  Mn  Mn97  1  0.14177000  0.58350660  0.74728642  1
  Mn  Mn98  1  0.60656453  0.08296941  0.37341168  1
  Mn  Mn99  1  0.35702368  0.08333614  0.00138597  1
  Mn  Mn100  1  0.60851804  0.08360229  0.87188124  1
  Mn  Mn101  1  0.14272344  0.58336830  0.49772159  1
  Mn  Mn102  1  0.89278518  0.58311398  0.12754342  1
  Mn  Mn103  1  0.35768814  0.75048377  0.00149766  1
  Mn  Mn104  1  0.14113668  0.25047577  0.99767010  1
  Mn  Mn105  1  0.10766143  0.08312225  0.12329090  1
  Mn  Mn106  1  0.35772294  0.41635345  0.75206426  1
  Mn  Mn107  1  0.64166391  0.58389712  0.99812603  1
  Mn  Mn108  1  0.64129270  0.91648124  0.49729283  1
  Mn  Mn109  1  0.89247259  0.25082119  0.87592371  1
  Mn  Mn110  1  0.10849078  0.75059932  0.12283797  1
  Mn  Mn111  1  0.64219689  0.25000835  0.99821509  1
  Mn  Mn112  1  0.64153465  0.58259637  0.24835096  1
  Mn  Mn113  1  0.85763240  0.74914054  0.25211356  1
  Mn  Mn114  1  0.10905391  0.74847266  0.37243571  1
  Mn  Mn115  1  0.85858568  0.08296902  0.00296326  1
  Mn  Mn116  1  0.89251159  0.25041289  0.62735961  1
  Mn  Mn117  1  0.85758951  0.08394716  0.25251627  1
  Mn  Mn118  1  0.35729791  0.75019330  0.75223302  1
  Mn  Mn119  1  0.85711960  0.41612935  0.75213558  1
  Mn  Mn120  1  0.14301929  0.91651200  0.24766334  1
  Mn  Mn121  1  0.60862957  0.74934261  0.87203343  1
  Mn  Mn122  1  0.89232879  0.91667661  0.87689837  1
  Mn  Mn123  1  0.10881145  0.08411233  0.37299333  1
  Mn  Mn124  1  0.39194261  0.91638247  0.87714245  1
  Mn  Mn125  1  0.60788439  0.74966506  0.62239659  1
  Mn  Mn126  1  0.10792366  0.08325476  0.62188800  1
  Mn  Mn127  1  0.60595005  0.75022363  0.37337664  1
  Mn  Mn128  1  0.35836794  0.08387037  0.25188733  1
  Mn  Mn129  1  0.85781433  0.41678092  0.00189002  1
  Mn  Mn130  1  0.60758568  0.08349658  0.62246343  1
  Mn  Mn131  1  0.64247607  0.91620005  0.99832330  1
  Mn  Mn132  1  0.35815134  0.41649656  0.00138881  1
  Mn  Mn133  1  0.39249427  0.25043384  0.12722529  1
  Mn  Mn134  1  0.85827440  0.74970473  0.50210325  1
  Mn  Mn135  1  0.10819924  0.41632622  0.12332775  1
  Mn  Mn136  1  0.35700200  0.08348126  0.75300265  1
  Mn  Mn137  1  0.39249623  0.25082558  0.87671810  1
  Mn  Mn138  1  0.60685074  0.41685869  0.37297096  1
  Mn  Mn139  1  0.85773190  0.08375559  0.50208565  1
  Mn  Mn140  1  0.39183867  0.91641933  0.12622362  1
  Mn  Mn141  1  0.10695322  0.74939456  0.87274961  1
  Mn  Mn142  1  0.89254128  0.91647525  0.37770344  1
  Mn  Mn143  1  0.89276372  0.91591362  0.62713307  1
  Fe  Fe144  1  0.60752662  0.08302159  0.12363890  1
  Fe  Fe145  1  0.60719037  0.41688171  0.62242595  1
  Fe  Fe146  1  0.85740000  0.41650143  0.25173192  1
  Fe  Fe147  1  0.39303435  0.25066778  0.62708459  1
  Fe  Fe148  1  0.14316829  0.25067218  0.24902684  1
  Fe  Fe149  1  0.60697787  0.41745928  0.12447604  1
  Fe  Fe150  1  0.35736028  0.41654826  0.25196536  1
  Fe  Fe151  1  0.39156317  0.58293948  0.37792054  1
  Fe  Fe152  1  0.10700130  0.41800042  0.62247995  1
  Fe  Fe153  1  0.14400319  0.58297009  0.24893940  1
  Fe  Fe154  1  0.35703169  0.75011767  0.50287322  1
  Fe  Fe155  1  0.14146774  0.91610490  0.99846604  1
  Fe  Fe156  1  0.39347113  0.58276700  0.87599485  1
  Fe  Fe157  1  0.39219834  0.58295383  0.12656628  1
  Fe  Fe158  1  0.89296136  0.91718496  0.12670990  1
  Fe  Fe159  1  0.14217366  0.24992457  0.74756986  1
  Fe  Fe160  1  0.10727771  0.41694100  0.37336257  1
  Fe  Fe161  1  0.39203161  0.91670396  0.62791882  1
  Fe  Fe162  1  0.85714995  0.08310523  0.75104914  1
  Fe  Fe163  1  0.89290745  0.25079143  0.37707706  1
  Fe  Fe164  1  0.60644181  0.74949903  0.12403532  1
  Fe  Fe165  1  0.10710646  0.08420726  0.87263432  1
  Fe  Fe166  1  0.64322115  0.58309223  0.49821000  1
  Fe  Fe167  1  0.14205265  0.91652374  0.74707328  1
  Fe  Fe168  1  0.60780831  0.41719121  0.87299103  1
  Fe  Fe169  1  0.85753282  0.75049145  0.75111769  1
  Fe  Fe170  1  0.35670471  0.41616173  0.50253334  1
  Fe  Fe171  1  0.64321432  0.91649659  0.74853151  1
  Fe  Fe172  1  0.89250072  0.58333295  0.62662076  1
  Fe  Fe173  1  0.35732048  0.08409446  0.50217203  1
  Fe  Fe174  1  0.35787056  0.74942727  0.25143642  1
  Fe  Fe175  1  0.85717640  0.41657534  0.50177581  1
  Fe  Fe176  1  0.14434601  0.91719586  0.49857630  1
  Fe  Fe177  1  0.89232466  0.24954159  0.12770563  1
  Fe  Fe178  1  0.64266449  0.25062614  0.24856989  1
  Fe  Fe179  1  0.64260087  0.25047133  0.49771432  1
  Fe  Fe180  1  0.64254238  0.24942537  0.74790541  1
  Fe  Fe181  1  0.14379071  0.24980852  0.49817402  1
  Fe  Fe182  1  0.64329214  0.58391619  0.74783532  1
  Fe  Fe183  1  0.39364211  0.58266426  0.62678163  1
  Fe  Fe184  1  0.39144001  0.91712593  0.37733254  1
  Fe  Fe185  1  0.10726865  0.41686722  0.87344705  1
  Fe  Fe186  1  0.39223607  0.24990291  0.37736469  1
  Fe  Fe187  1  0.10704611  0.74873679  0.62345192  1
  Fe  Fe188  1  0.85750180  0.75017522  0.00266422  1
  Fe  Fe189  1  0.89302613  0.58273577  0.37628772  1
  Fe  Fe190  1  0.89245722  0.58248983  0.87678105  1
  Fe  Fe191  1  0.14320224  0.58360276  0.99790187  1
  P  P192  1  0.05300197  0.25012460  0.11179369  1
  P  P193  1  0.05478209  0.25135455  0.36125129  1
  P  P194  1  0.05546081  0.25113273  0.60999341  1
  P  P195  1  0.05391755  0.25066388  0.85911055  1
  P  P196  1  0.05610055  0.58338743  0.11079852  1
  P  P197  1  0.05329982  0.58193079  0.35947254  1
  P  P198  1  0.05202659  0.58362260  0.60964830  1
  P  P199  1  0.05309038  0.58248437  0.86135197  1
  P  P200  1  0.05260302  0.91654891  0.10936879  1
  P  P201  1  0.05564321  0.91640045  0.36142098  1
  P  P202  1  0.05556750  0.91529331  0.61026195  1
  P  P203  1  0.05511668  0.91717602  0.86020798  1
  P  P204  1  0.55491688  0.25087185  0.11209664  1
  P  P205  1  0.55357162  0.25023954  0.36099107  1
  P  P206  1  0.55450406  0.25079075  0.61025725  1
  P  P207  1  0.55426381  0.25095867  0.85903732  1
  P  P208  1  0.55175607  0.58321708  0.11113319  1
  P  P209  1  0.55229824  0.58316791  0.36199994  1
  P  P210  1  0.55462883  0.58269088  0.61016021  1
  P  P211  1  0.55327297  0.58282890  0.85853212  1
  P  P212  1  0.55283015  0.91586840  0.11013719  1
  P  P213  1  0.55056488  0.91667456  0.36036474  1
  P  P214  1  0.55313256  0.91657934  0.61113411  1
  P  P215  1  0.55410394  0.91627547  0.85858174  1
  P  P216  1  0.44803987  0.08349721  0.13944074  1
  P  P217  1  0.44522586  0.08398342  0.39093690  1
  P  P218  1  0.44446814  0.08419949  0.63884727  1
  P  P219  1  0.44715473  0.08364804  0.88983045  1
  P  P220  1  0.44693842  0.41748147  0.14075099  1
  P  P221  1  0.44380377  0.41615440  0.38981746  1
  P  P222  1  0.44638449  0.41629880  0.63826288  1
  P  P223  1  0.44847183  0.41743866  0.88917688  1
  P  P224  1  0.44663125  0.74886199  0.14021206  1
  P  P225  1  0.44336559  0.74991154  0.38995835  1
  P  P226  1  0.44490424  0.74960293  0.63863500  1
  P  P227  1  0.44701401  0.74884073  0.88919515  1
  P  P228  1  0.94690002  0.08306072  0.14047384  1
  P  P229  1  0.94715881  0.08470557  0.39037636  1
  P  P230  1  0.94628507  0.08321973  0.64052416  1
  P  P231  1  0.94646244  0.08375954  0.88826771  1
  P  P232  1  0.94606839  0.41589427  0.14093540  1
  P  P233  1  0.94565573  0.41663700  0.38914162  1
  P  P234  1  0.94631278  0.41742990  0.63839427  1
  P  P235  1  0.94781684  0.41720110  0.88970104  1
  P  P236  1  0.94606655  0.75101506  0.13894557  1
  P  P237  1  0.94727324  0.74859634  0.38966358  1
  P  P238  1  0.94744373  0.74899955  0.64049097  1
  P  P239  1  0.94388839  0.74905073  0.88930201  1
  P  P240  1  0.19726138  0.08493592  0.23537031  1
  P  P241  1  0.19839452  0.08368757  0.48564443  1
  P  P242  1  0.19469132  0.08366582  0.73572346  1
  P  P243  1  0.19512592  0.08290930  0.98414098  1
  P  P244  1  0.19681152  0.41667899  0.23711388  1
  P  P245  1  0.19572579  0.41651009  0.48588569  1
  P  P246  1  0.19429523  0.41650482  0.73508931  1
  P  P247  1  0.19608460  0.41773008  0.98429682  1
  P  P248  1  0.19881269  0.74867126  0.23531105  1
  P  P249  1  0.19704906  0.75004853  0.48673487  1
  P  P250  1  0.19552832  0.74983631  0.73372525  1
  P  P251  1  0.19649661  0.74939197  0.98490302  1
  P  P252  1  0.69543881  0.08454935  0.23503054  1
  P  P253  1  0.69640476  0.08429978  0.48447809  1
  P  P254  1  0.69785653  0.08311278  0.73478207  1
  P  P255  1  0.69579974  0.08315593  0.98642486  1
  P  P256  1  0.69713996  0.41612278  0.23510940  1
  P  P257  1  0.69598603  0.41710480  0.48623488  1
  P  P258  1  0.69434877  0.41708945  0.73546672  1
  P  P259  1  0.69468381  0.41719747  0.98572996  1
  P  P260  1  0.69515771  0.74929301  0.23463089  1
  P  P261  1  0.69654900  0.74861374  0.48462075  1
  P  P262  1  0.69823072  0.74966875  0.73495855  1
  P  P263  1  0.69669377  0.74973269  0.98639205  1
  P  P264  1  0.30272715  0.25048132  0.01475147  1
  P  P265  1  0.30322090  0.25108848  0.26575394  1
  P  P266  1  0.30427031  0.25063833  0.51484931  1
  P  P267  1  0.30279658  0.25070034  0.76380255  1
  P  P268  1  0.30435917  0.58289813  0.01398232  1
  P  P269  1  0.30461055  0.58287172  0.26437682  1
  P  P270  1  0.30530975  0.58244102  0.51495438  1
  P  P271  1  0.30526628  0.58279301  0.76415744  1
  P  P272  1  0.30100434  0.91680871  0.01442522  1
  P  P273  1  0.30428814  0.91593880  0.26534346  1
  P  P274  1  0.30456042  0.91717417  0.51488663  1
  P  P275  1  0.30251258  0.91647245  0.76400197  1
  P  P276  1  0.80443827  0.25023851  0.01574267  1
  P  P277  1  0.80408080  0.25110828  0.26468610  1
  P  P278  1  0.80351041  0.25146805  0.51373316  1
  P  P279  1  0.80162711  0.24955261  0.76465644  1
  P  P280  1  0.80479944  0.58360238  0.01385318  1
  P  P281  1  0.80380801  0.58201573  0.26558806  1
  P  P282  1  0.80458215  0.58203366  0.51421229  1
  P  P283  1  0.80429288  0.58367765  0.76418202  1
  P  P284  1  0.80437274  0.91592936  0.01590476  1
  P  P285  1  0.80405399  0.91658814  0.26405951  1
  P  P286  1  0.80295686  0.91639628  0.51491151  1
  P  P287  1  0.80254312  0.91674884  0.76473482  1
  O  O288  1  0.05842979  0.25062110  0.18840890  1
  O  O289  1  0.06010226  0.25031911  0.43789293  1
  O  O290  1  0.05924272  0.25019334  0.68675714  1
  O  O291  1  0.05585616  0.25029826  0.93587733  1
  O  O292  1  0.06084990  0.58335206  0.18754253  1
  O  O293  1  0.05707783  0.58272242  0.43597503  1
  O  O294  1  0.05544350  0.58354049  0.68656780  1
  O  O295  1  0.05809464  0.58326473  0.93783457  1
  O  O296  1  0.05676957  0.91610732  0.18612855  1
  O  O297  1  0.06082993  0.91653692  0.43814269  1
  O  O298  1  0.05904946  0.91645610  0.68712708  1
  O  O299  1  0.05889588  0.91624792  0.93700612  1
  O  O300  1  0.55834782  0.25084801  0.18884969  1
  O  O301  1  0.55867424  0.25062408  0.43768340  1
  O  O302  1  0.55954122  0.24975605  0.68690126  1
  O  O303  1  0.55706508  0.24993595  0.93588503  1
  O  O304  1  0.55496128  0.58320823  0.18760562  1
  O  O305  1  0.55802770  0.58279925  0.43853108  1
  O  O306  1  0.55963904  0.58376319  0.68675664  1
  O  O307  1  0.55652065  0.58382643  0.93573767  1
  O  O308  1  0.55483640  0.91601118  0.18692812  1
  O  O309  1  0.55457676  0.91662392  0.43709177  1
  O  O310  1  0.55953471  0.91647453  0.68763596  1
  O  O311  1  0.55763425  0.91608064  0.93535573  1
  O  O312  1  0.44398359  0.08365757  0.06278385  1
  O  O313  1  0.44312281  0.08422745  0.31415224  1
  O  O314  1  0.44030951  0.08417613  0.56208438  1
  O  O315  1  0.44345512  0.08352637  0.81303132  1
  O  O316  1  0.44377381  0.41672173  0.06399737  1
  O  O317  1  0.44005530  0.41628608  0.31304987  1
  O  O318  1  0.44145657  0.41596377  0.56164362  1
  O  O319  1  0.44461005  0.41659600  0.81258501  1
  O  O320  1  0.44330861  0.74951729  0.06344358  1
  O  O321  1  0.44013101  0.74956590  0.31313841  1
  O  O322  1  0.44070276  0.75009967  0.56184418  1
  O  O323  1  0.44372709  0.74987481  0.81250120  1
  O  O324  1  0.94474690  0.08332119  0.06364412  1
  O  O325  1  0.94376203  0.08421229  0.31363845  1
  O  O326  1  0.94302839  0.08336941  0.56374095  1
  O  O327  1  0.94098766  0.08348906  0.81163398  1
  O  O328  1  0.94311203  0.41662660  0.06421588  1
  O  O329  1  0.94116328  0.41635479  0.31249544  1
  O  O330  1  0.94148248  0.41640217  0.56180315  1
  O  O331  1  0.94389028  0.41684774  0.81294903  1
  O  O332  1  0.94208354  0.75018697  0.06215947  1
  O  O333  1  0.94384499  0.74939043  0.31292992  1
  O  O334  1  0.94408698  0.74986706  0.56379271  1
  O  O335  1  0.94001936  0.75013170  0.81255500  1
  O  O336  1  0.19267075  0.08369942  0.06098360  1
  O  O337  1  0.19470375  0.08441249  0.31215260  1
  O  O338  1  0.19456354  0.08370662  0.56224291  1
  O  O339  1  0.19059735  0.08387531  0.81246918  1
  O  O340  1  0.19355040  0.41686903  0.06112318  1
  O  O341  1  0.19223195  0.41678135  0.31374318  1
  O  O342  1  0.19080989  0.41775289  0.56255386  1
  O  O343  1  0.19011374  0.41759089  0.81181381  1
  O  O344  1  0.19429101  0.74942179  0.06137631  1
  O  O345  1  0.19550168  0.74905028  0.31211233  1
  O  O346  1  0.19174636  0.74870088  0.56323129  1
  O  O347  1  0.19218935  0.74857229  0.81083735  1
  O  O348  1  0.69091397  0.08323446  0.06312611  1
  O  O349  1  0.69225443  0.08365529  0.31177402  1
  O  O350  1  0.69336199  0.08368696  0.56128664  1
  O  O351  1  0.69477291  0.08327617  0.81149620  1
  O  O352  1  0.69034832  0.41769692  0.06239485  1
  O  O353  1  0.69307640  0.41689092  0.31180277  1
  O  O354  1  0.69131922  0.41711158  0.56290415  1
  O  O355  1  0.69092889  0.41719502  0.81230935  1
  O  O356  1  0.69085179  0.74908631  0.06289271  1
  O  O357  1  0.69140477  0.74922610  0.31136391  1
  O  O358  1  0.69357303  0.74916196  0.56143405  1
  O  O359  1  0.69510741  0.74942546  0.81165808  1
  O  O360  1  0.30678899  0.25069642  0.18903329  1
  O  O361  1  0.30859666  0.25063280  0.43817839  1
  O  O362  1  0.30833234  0.25119897  0.68723440  1
  O  O363  1  0.30605729  0.25075575  0.93796838  1
  O  O364  1  0.30864114  0.58270860  0.18764874  1
  O  O365  1  0.30865900  0.58242751  0.43803276  1
  O  O366  1  0.31002372  0.58233527  0.68751915  1
  O  O367  1  0.30938452  0.58259456  0.93729931  1
  O  O368  1  0.30685241  0.91669664  0.18852856  1
  O  O369  1  0.30857995  0.91710140  0.43813161  1
  O  O370  1  0.30803947  0.91646702  0.68738788  1
  O  O371  1  0.30490416  0.91664330  0.93771625  1
  O  O372  1  0.80873685  0.25032128  0.18800072  1
  O  O373  1  0.80857629  0.25108851  0.43711508  1
  O  O374  1  0.80561874  0.25062999  0.68797544  1
  O  O375  1  0.80774078  0.25031110  0.93897914  1
  O  O376  1  0.80693666  0.58283008  0.18878914  1
  O  O377  1  0.80936118  0.58263231  0.43759025  1
  O  O378  1  0.80896151  0.58284763  0.68742531  1
  O  O379  1  0.80867298  0.58247439  0.93730461  1
  O  O380  1  0.80874307  0.91665616  0.18736164  1
  O  O381  1  0.80633499  0.91622634  0.43816551  1
  O  O382  1  0.80614380  0.91666314  0.68799715  1
  O  O383  1  0.80725453  0.91694392  0.93930086  1
  O  O384  1  0.23307724  0.25086011  0.03975961  1
  O  O385  1  0.23325886  0.25078017  0.29057498  1
  O  O386  1  0.23381047  0.25065470  0.53845515  1
  O  O387  1  0.23231534  0.25055214  0.78677700  1
  O  O388  1  0.23402432  0.58303454  0.03752342  1
  O  O389  1  0.23439665  0.58281080  0.28889319  1
  O  O390  1  0.23539656  0.58250667  0.53929785  1
  O  O391  1  0.23487992  0.58309837  0.78738872  1
  O  O392  1  0.23105700  0.91630554  0.03913823  1
  O  O393  1  0.23471830  0.91672875  0.29090611  1
  O  O394  1  0.23417358  0.91700812  0.53875766  1
  O  O395  1  0.23194048  0.91632111  0.78669713  1
  O  O396  1  0.73455117  0.25046737  0.04017278  1
  O  O397  1  0.73364072  0.25071526  0.28818471  1
  O  O398  1  0.73309149  0.25100206  0.53721300  1
  O  O399  1  0.73160910  0.24980538  0.78922423  1
  O  O400  1  0.73464896  0.58328687  0.03846722  1
  O  O401  1  0.73403762  0.58245427  0.29047309  1
  O  O402  1  0.73421204  0.58265319  0.53787959  1
  O  O403  1  0.73383807  0.58330179  0.78769727  1
  O  O404  1  0.73465801  0.91623330  0.04106959  1
  O  O405  1  0.73386874  0.91666631  0.28779734  1
  O  O406  1  0.73322846  0.91637354  0.53980068  1
  O  O407  1  0.73263069  0.91638544  0.78985659  1
  O  O408  1  0.26670519  0.08411264  0.20957567  1
  O  O409  1  0.26851287  0.08402730  0.46124218  1
  O  O410  1  0.26465744  0.08361201  0.71147363  1
  O  O411  1  0.26460577  0.08351080  0.95826242  1
  O  O412  1  0.26703178  0.41684878  0.21287112  1
  O  O413  1  0.26629802  0.41666013  0.46295717  1
  O  O414  1  0.26442400  0.41673252  0.71124740  1
  O  O415  1  0.26562702  0.41687829  0.95869914  1
  O  O416  1  0.26871226  0.74898347  0.21033580  1
  O  O417  1  0.26764488  0.74990115  0.46368784  1
  O  O418  1  0.26526220  0.74990985  0.70934811  1
  O  O419  1  0.26579941  0.74979582  0.95847817  1
  O  O420  1  0.76522862  0.08416221  0.21021689  1
  O  O421  1  0.76594191  0.08414810  0.45911032  1
  O  O422  1  0.76770979  0.08340760  0.70947136  1
  O  O423  1  0.76590954  0.08309483  0.96277390  1
  O  O424  1  0.76725921  0.41655909  0.21083954  1
  O  O425  1  0.76624830  0.41679191  0.46238546  1
  O  O426  1  0.76436038  0.41695985  0.71100835  1
  O  O427  1  0.76464305  0.41673321  0.96157244  1
  O  O428  1  0.76511096  0.74905317  0.21040619  1
  O  O429  1  0.76614260  0.74921046  0.45942818  1
  O  O430  1  0.76817294  0.74965262  0.70986625  1
  O  O431  1  0.76702910  0.75005579  0.96319176  1
  O  O432  1  0.01624915  0.08331205  0.16668292  1
  O  O433  1  0.01689365  0.08439345  0.41540520  1
  O  O434  1  0.01618563  0.08320346  0.66476398  1
  O  O435  1  0.01691519  0.08405409  0.91153086  1
  O  O436  1  0.01587146  0.41655438  0.16580126  1
  O  O437  1  0.01608657  0.41662691  0.41282628  1
  O  O438  1  0.01668569  0.41766662  0.66193180  1
  O  O439  1  0.01770547  0.41632089  0.91456548  1
  O  O440  1  0.01589167  0.75011049  0.16356233  1
  O  O441  1  0.01702403  0.74849801  0.41456063  1
  O  O442  1  0.01732667  0.74914515  0.66548149  1
  O  O443  1  0.01425583  0.74960987  0.91324997  1
  O  O444  1  0.51799600  0.08329806  0.16419598  1
  O  O445  1  0.51466401  0.08373709  0.41692608  1
  O  O446  1  0.51459008  0.08387566  0.66283945  1
  O  O447  1  0.51690852  0.08381565  0.91443931  1
  O  O448  1  0.51681549  0.41730042  0.16594873  1
  O  O449  1  0.51388426  0.41651152  0.41395813  1
  O  O450  1  0.51681331  0.41660449  0.66161519  1
  O  O451  1  0.51842809  0.41730755  0.91395353  1
  O  O452  1  0.51644552  0.74940683  0.16542467  1
  O  O453  1  0.51322653  0.74975501  0.41485538  1
  O  O454  1  0.51497958  0.74930938  0.66269824  1
  O  O455  1  0.51665501  0.74881270  0.91438826  1
  O  O456  1  0.48516915  0.25103584  0.08686914  1
  O  O457  1  0.48303051  0.25013211  0.33801687  1
  O  O458  1  0.48397155  0.25061272  0.58715515  1
  O  O459  1  0.48468315  0.25071565  0.83356885  1
  O  O460  1  0.48196976  0.58278334  0.08568021  1
  O  O461  1  0.48163654  0.58311620  0.33943277  1
  O  O462  1  0.48406544  0.58283830  0.58708509  1
  O  O463  1  0.48341379  0.58283755  0.83386863  1
  O  O464  1  0.48348248  0.91608803  0.08375317  1
  O  O465  1  0.48045378  0.91689325  0.33623318  1
  O  O466  1  0.48240273  0.91676986  0.58890378  1
  O  O467  1  0.48429325  0.91626422  0.83386543  1
  O  O468  1  0.98268213  0.25002305  0.08820399  1
  O  O469  1  0.98420592  0.25131592  0.33834152  1
  O  O470  1  0.98536268  0.25055816  0.58599883  1
  O  O471  1  0.98448440  0.25096155  0.83291887  1
  O  O472  1  0.98581864  0.58294996  0.08749414  1
  O  O473  1  0.98318737  0.58240101  0.33500378  1
  O  O474  1  0.98209573  0.58313581  0.58494799  1
  O  O475  1  0.98289861  0.58310571  0.83739624  1
  O  O476  1  0.98267813  0.91712168  0.08476865  1
  O  O477  1  0.98547895  0.91630952  0.33792744  1
  O  O478  1  0.98560102  0.91603097  0.58590502  1
  O  O479  1  0.98517672  0.91619256  0.83606016  1
  O  O480  1  0.08617690  0.31507200  0.07815127  1
  O  O481  1  0.08787834  0.31657138  0.32799939  1
  O  O482  1  0.08884214  0.31641322  0.57741446  1
  O  O483  1  0.08858211  0.31572383  0.82736433  1
  O  O484  1  0.08922034  0.64832473  0.07726311  1
  O  O485  1  0.08767961  0.64656195  0.32630008  1
  O  O486  1  0.08568088  0.64878343  0.57714683  1
  O  O487  1  0.08660003  0.64744110  0.82753970  1
  O  O488  1  0.08688487  0.98146398  0.07696086  1
  O  O489  1  0.08871846  0.98160090  0.32818680  1
  O  O490  1  0.08980833  0.97996309  0.57696252  1
  O  O491  1  0.08832476  0.98245935  0.82749252  1
  O  O492  1  0.58856215  0.31624964  0.07965470  1
  O  O493  1  0.58679446  0.31520975  0.32743760  1
  O  O494  1  0.58767338  0.31594487  0.57704371  1
  O  O495  1  0.58846639  0.31617671  0.82729707  1
  O  O496  1  0.58552846  0.64835996  0.07815080  1
  O  O497  1  0.58510701  0.64810035  0.32833055  1
  O  O498  1  0.58787245  0.64749845  0.57629283  1
  O  O499  1  0.58741459  0.64760162  0.82571489  1
  O  O500  1  0.58750222  0.98084929  0.07829420  1
  O  O501  1  0.58440824  0.98162233  0.32767963  1
  O  O502  1  0.58578696  0.98168269  0.57730946  1
  O  O503  1  0.58827217  0.98129593  0.82609349  1
  O  O504  1  0.41397182  0.01851878  0.17188092  1
  O  O505  1  0.41057213  0.01902033  0.42290892  1
  O  O506  1  0.41078868  0.01924248  0.67185287  1
  O  O507  1  0.41330781  0.01843112  0.92223795  1
  O  O508  1  0.41258877  0.35270823  0.17362066  1
  O  O509  1  0.41049025  0.35088863  0.42277216  1
  O  O510  1  0.41344569  0.35125495  0.67203020  1
  O  O511  1  0.41468916  0.35260420  0.92243845  1
  O  O512  1  0.41278481  0.68363664  0.17256777  1
  O  O513  1  0.40934950  0.68498745  0.42281292  1
  O  O514  1  0.41153961  0.68423596  0.67105442  1
  O  O515  1  0.41293641  0.68352680  0.92103533  1
  O  O516  1  0.91272886  0.01776275  0.17232167  1
  O  O517  1  0.91307863  0.01966438  0.42281000  1
  O  O518  1  0.91231694  0.01820119  0.67309967  1
  O  O519  1  0.91366405  0.01867448  0.92191610  1
  O  O520  1  0.91215021  0.35082392  0.17340891  1
  O  O521  1  0.91218978  0.35178927  0.42286826  1
  O  O522  1  0.91338725  0.35246622  0.67240139  1
  O  O523  1  0.91354004  0.35229810  0.92215040  1
  O  O524  1  0.91200317  0.68608980  0.17187789  1
  O  O525  1  0.91324305  0.68327237  0.42160800  1
  O  O526  1  0.91322001  0.68389488  0.67257402  1
  O  O527  1  0.91079436  0.68380155  0.92205149  1
  O  O528  1  0.16259664  0.02002368  0.20328438  1
  O  O529  1  0.16497227  0.01857675  0.45282446  1
  O  O530  1  0.16126035  0.01849949  0.70281166  1
  O  O531  1  0.16087922  0.01766284  0.95242145  1
  O  O532  1  0.16354182  0.35148120  0.20388103  1
  O  O533  1  0.16265582  0.35127834  0.45285350  1
  O  O534  1  0.16068232  0.35149935  0.70230574  1
  O  O535  1  0.16102095  0.35317963  0.95195092  1
  O  O536  1  0.16494103  0.68368569  0.20298687  1
  O  O537  1  0.16435216  0.68507655  0.45255679  1
  O  O538  1  0.16164688  0.68477159  0.70090291  1
  O  O539  1  0.16240217  0.68403954  0.95251428  1
  O  O540  1  0.66103699  0.01977350  0.20221898  1
  O  O541  1  0.66215947  0.01921666  0.45218979  1
  O  O542  1  0.66394016  0.01793439  0.70236827  1
  O  O543  1  0.66241980  0.01819394  0.95318804  1
  O  O544  1  0.66336047  0.35103450  0.20261191  1
  O  O545  1  0.66240047  0.35223438  0.45295176  1
  O  O546  1  0.66047169  0.35211019  0.70260365  1
  O  O547  1  0.66070074  0.35241060  0.95278716  1
  O  O548  1  0.66113677  0.68431401  0.20189037  1
  O  O549  1  0.66271854  0.68320040  0.45268568  1
  O  O550  1  0.66429347  0.68460224  0.70231832  1
  O  O551  1  0.66386553  0.68456933  0.95232690  1
  O  O552  1  0.33705018  0.31538082  0.04720576  1
  O  O553  1  0.33712184  0.31602169  0.29848091  1
  O  O554  1  0.33745407  0.31578415  0.54829202  1
  O  O555  1  0.33570276  0.31565901  0.79764587  1
  O  O556  1  0.33780871  0.64789138  0.04728604  1
  O  O557  1  0.33815153  0.64793293  0.29735828  1
  O  O558  1  0.33928858  0.64738387  0.54759929  1
  O  O559  1  0.33872066  0.64769756  0.79738632  1
  O  O560  1  0.33461627  0.98192281  0.04712468  1
  O  O561  1  0.33906603  0.98073677  0.29772293  1
  O  O562  1  0.33776749  0.98230326  0.54799978  1
  O  O563  1  0.33537203  0.98145284  0.79765787  1
  O  O564  1  0.83847822  0.31515463  0.04837147  1
  O  O565  1  0.83725490  0.31629243  0.29785356  1
  O  O566  1  0.83642640  0.31658349  0.54730906  1
  O  O567  1  0.83527849  0.31464791  0.79769561  1
  O  O568  1  0.83825369  0.64877448  0.04663091  1
  O  O569  1  0.83837263  0.64671049  0.29827904  1
  O  O570  1  0.83828601  0.64681407  0.54779627  1
  O  O571  1  0.83764723  0.64876482  0.79696704  1
  O  O572  1  0.83878312  0.98078521  0.04866634  1
  O  O573  1  0.83752763  0.98160587  0.29723367  1
  O  O574  1  0.83708962  0.98139723  0.54723516  1
  O  O575  1  0.83622257  0.98194829  0.79735624  1
  O  O576  1  0.41443759  0.14852485  0.17248942  1
  O  O577  1  0.41096160  0.14919002  0.42310247  1
  O  O578  1  0.41142725  0.14967410  0.67166686  1
  O  O579  1  0.41316431  0.14877592  0.92213048  1
  O  O580  1  0.41267642  0.48252638  0.17290831  1
  O  O581  1  0.40983873  0.48093577  0.42288906  1
  O  O582  1  0.41322838  0.48135575  0.67155449  1
  O  O583  1  0.41474675  0.48266551  0.92164297  1
  O  O584  1  0.41201136  0.81362915  0.17268843  1
  O  O585  1  0.40970996  0.81519790  0.42249124  1
  O  O586  1  0.41152445  0.81457158  0.67193550  1
  O  O587  1  0.41297119  0.81378423  0.92210079  1
  O  O588  1  0.91230346  0.14804069  0.17255308  1
  O  O589  1  0.91335013  0.15008474  0.42249643  1
  O  O590  1  0.91223985  0.14823054  0.67309408  1
  O  O591  1  0.91330189  0.14877150  0.92165816  1
  O  O592  1  0.91165187  0.48071882  0.17362296  1
  O  O593  1  0.91231547  0.48181221  0.42223933  1
  O  O594  1  0.91285447  0.48241542  0.67145726  1
  O  O595  1  0.91429111  0.48229665  0.92246270  1
  O  O596  1  0.91279840  0.81634278  0.17161640  1
  O  O597  1  0.91341679  0.81348058  0.42271188  1
  O  O598  1  0.91337156  0.81392152  0.67346307  1
  O  O599  1  0.91027558  0.81384619  0.92258149  1
  O  O600  1  0.08621236  0.18514983  0.07842779  1
  O  O601  1  0.08807404  0.18666272  0.32725052  1
  O  O602  1  0.08944049  0.18637224  0.57664870  1
  O  O603  1  0.08827982  0.18562587  0.82679464  1
  O  O604  1  0.08965504  0.51842801  0.07765260  1
  O  O605  1  0.08701398  0.51663036  0.32699137  1
  O  O606  1  0.08624471  0.51888167  0.57698461  1
  O  O607  1  0.08619685  0.51743262  0.82796158  1
  O  O608  1  0.08633592  0.85159373  0.07635096  1
  O  O609  1  0.08888823  0.85132076  0.32809966  1
  O  O610  1  0.08902158  0.84984935  0.57812108  1
  O  O611  1  0.08925971  0.85226594  0.82709043  1
  O  O612  1  0.58861321  0.18579307  0.07922880  1
  O  O613  1  0.58700048  0.18536767  0.32779707  1
  O  O614  1  0.58778593  0.18591821  0.57652013  1
  O  O615  1  0.58872328  0.18618083  0.82620068  1
  O  O616  1  0.58612912  0.51822551  0.07863287  1
  O  O617  1  0.58510379  0.51822119  0.32801098  1
  O  O618  1  0.58766806  0.51748752  0.57691474  1
  O  O619  1  0.58753472  0.51785543  0.82672876  1
  O  O620  1  0.58692852  0.85041284  0.07834749  1
  O  O621  1  0.58418154  0.85168106  0.32757667  1
  O  O622  1  0.58566768  0.85145990  0.57718965  1
  O  O623  1  0.58834563  0.85132733  0.82599216  1
  O  O624  1  0.33658606  0.18530421  0.04714885  1
  O  O625  1  0.33749125  0.18616098  0.29837470  1
  O  O626  1  0.33766668  0.18575156  0.54818509  1
  O  O627  1  0.33585901  0.18572699  0.79726566  1
  O  O628  1  0.33762540  0.51797532  0.04766894  1
  O  O629  1  0.33819109  0.51794655  0.29767316  1
  O  O630  1  0.33904008  0.51731262  0.54771320  1
  O  O631  1  0.33846116  0.51788049  0.79780051  1
  O  O632  1  0.33525206  0.85192396  0.04694910  1
  O  O633  1  0.33802982  0.85056025  0.29731296  1
  O  O634  1  0.33792941  0.85213962  0.54815937  1
  O  O635  1  0.33545113  0.85146917  0.79757903  1
  O  O636  1  0.83836887  0.18522991  0.04847501  1
  O  O637  1  0.83777909  0.18642632  0.29835175  1
  O  O638  1  0.83691451  0.18656691  0.54718450  1
  O  O639  1  0.83547221  0.18447058  0.79695160  1
  O  O640  1  0.83838965  0.51876714  0.04722044  1
  O  O641  1  0.83776344  0.51681855  0.29779708  1
  O  O642  1  0.83759696  0.51682852  0.54755113  1
  O  O643  1  0.83770513  0.51872544  0.79783771  1
  O  O644  1  0.83849129  0.85075039  0.04802001  1
  O  O645  1  0.83741395  0.85146672  0.29716346  1
  O  O646  1  0.83705266  0.85135639  0.54741259  1
  O  O647  1  0.83663985  0.85173361  0.79709733  1
  O  O648  1  0.16339004  0.15035104  0.20353946  1
  O  O649  1  0.16464026  0.14875497  0.45291405  1
  O  O650  1  0.16134050  0.14876082  0.70260892  1
  O  O651  1  0.16037207  0.14779865  0.95188547  1
  O  O652  1  0.16347571  0.48162988  0.20377581  1
  O  O653  1  0.16244289  0.48114893  0.45183176  1
  O  O654  1  0.16070060  0.48150579  0.70150799  1
  O  O655  1  0.16217054  0.48310351  0.95223341  1
  O  O656  1  0.16476510  0.81373429  0.20281855  1
  O  O657  1  0.16428664  0.81529152  0.45354676  1
  O  O658  1  0.16122948  0.81474601  0.70191055  1
  O  O659  1  0.16155830  0.81422772  0.95286084  1
  O  O660  1  0.66165224  0.14993497  0.20302270  1
  O  O661  1  0.66230921  0.14955536  0.45265716  1
  O  O662  1  0.66357030  0.14804569  0.70227144  1
  O  O663  1  0.66260005  0.14827839  0.95313781  1
  O  O664  1  0.66299934  0.48090267  0.20200050  1
  O  O665  1  0.66286044  0.48227140  0.45286674  1
  O  O666  1  0.66077076  0.48225464  0.70254116  1
  O  O667  1  0.66119201  0.48231024  0.95228874  1
  O  O668  1  0.66123346  0.81430394  0.20195726  1
  O  O669  1  0.66197270  0.81350554  0.45235466  1
  O  O670  1  0.66415660  0.81468354  0.70249713  1
  O  O671  1  0.66344847  0.81461470  0.95290738  1
