# generated using pymatgen
data_Na2MnFe(PO4)2
_symmetry_space_group_name_H-M   'P 1'
_cell_length_a   21.08024433
_cell_length_b   18.93219402
_cell_length_c   20.04016485
_cell_angle_alpha   89.99993502
_cell_angle_beta   90.00089947
_cell_angle_gamma   89.99895992
_symmetry_Int_Tables_number   1
_chemical_formula_structural   Na2MnFe(PO4)2
_chemical_formula_sum   'Na96 Mn48 Fe48 P96 O384'
_cell_volume   7997.93511213
_cell_formula_units_Z   48
loop_
 _symmetry_equiv_pos_site_id
 _symmetry_equiv_pos_as_xyz
  1  'x, y, z'
loop_
 _atom_site_type_symbol
 _atom_site_label
 _atom_site_symmetry_multiplicity
 _atom_site_fract_x
 _atom_site_fract_y
 _atom_site_fract_z
 _atom_site_occupancy
  Na  Na0  1  0.00159924  0.00075089  -0.00111002  1
  Na  Na1  1  -0.00034152  0.00014449  0.25023851  1
  Na  Na2  1  -0.00078900  -0.00008108  0.49981815  1
  Na  Na3  1  0.00152895  0.00076818  0.75018386  1
  Na  Na4  1  0.00114398  0.33277559  0.00013100  1
  Na  Na5  1  -0.00039443  0.33275570  0.25053084  1
  Na  Na6  1  0.00024724  0.33300905  0.50122900  1
  Na  Na7  1  0.00111358  0.33341203  0.74897370  1
  Na  Na8  1  0.00161871  0.66669545  0.00011367  1
  Na  Na9  1  0.00124447  0.66733023  0.24979640  1
  Na  Na10  1  -0.00107098  0.66632219  0.50015385  1
  Na  Na11  1  0.00021056  0.66615901  0.75075503  1
  Na  Na12  1  0.50068927  0.00082874  -0.00062065  1
  Na  Na13  1  0.50085279  0.00084993  0.25023375  1
  Na  Na14  1  0.49928315  0.00000358  0.50093090  1
  Na  Na15  1  0.49891972  0.00000666  0.75016629  1
  Na  Na16  1  0.49813448  0.33338557  -0.00052821  1
  Na  Na17  1  0.49783626  0.33251885  0.24891407  1
  Na  Na18  1  0.50091507  0.33442957  0.49947841  1
  Na  Na19  1  0.49918382  0.33352579  0.75111591  1
  Na  Na20  1  0.50072367  0.66736740  0.00098338  1
  Na  Na21  1  0.50190601  0.66738265  0.24992820  1
  Na  Na22  1  0.50284572  0.66699954  0.49863532  1
  Na  Na23  1  0.50173868  0.66729389  0.74973545  1
  Na  Na24  1  0.24957546  -0.00026197  0.12382347  1
  Na  Na25  1  0.25099198  0.00025272  0.37546447  1
  Na  Na26  1  0.25196900  0.00070240  0.62602255  1
  Na  Na27  1  0.25110787  0.00038693  0.87472519  1
  Na  Na28  1  0.25267781  0.33426681  0.12503588  1
  Na  Na29  1  0.24862532  0.33247847  0.37533523  1
  Na  Na30  1  0.24718882  0.33251605  0.62523276  1
  Na  Na31  1  0.25003206  0.33327614  0.87467616  1
  Na  Na32  1  0.24840871  0.66623370  0.12456297  1
  Na  Na33  1  0.24995866  0.66676664  0.37534250  1
  Na  Na34  1  0.25047522  0.66661208  0.62501737  1
  Na  Na35  1  0.24894963  0.66585760  0.87392664  1
  Na  Na36  1  0.74837475  0.00031874  0.12419740  1
  Na  Na37  1  0.74989726  0.00035765  0.37568251  1
  Na  Na38  1  0.74832395  -0.00009917  0.62587208  1
  Na  Na39  1  0.74684821  -0.00025373  0.87473276  1
  Na  Na40  1  0.74933082  0.33226988  0.12425250  1
  Na  Na41  1  0.75283361  0.33449695  0.37586303  1
  Na  Na42  1  0.75137416  0.33342523  0.62446308  1
  Na  Na43  1  0.75138773  0.33339151  0.87452176  1
  Na  Na44  1  0.74900959  0.66733851  0.12437551  1
  Na  Na45  1  0.74718854  0.66610098  0.37618092  1
  Na  Na46  1  0.74867129  0.66653202  0.62625348  1
  Na  Na47  1  0.74851793  0.66643155  0.87450239  1
  Na  Na48  1  0.00135615  0.16588567  0.00004075  1
  Na  Na49  1  0.00009321  0.16673031  0.25045039  1
  Na  Na50  1  0.00066235  0.16642618  0.50038637  1
  Na  Na51  1  0.00063321  0.16627380  0.74993364  1
  Na  Na52  1  0.00312787  0.49959961  -0.00058973  1
  Na  Na53  1  0.00122075  0.50017524  0.24954557  1
  Na  Na54  1  -0.00142477  0.50067318  0.50059026  1
  Na  Na55  1  0.00168761  0.49925309  0.75039121  1
  Na  Na56  1  0.00144327  0.83271396  -0.00028065  1
  Na  Na57  1  -0.00103258  0.83322094  0.25048790  1
  Na  Na58  1  -0.00136687  0.83376842  0.50023460  1
  Na  Na59  1  0.00022672  0.83395983  0.74966304  1
  Na  Na60  1  0.50044451  0.16608952  -0.00124624  1
  Na  Na61  1  0.50042392  0.16639107  0.24937184  1
  Na  Na62  1  0.49994246  0.16676438  0.50057987  1
  Na  Na63  1  0.50041836  0.16589883  0.75011347  1
  Na  Na64  1  0.49833442  0.49996025  0.00054215  1
  Na  Na65  1  0.50015599  0.49920217  0.24986797  1
  Na  Na66  1  0.50018821  0.49982148  0.49877895  1
  Na  Na67  1  0.49813267  0.50032651  0.75071882  1
  Na  Na68  1  0.50023567  0.83337604  0.00060210  1
  Na  Na69  1  0.50058718  0.83323523  0.25002920  1
  Na  Na70  1  0.50238236  0.83289010  0.49974782  1
  Na  Na71  1  0.50151496  0.83338287  0.75022861  1
  Na  Na72  1  0.24857809  0.16699774  0.12471350  1
  Na  Na73  1  0.24928809  0.16627036  0.37446049  1
  Na  Na74  1  0.24815879  0.16611211  0.62561242  1
  Na  Na75  1  0.24953216  0.16590254  0.87507197  1
  Na  Na76  1  0.24942185  0.50022446  0.12500661  1
  Na  Na77  1  0.25011581  0.49979876  0.37640029  1
  Na  Na78  1  0.25067029  0.49940648  0.62539423  1
  Na  Na79  1  0.24928552  0.50019972  0.87339865  1
  Na  Na80  1  0.25166395  0.83283589  0.12379987  1
  Na  Na81  1  0.25090108  0.83313574  0.37512496  1
  Na  Na82  1  0.25136591  0.83387325  0.62522763  1
  Na  Na83  1  0.25170232  0.83348498  0.87487582  1
  Na  Na84  1  0.74960015  0.16681532  0.12376163  1
  Na  Na85  1  0.75151893  0.16584864  0.37615636  1
  Na  Na86  1  0.74999462  0.16666183  0.62504038  1
  Na  Na87  1  0.74937061  0.16655293  0.87509944  1
  Na  Na88  1  0.74946671  0.50039352  0.12435239  1
  Na  Na89  1  0.74977361  0.50035526  0.37547867  1
  Na  Na90  1  0.75125547  0.49912448  0.62524607  1
  Na  Na91  1  0.75024329  0.49974036  0.87439908  1
  Na  Na92  1  0.74741661  0.83377324  0.12480728  1
  Na  Na93  1  0.74916424  0.83276105  0.37569678  1
  Na  Na94  1  0.74799927  0.83359021  0.62630027  1
  Na  Na95  1  0.74715598  0.83419073  0.87425097  1
  Mn  Mn96  1  0.85637167  0.74968517  0.50266777  1
  Mn  Mn97  1  0.10774790  0.08297573  0.37294824  1
  Mn  Mn98  1  0.10895071  0.75051651  0.87221040  1
  Mn  Mn99  1  0.85678027  0.75042183  0.75261232  1
  Mn  Mn100  1  0.10909155  0.41663889  0.12263045  1
  Mn  Mn101  1  0.89359158  0.58285492  0.87737213  1
  Mn  Mn102  1  0.39273246  0.58355028  0.37664709  1
  Mn  Mn103  1  0.89220695  0.24960909  0.12701851  1
  Mn  Mn104  1  0.64237804  0.91696016  0.24762929  1
  Mn  Mn105  1  0.14258672  0.91679746  0.49858550  1
  Mn  Mn106  1  0.64263296  0.25044572  0.24780935  1
  Mn  Mn107  1  0.89326886  0.24957034  0.62770814  1
  Mn  Mn108  1  0.60843165  0.41633527  0.37226561  1
  Mn  Mn109  1  0.10738773  0.75037318  0.62261045  1
  Mn  Mn110  1  0.35768744  0.41579780  0.50307159  1
  Mn  Mn111  1  0.60706848  0.41599495  0.12249419  1
  Mn  Mn112  1  0.35915214  0.75034843  0.50252173  1
  Mn  Mn113  1  0.89140882  0.58291827  0.37678897  1
  Mn  Mn114  1  0.35866597  0.75002271  0.75198485  1
  Mn  Mn115  1  0.85812834  0.41700873  0.25211998  1
  Mn  Mn116  1  0.14209590  0.58341643  0.49832531  1
  Mn  Mn117  1  0.14315522  0.91632147  0.99752233  1
  Mn  Mn118  1  0.10787034  0.75013282  0.37274790  1
  Mn  Mn119  1  0.39163007  0.58327828  0.12788705  1
  Mn  Mn120  1  0.64244969  0.25040269  0.49784019  1
  Mn  Mn121  1  0.39150347  0.24940983  0.87703964  1
  Mn  Mn122  1  0.85709188  0.75039551  0.00192561  1
  Mn  Mn123  1  0.35764434  0.08319016  0.25161747  1
  Mn  Mn124  1  0.39147075  0.58454882  0.87732298  1
  Mn  Mn125  1  0.39172451  0.25058893  0.62750816  1
  Mn  Mn126  1  0.89110228  0.91688309  0.37744411  1
  Mn  Mn127  1  0.89305401  0.58386677  0.12711736  1
  Mn  Mn128  1  0.64195370  0.58241596  0.74730201  1
  Mn  Mn129  1  0.39259306  0.91670575  0.37717682  1
  Mn  Mn130  1  0.85716881  0.08296906  0.00140662  1
  Mn  Mn131  1  0.85757785  0.08273588  0.50324246  1
  Mn  Mn132  1  0.39297591  0.91721548  0.12725001  1
  Mn  Mn133  1  0.39107365  0.24963312  0.37731231  1
  Mn  Mn134  1  0.89164607  0.91640257  0.12624254  1
  Mn  Mn135  1  0.10730504  0.41692439  0.37313856  1
  Mn  Mn136  1  0.85862543  0.41682588  0.00177814  1
  Mn  Mn137  1  0.14202786  0.91614004  0.24728944  1
  Mn  Mn138  1  0.89218887  0.91712045  0.87706931  1
  Mn  Mn139  1  0.60783367  0.08393340  0.37292779  1
  Mn  Mn140  1  0.64161951  0.58279598  0.99738714  1
  Mn  Mn141  1  0.64266088  0.25038274  0.74773853  1
  Mn  Mn142  1  0.14284133  0.25047634  0.99755166  1
  Mn  Mn143  1  0.60714354  0.41676912  0.87245152  1
  Fe  Fe144  1  0.60658960  0.08388860  0.62365813  1
  Fe  Fe145  1  0.35656381  0.41710233  0.25175617  1
  Fe  Fe146  1  0.64196432  0.25011068  0.99770694  1
  Fe  Fe147  1  0.85751605  0.08302450  0.25094625  1
  Fe  Fe148  1  0.60759338  0.41678775  0.62390766  1
  Fe  Fe149  1  0.35727575  0.08369222  0.50225487  1
  Fe  Fe150  1  0.39358487  0.58353565  0.62579290  1
  Fe  Fe151  1  0.39333150  0.91653962  0.87627081  1
  Fe  Fe152  1  0.14361619  0.91662181  0.74779878  1
  Fe  Fe153  1  0.60640880  0.08319403  0.87264407  1
  Fe  Fe154  1  0.60782189  0.08385069  0.12294246  1
  Fe  Fe155  1  0.14351764  0.58358373  0.99830842  1
  Fe  Fe156  1  0.10692522  0.41661453  0.62323979  1
  Fe  Fe157  1  0.10732620  0.08249776  0.12347637  1
  Fe  Fe158  1  0.10809850  0.75103366  0.12357809  1
  Fe  Fe159  1  0.39268630  0.24936555  0.12631888  1
  Fe  Fe160  1  0.64269378  0.58298196  0.24798701  1
  Fe  Fe161  1  0.10837682  0.41564877  0.87251516  1
  Fe  Fe162  1  0.85743317  0.41730620  0.50245096  1
  Fe  Fe163  1  0.14237388  0.24952411  0.74862566  1
  Fe  Fe164  1  0.85830836  0.41597631  0.75204861  1
  Fe  Fe165  1  0.35641652  0.41619851  0.75076244  1
  Fe  Fe166  1  0.60721025  0.74958441  0.62318463  1
  Fe  Fe167  1  0.35696678  0.08387886  0.75149648  1
  Fe  Fe168  1  0.89379448  0.24977555  0.87617601  1
  Fe  Fe169  1  0.64265037  0.58286438  0.49892176  1
  Fe  Fe170  1  0.35668842  0.41661254  0.00138463  1
  Fe  Fe171  1  0.35744242  0.74938511  0.25130306  1
  Fe  Fe172  1  0.35753847  0.08364860  0.00196266  1
  Fe  Fe173  1  0.85678210  0.75011818  0.25132044  1
  Fe  Fe174  1  0.64171531  0.91758073  0.74786356  1
  Fe  Fe175  1  0.89187403  0.91666175  0.62749792  1
  Fe  Fe176  1  0.39378193  0.91627908  0.62690972  1
  Fe  Fe177  1  0.35784841  0.74959578  0.00203195  1
  Fe  Fe178  1  0.10746416  0.08274092  0.62355074  1
  Fe  Fe179  1  0.60663096  0.75041641  0.87397569  1
  Fe  Fe180  1  0.60724248  0.75035332  0.12310771  1
  Fe  Fe181  1  0.14309893  0.58346260  0.74702188  1
  Fe  Fe182  1  0.60762166  0.75009816  0.37216678  1
  Fe  Fe183  1  0.89218537  0.58371843  0.62724951  1
  Fe  Fe184  1  0.14250411  0.25008996  0.24809852  1
  Fe  Fe185  1  0.10809999  0.08346231  0.87283422  1
  Fe  Fe186  1  0.85707463  0.08350764  0.75188818  1
  Fe  Fe187  1  0.14253537  0.24940960  0.49814662  1
  Fe  Fe188  1  0.14285121  0.58340884  0.24877963  1
  Fe  Fe189  1  0.64126855  0.91723979  0.99765647  1
  Fe  Fe190  1  0.89305572  0.25005288  0.37647797  1
  Fe  Fe191  1  0.64209301  0.91667638  0.49890979  1
  P  P192  1  0.05494930  0.24897249  0.11108122  1
  P  P193  1  0.05408571  0.25000873  0.36079526  1
  P  P194  1  0.05602387  0.24935908  0.61110963  1
  P  P195  1  0.05379141  0.24966704  0.85939265  1
  P  P196  1  0.05627021  0.58460303  0.11043853  1
  P  P197  1  0.05355006  0.58331344  0.35941282  1
  P  P198  1  0.05302870  0.58280036  0.61134883  1
  P  P199  1  0.05670714  0.58248963  0.86044934  1
  P  P200  1  0.05339461  0.91664393  0.10971121  1
  P  P201  1  0.05292510  0.91661264  0.36002188  1
  P  P202  1  0.05290070  0.91761769  0.61126775  1
  P  P203  1  0.05466937  0.91744991  0.85900855  1
  P  P204  1  0.55266117  0.24951842  0.10890486  1
  P  P205  1  0.55271925  0.25013215  0.35937596  1
  P  P206  1  0.55321461  0.25060918  0.61045113  1
  P  P207  1  0.55389120  0.24934494  0.86077672  1
  P  P208  1  0.55410344  0.58360392  0.11128249  1
  P  P209  1  0.55570750  0.58356408  0.36007536  1
  P  P210  1  0.55291405  0.58244763  0.60950627  1
  P  P211  1  0.55275203  0.58406950  0.86006185  1
  P  P212  1  0.55434576  0.91705214  0.10960525  1
  P  P213  1  0.55471866  0.91653760  0.36115230  1
  P  P214  1  0.55405975  0.91732277  0.61119105  1
  P  P215  1  0.55387372  0.91700444  0.86062579  1
  P  P216  1  0.44723486  0.08423415  0.13848509  1
  P  P217  1  0.44585041  0.08353280  0.39103389  1
  P  P218  1  0.44573431  0.08315340  0.63961916  1
  P  P219  1  0.44529456  0.08253678  0.88888821  1
  P  P220  1  0.44394665  0.41572157  0.13920238  1
  P  P221  1  0.44522605  0.41664090  0.38874942  1
  P  P222  1  0.44742446  0.41748015  0.64060152  1
  P  P223  1  0.44388252  0.41681004  0.88934497  1
  P  P224  1  0.44627290  0.75006091  0.13975976  1
  P  P225  1  0.44730322  0.74981592  0.38862604  1
  P  P226  1  0.44862396  0.74974385  0.63950732  1
  P  P227  1  0.44721615  0.75113210  0.89054133  1
  P  P228  1  0.94718401  0.08292401  0.14008095  1
  P  P229  1  0.94513587  0.08420677  0.38919307  1
  P  P230  1  0.94710025  0.08251552  0.64092879  1
  P  P231  1  0.94700164  0.08416943  0.88847190  1
  P  P232  1  0.94774934  0.41681973  0.13991102  1
  P  P233  1  0.94571326  0.41592196  0.39104399  1
  P  P234  1  0.94600983  0.41741392  0.63962346  1
  P  P235  1  0.94795396  0.41532576  0.88865867  1
  P  P236  1  0.94753108  0.75023244  0.14028972  1
  P  P237  1  0.94490335  0.74970789  0.38932681  1
  P  P238  1  0.94581293  0.75006031  0.64030566  1
  P  P239  1  0.94715611  0.75015777  0.89008173  1
  P  P240  1  0.19593060  0.08353945  0.23421768  1
  P  P241  1  0.19657713  0.08340743  0.48649276  1
  P  P242  1  0.19584695  0.08279625  0.73597111  1
  P  P243  1  0.19633789  0.08319089  0.98533850  1
  P  P244  1  0.19751817  0.41668720  0.23563243  1
  P  P245  1  0.19507958  0.41592952  0.48660027  1
  P  P246  1  0.19545448  0.41629936  0.73543960  1
  P  P247  1  0.19751239  0.41725867  0.98420553  1
  P  P248  1  0.19765905  0.74948555  0.23441010  1
  P  P249  1  0.19728026  0.75032954  0.48518525  1
  P  P250  1  0.19721326  0.75063655  0.73462719  1
  P  P251  1  0.19759274  0.74970565  0.98580449  1
  P  P252  1  0.69750539  0.08390223  0.23435517  1
  P  P253  1  0.69505021  0.08262364  0.48685754  1
  P  P254  1  0.69542249  0.08326127  0.73570620  1
  P  P255  1  0.69383442  0.08381846  0.98506901  1
  P  P256  1  0.69716511  0.41717015  0.23456179  1
  P  P257  1  0.69666189  0.41747483  0.48651781  1
  P  P258  1  0.69790202  0.41609692  0.73430257  1
  P  P259  1  0.69655256  0.41556948  0.98439154  1
  P  P260  1  0.69572212  0.74930432  0.23543144  1
  P  P261  1  0.69353233  0.74994787  0.48650122  1
  P  P262  1  0.69359969  0.75078045  0.73604215  1
  P  P263  1  0.69415250  0.75086065  0.98507507  1
  P  P264  1  0.30409397  0.24948279  0.01521483  1
  P  P265  1  0.30299819  0.25024783  0.26359112  1
  P  P266  1  0.30159034  0.24889302  0.51550634  1
  P  P267  1  0.30176117  0.24973669  0.76448914  1
  P  P268  1  0.30245799  0.58330313  0.01464504  1
  P  P269  1  0.30215984  0.58357130  0.26498976  1
  P  P270  1  0.30434248  0.58337218  0.51595735  1
  P  P271  1  0.30386620  0.58265173  0.76289860  1
  P  P272  1  0.30576044  0.91697150  0.01316688  1
  P  P273  1  0.30355517  0.91579115  0.26466644  1
  P  P274  1  0.30472577  0.91759132  0.51605707  1
  P  P275  1  0.30514278  0.91745613  0.76420759  1
  P  P276  1  0.80349928  0.24968556  0.01322024  1
  P  P277  1  0.80416008  0.24890456  0.26561550  1
  P  P278  1  0.80512767  0.25065004  0.51421579  1
  P  P279  1  0.80479386  0.24956430  0.76537074  1
  P  P280  1  0.80341562  0.58352220  0.01478510  1
  P  P281  1  0.80184811  0.58467149  0.26469395  1
  P  P282  1  0.80254232  0.58303421  0.51596742  1
  P  P283  1  0.80477408  0.58243162  0.76418616  1
  P  P284  1  0.80087586  0.91696105  0.01439445  1
  P  P285  1  0.80306576  0.91662898  0.26458381  1
  P  P286  1  0.80188651  0.91619311  0.51654237  1
  P  P287  1  0.80268464  0.91795973  0.76413889  1
  O  O288  1  0.05894869  0.25015491  0.18787352  1
  O  O289  1  0.05871095  0.24969061  0.43756549  1
  O  O290  1  0.05981649  0.24939715  0.68793423  1
  O  O291  1  0.05710002  0.24970460  0.93616135  1
  O  O292  1  0.06025396  0.58355584  0.18724981  1
  O  O293  1  0.05656376  0.58339359  0.43623689  1
  O  O294  1  0.05839275  0.58337421  0.68802727  1
  O  O295  1  0.06090487  0.58344118  0.93730497  1
  O  O296  1  0.05582169  0.91645455  0.18647815  1
  O  O297  1  0.05651457  0.91658477  0.43680343  1
  O  O298  1  0.05855902  0.91699298  0.68783295  1
  O  O299  1  0.05799660  0.91662400  0.93581518  1
  O  O300  1  0.55646330  0.25014907  0.18563844  1
  O  O301  1  0.55661788  0.25048741  0.43614180  1
  O  O302  1  0.55611045  0.25043101  0.68722940  1
  O  O303  1  0.55770548  0.25033141  0.93747125  1
  O  O304  1  0.55835859  0.58280091  0.18803048  1
  O  O305  1  0.55957900  0.58253226  0.43684996  1
  O  O306  1  0.55591941  0.58227659  0.68632540  1
  O  O307  1  0.55559301  0.58286575  0.93683533  1
  O  O308  1  0.55701631  0.91719138  0.18645156  1
  O  O309  1  0.55822990  0.91708239  0.43792866  1
  O  O310  1  0.55793976  0.91764805  0.68799524  1
  O  O311  1  0.55765477  0.91722357  0.93737238  1
  O  O312  1  0.44240695  0.08367743  0.06183599  1
  O  O313  1  0.44260241  0.08361716  0.31418031  1
  O  O314  1  0.44119079  0.08415578  0.56294802  1
  O  O315  1  0.44038680  0.08377475  0.81217141  1
  O  O316  1  0.43969964  0.41705964  0.06238953  1
  O  O317  1  0.44017379  0.41654645  0.31198589  1
  O  O318  1  0.44395149  0.41635831  0.56382520  1
  O  O319  1  0.43925377  0.41654737  0.81257109  1
  O  O320  1  0.44111800  0.74949331  0.06305619  1
  O  O321  1  0.44189847  0.74968215  0.31197963  1
  O  O322  1  0.44550436  0.74990085  0.56280913  1
  O  O323  1  0.44383670  0.75018364  0.81374837  1
  O  O324  1  0.94320801  0.08306956  0.06330878  1
  O  O325  1  0.94115246  0.08336766  0.31246302  1
  O  O326  1  0.94333095  0.08292678  0.56416690  1
  O  O327  1  0.94180425  0.08321210  0.81189714  1
  O  O328  1  0.94471879  0.41693698  0.06307134  1
  O  O329  1  0.94322395  0.41688656  0.31417635  1
  O  O330  1  0.94118798  0.41714373  0.56292294  1
  O  O331  1  0.94304521  0.41609943  0.81198345  1
  O  O332  1  0.94337022  0.75004094  0.06355566  1
  O  O333  1  0.94033233  0.74966325  0.31258172  1
  O  O334  1  0.94266984  0.75003972  0.56350198  1
  O  O335  1  0.94316225  0.75026079  0.81334639  1
  O  O336  1  0.19127467  0.08282806  0.06195788  1
  O  O337  1  0.19316785  0.08276581  0.31107237  1
  O  O338  1  0.19183753  0.08237647  0.56317471  1
  O  O339  1  0.19170149  0.08286655  0.81272397  1
  O  O340  1  0.19432257  0.41625985  0.06095114  1
  O  O341  1  0.19400532  0.41644410  0.31233638  1
  O  O342  1  0.19082821  0.41696220  0.56336278  1
  O  O343  1  0.19171160  0.41614603  0.81223249  1
  O  O344  1  0.19269234  0.75075574  0.06240609  1
  O  O345  1  0.19400872  0.75045563  0.31115010  1
  O  O346  1  0.19358419  0.75049329  0.56195069  1
  O  O347  1  0.19464319  0.75070769  0.81143042  1
  O  O348  1  0.69034682  0.08400820  0.06191702  1
  O  O349  1  0.69382077  0.08386823  0.31111803  1
  O  O350  1  0.69055011  0.08364935  0.56359991  1
  O  O351  1  0.69057455  0.08360560  0.81240435  1
  O  O352  1  0.69305715  0.41599632  0.06114611  1
  O  O353  1  0.69452635  0.41646877  0.31138892  1
  O  O354  1  0.69172003  0.41654226  0.56315279  1
  O  O355  1  0.69321492  0.41631608  0.81093929  1
  O  O356  1  0.69038360  0.75021884  0.06191409  1
  O  O357  1  0.69155800  0.75007869  0.31224882  1
  O  O358  1  0.68988702  0.74985534  0.56344264  1
  O  O359  1  0.68963998  0.75005510  0.81280497  1
  O  O360  1  0.30801075  0.24932700  0.18697475  1
  O  O361  1  0.30505101  0.24941909  0.43876900  1
  O  O362  1  0.30527693  0.24963731  0.68785024  1
  O  O363  1  0.30627793  0.24901799  0.93834449  1
  O  O364  1  0.30542511  0.58358421  0.18826614  1
  O  O365  1  0.30754882  0.58365052  0.43916361  1
  O  O366  1  0.30943863  0.58354576  0.68635060  1
  O  O367  1  0.30550666  0.58376728  0.93787686  1
  O  O368  1  0.30677244  0.91661019  0.18785449  1
  O  O369  1  0.30739451  0.91659512  0.43923194  1
  O  O370  1  0.31029808  0.91646904  0.68752162  1
  O  O371  1  0.30942065  0.91690197  0.93639691  1
  O  O372  1  0.80653785  0.24950473  0.18870381  1
  O  O373  1  0.80915436  0.24994247  0.43751551  1
  O  O374  1  0.80761040  0.24945087  0.68853765  1
  O  O375  1  0.80907261  0.24967218  0.93663041  1
  O  O376  1  0.80584967  0.58429146  0.18801304  1
  O  O377  1  0.80592692  0.58368083  0.43923348  1
  O  O378  1  0.80883978  0.58318083  0.68740846  1
  O  O379  1  0.80719382  0.58346192  0.93799169  1
  O  O380  1  0.80548205  0.91656925  0.18778844  1
  O  O381  1  0.80587083  0.91646814  0.43978670  1
  O  O382  1  0.80785699  0.91728245  0.68749411  1
  O  O383  1  0.80523063  0.91703178  0.93770516  1
  O  O384  1  0.23445677  0.25019368  0.04054947  1
  O  O385  1  0.23266966  0.24967638  0.28756109  1
  O  O386  1  0.23168374  0.24931626  0.54037677  1
  O  O387  1  0.23173217  0.24957882  0.78933942  1
  O  O388  1  0.23255712  0.58323066  0.03972666  1
  O  O389  1  0.23226935  0.58349090  0.29020851  1
  O  O390  1  0.23450002  0.58316386  0.54068554  1
  O  O391  1  0.23334961  0.58297414  0.78610538  1
  O  O392  1  0.23585704  0.91679097  0.03783200  1
  O  O393  1  0.23396423  0.91640496  0.29004762  1
  O  O394  1  0.23505464  0.91718966  0.54133803  1
  O  O395  1  0.23468453  0.91712784  0.78756034  1
  O  O396  1  0.73307407  0.24940495  0.03662042  1
  O  O397  1  0.73466254  0.25013958  0.29146472  1
  O  O398  1  0.73515032  0.25012666  0.53864656  1
  O  O399  1  0.73501781  0.24992129  0.79028823  1
  O  O400  1  0.73353797  0.58355946  0.03920181  1
  O  O401  1  0.73192807  0.58371049  0.28961008  1
  O  O402  1  0.73242187  0.58317000  0.54053769  1
  O  O403  1  0.73461342  0.58274378  0.78818692  1
  O  O404  1  0.73075360  0.91738030  0.03851908  1
  O  O405  1  0.73359771  0.91666426  0.29055090  1
  O  O406  1  0.73168987  0.91621308  0.54055406  1
  O  O407  1  0.73214655  0.91745437  0.78732418  1
  O  O408  1  0.26566039  0.08317704  0.20904313  1
  O  O409  1  0.26678383  0.08324683  0.46238745  1
  O  O410  1  0.26631777  0.08303891  0.71225984  1
  O  O411  1  0.26682500  0.08346737  0.96203315  1
  O  O412  1  0.26746062  0.41716616  0.21054452  1
  O  O413  1  0.26505226  0.41625953  0.46232167  1
  O  O414  1  0.26580600  0.41621539  0.71123337  1
  O  O415  1  0.26755693  0.41651687  0.95949789  1
  O  O416  1  0.26773149  0.74955600  0.20969234  1
  O  O417  1  0.26709034  0.75009541  0.46053280  1
  O  O418  1  0.26694183  0.75029456  0.70937705  1
  O  O419  1  0.26791460  0.74984245  0.96177541  1
  O  O420  1  0.76751023  0.08345398  0.20961751  1
  O  O421  1  0.76514332  0.08285751  0.46297127  1
  O  O422  1  0.76586588  0.08375528  0.71218047  1
  O  O423  1  0.76387194  0.08333002  0.96062221  1
  O  O424  1  0.76671163  0.41661079  0.20893578  1
  O  O425  1  0.76701768  0.41756270  0.46280705  1
  O  O426  1  0.76824464  0.41583658  0.71078293  1
  O  O427  1  0.76631186  0.41633458  0.95942386  1
  O  O428  1  0.76591921  0.75041425  0.21117596  1
  O  O429  1  0.76354897  0.74972655  0.46214823  1
  O  O430  1  0.76372360  0.75017693  0.71205989  1
  O  O431  1  0.76406001  0.75016083  0.96040824  1
  O  O432  1  0.01727588  0.08305142  0.16446568  1
  O  O433  1  0.01508140  0.08346622  0.41376853  1
  O  O434  1  0.01736724  0.08347012  0.66488438  1
  O  O435  1  0.01747275  0.08360288  0.91196165  1
  O  O436  1  0.01740418  0.41660584  0.16509551  1
  O  O437  1  0.01531186  0.41671275  0.41649546  1
  O  O438  1  0.01658363  0.41632019  0.66286137  1
  O  O439  1  0.01835662  0.41566822  0.91237917  1
  O  O440  1  0.01776115  0.75054696  0.16438946  1
  O  O441  1  0.01492690  0.74988736  0.41353915  1
  O  O442  1  0.01554557  0.75002684  0.66546818  1
  O  O443  1  0.01713782  0.75002897  0.91429929  1
  O  O444  1  0.51754219  0.08364208  0.16245157  1
  O  O445  1  0.51562818  0.08359818  0.41577028  1
  O  O446  1  0.51618543  0.08339022  0.66329904  1
  O  O447  1  0.51582453  0.08296839  0.91201095  1
  O  O448  1  0.51408814  0.41603292  0.16311365  1
  O  O449  1  0.51540927  0.41697374  0.41224097  1
  O  O450  1  0.51743980  0.41679035  0.66545040  1
  O  O451  1  0.51404319  0.41673809  0.91306722  1
  O  O452  1  0.51681728  0.75056124  0.16281559  1
  O  O453  1  0.51772119  0.74981396  0.41195172  1
  O  O454  1  0.51867150  0.75003559  0.66439391  1
  O  O455  1  0.51724814  0.75071280  0.91509536  1
  O  O456  1  0.48255556  0.24997083  0.08441320  1
  O  O457  1  0.48295663  0.24954987  0.33468425  1
  O  O458  1  0.48357255  0.25075789  0.58499808  1
  O  O459  1  0.48388464  0.24926636  0.83630786  1
  O  O460  1  0.48404844  0.58350547  0.08704332  1
  O  O461  1  0.48567748  0.58324094  0.33569690  1
  O  O462  1  0.48305366  0.58308920  0.58415652  1
  O  O463  1  0.48309886  0.58420427  0.83481454  1
  O  O464  1  0.48467172  0.91710027  0.08437029  1
  O  O465  1  0.48498824  0.91688945  0.33602299  1
  O  O466  1  0.48373084  0.91687094  0.58704954  1
  O  O467  1  0.48361976  0.91702273  0.83635401  1
  O  O468  1  0.98507188  0.24912827  0.08639595  1
  O  O469  1  0.98376662  0.25008212  0.33712813  1
  O  O470  1  0.98586510  0.24937332  0.58709208  1
  O  O471  1  0.98388806  0.24978976  0.83433610  1
  O  O472  1  0.98627342  0.58353300  0.08600268  1
  O  O473  1  0.98384063  0.58327341  0.33437992  1
  O  O474  1  0.98260706  0.58329086  0.58783331  1
  O  O475  1  0.98652575  0.58303676  0.83667608  1
  O  O476  1  0.98399698  0.91661693  0.08351755  1
  O  O477  1  0.98313844  0.91674075  0.33532720  1
  O  O478  1  0.98242513  0.91726712  0.58782639  1
  O  O479  1  0.98475155  0.91720517  0.83449154  1
  O  O480  1  0.08869745  0.31390981  0.07770977  1
  O  O481  1  0.08751728  0.31510916  0.32758206  1
  O  O482  1  0.08942917  0.31453680  0.57813270  1
  O  O483  1  0.08809465  0.31455497  0.82673000  1
  O  O484  1  0.08939998  0.65026709  0.07792630  1
  O  O485  1  0.08800843  0.64815332  0.32691323  1
  O  O486  1  0.08637397  0.64771369  0.57770432  1
  O  O487  1  0.09060730  0.64723287  0.82693020  1
  O  O488  1  0.08778666  0.98184275  0.07768757  1
  O  O489  1  0.08696917  0.98162281  0.32750035  1
  O  O490  1  0.08592971  0.98296070  0.57799751  1
  O  O491  1  0.08872340  0.98261898  0.82679467  1
  O  O492  1  0.58678032  0.31437710  0.07580015  1
  O  O493  1  0.58636512  0.31524577  0.32648428  1
  O  O494  1  0.58744540  0.31577020  0.57820095  1
  O  O495  1  0.58741395  0.31426928  0.82737644  1
  O  O496  1  0.58758729  0.64894659  0.07876027  1
  O  O497  1  0.58927612  0.64892568  0.32750424  1
  O  O498  1  0.58746568  0.64738262  0.57729945  1
  O  O499  1  0.58699210  0.64926658  0.82833567  1
  O  O500  1  0.58859480  0.98199921  0.07709914  1
  O  O501  1  0.58858536  0.98149834  0.32816103  1
  O  O502  1  0.58728579  0.98248673  0.57798226  1
  O  O503  1  0.58744402  0.98201570  0.82721679  1
  O  O504  1  0.41377608  0.01937317  0.17212492  1
  O  O505  1  0.41176921  0.01849771  0.42353039  1
  O  O506  1  0.41250557  0.01791132  0.67259136  1
  O  O507  1  0.41239928  0.01730660  0.92207741  1
  O  O508  1  0.41058368  0.35023901  0.17162397  1
  O  O509  1  0.41206901  0.35152140  0.42227999  1
  O  O510  1  0.41271993  0.35283936  0.67359430  1
  O  O511  1  0.41027515  0.35176312  0.92246139  1
  O  O512  1  0.41319800  0.68507553  0.17360937  1
  O  O513  1  0.41428289  0.68479686  0.42224753  1
  O  O514  1  0.41504055  0.68450573  0.67213906  1
  O  O515  1  0.41302492  0.68635169  0.92365716  1
  O  O516  1  0.91324226  0.01783952  0.17274406  1
  O  O517  1  0.91109862  0.01939164  0.42252744  1
  O  O518  1  0.91333588  0.01754480  0.67385537  1
  O  O519  1  0.91348840  0.01936197  0.92230787  1
  O  O520  1  0.91348196  0.35174682  0.17200136  1
  O  O521  1  0.91184726  0.35056191  0.42304767  1
  O  O522  1  0.91253735  0.35237305  0.67304226  1
  O  O523  1  0.91476495  0.35002112  0.92164519  1
  O  O524  1  0.91389335  0.68518643  0.17343879  1
  O  O525  1  0.91147155  0.68454391  0.42244383  1
  O  O526  1  0.91178150  0.68493509  0.67270363  1
  O  O527  1  0.91344621  0.68506016  0.92277677  1
  O  O528  1  0.16157353  0.01866315  0.20145935  1
  O  O529  1  0.16314457  0.01853045  0.45284361  1
  O  O530  1  0.16271711  0.01763517  0.70243570  1
  O  O531  1  0.16310952  0.01833356  0.95150983  1
  O  O532  1  0.16401857  0.35154806  0.20259848  1
  O  O533  1  0.16174165  0.35048812  0.45403153  1
  O  O534  1  0.16179928  0.35122930  0.70262361  1
  O  O535  1  0.16315315  0.35242382  0.95129563  1
  O  O536  1  0.16355162  0.68436068  0.20225061  1
  O  O537  1  0.16317078  0.68521462  0.45286514  1
  O  O538  1  0.16279063  0.68564275  0.70245827  1
  O  O539  1  0.16426589  0.68449946  0.95291622  1
  O  O540  1  0.66303953  0.01910771  0.20171623  1
  O  O541  1  0.66192173  0.01713857  0.45418037  1
  O  O542  1  0.66189262  0.01820943  0.70256171  1
  O  O543  1  0.65979342  0.01878624  0.95228026  1
  O  O544  1  0.66266093  0.35220967  0.20221037  1
  O  O545  1  0.66353718  0.35256911  0.45251399  1
  O  O546  1  0.66409859  0.35122055  0.70119381  1
  O  O547  1  0.66282527  0.35030174  0.95192423  1
  O  O548  1  0.66246368  0.68405645  0.20246441  1
  O  O549  1  0.65985944  0.68478619  0.45377868  1
  O  O550  1  0.65976673  0.68590750  0.70261947  1
  O  O551  1  0.65981049  0.68614757  0.95199272  1
  O  O552  1  0.33874252  0.31445237  0.04702639  1
  O  O553  1  0.33590801  0.31557740  0.29683133  1
  O  O554  1  0.33559503  0.31394295  0.54826257  1
  O  O555  1  0.33561690  0.31487131  0.79691731  1
  O  O556  1  0.33652150  0.64818871  0.04749306  1
  O  O557  1  0.33623613  0.64879178  0.29731550  1
  O  O558  1  0.33859191  0.64832470  0.54860194  1
  O  O559  1  0.33691286  0.64765409  0.79693613  1
  O  O560  1  0.33913918  0.98232986  0.04610936  1
  O  O561  1  0.33799306  0.98074088  0.29709447  1
  O  O562  1  0.33879511  0.98285947  0.54808862  1
  O  O563  1  0.33832083  0.98266617  0.79731493  1
  O  O564  1  0.83669839  0.31468590  0.04685372  1
  O  O565  1  0.83949150  0.31352561  0.29778553  1
  O  O566  1  0.83854987  0.31597202  0.54694901  1
  O  O567  1  0.83935746  0.31455383  0.79759939  1
  O  O568  1  0.83717611  0.64864612  0.04748152  1
  O  O569  1  0.83509280  0.64994789  0.29759691  1
  O  O570  1  0.83636464  0.64800863  0.54906359  1
  O  O571  1  0.83824999  0.64739557  0.79751864  1
  O  O572  1  0.83488637  0.98185725  0.04719966  1
  O  O573  1  0.83719609  0.98195847  0.29664689  1
  O  O574  1  0.83591184  0.98104950  0.54958688  1
  O  O575  1  0.83558452  0.98327176  0.79745205  1
  O  O576  1  0.41405149  0.14947027  0.17163905  1
  O  O577  1  0.41147826  0.14839997  0.42372660  1
  O  O578  1  0.41217683  0.14796618  0.67344731  1
  O  O579  1  0.41177119  0.14726321  0.92279677  1
  O  O580  1  0.41021838  0.48049603  0.17295242  1
  O  O581  1  0.41181068  0.48162433  0.42196686  1
  O  O582  1  0.41354707  0.48283299  0.67265027  1
  O  O583  1  0.41040746  0.48184131  0.92259887  1
  O  O584  1  0.41284492  0.81504700  0.17299094  1
  O  O585  1  0.41431157  0.81488011  0.42226549  1
  O  O586  1  0.41470040  0.81468270  0.67234666  1
  O  O587  1  0.41350972  0.81637564  0.92279030  1
  O  O588  1  0.91316167  0.14778658  0.17306381  1
  O  O589  1  0.91205435  0.14961744  0.42205579  1
  O  O590  1  0.91295042  0.14742958  0.67376242  1
  O  O591  1  0.91418580  0.14957380  0.92168352  1
  O  O592  1  0.91375715  0.48193516  0.17239344  1
  O  O593  1  0.91083587  0.48072813  0.42347356  1
  O  O594  1  0.91312150  0.48243880  0.67325583  1
  O  O595  1  0.91466049  0.48029177  0.92232766  1
  O  O596  1  0.91332209  0.81519310  0.17287931  1
  O  O597  1  0.91111235  0.81467174  0.42248033  1
  O  O598  1  0.91177368  0.81532750  0.67265768  1
  O  O599  1  0.91341170  0.81540750  0.92267786  1
  O  O600  1  0.08855000  0.18367059  0.07859811  1
  O  O601  1  0.08767673  0.18516826  0.32737630  1
  O  O602  1  0.08941018  0.18410710  0.57811564  1
  O  O603  1  0.08790666  0.18458856  0.82683981  1
  O  O604  1  0.09069557  0.52000899  0.07706955  1
  O  O605  1  0.08780958  0.51826085  0.32700908  1
  O  O606  1  0.08597789  0.51750727  0.57814982  1
  O  O607  1  0.08984474  0.51707519  0.82767652  1
  O  O608  1  0.08801380  0.85153525  0.07762639  1
  O  O609  1  0.08682775  0.85156603  0.32731397  1
  O  O610  1  0.08615434  0.85269565  0.57746964  1
  O  O611  1  0.08900115  0.85263156  0.82611145  1
  O  O612  1  0.58658492  0.18441201  0.07638357  1
  O  O613  1  0.58696455  0.18509467  0.32702297  1
  O  O614  1  0.58723943  0.18533719  0.57820071  1
  O  O615  1  0.58751436  0.18410701  0.82817507  1
  O  O616  1  0.58747820  0.51862674  0.07776601  1
  O  O617  1  0.58963490  0.51882832  0.32661855  1
  O  O618  1  0.58674340  0.51715593  0.57702916  1
  O  O619  1  0.58678599  0.51912639  0.82705991  1
  O  O620  1  0.58840895  0.85179593  0.07739211  1
  O  O621  1  0.58842354  0.85129670  0.32852328  1
  O  O622  1  0.58781405  0.85232023  0.57825885  1
  O  O623  1  0.58743104  0.85191192  0.82772223  1
  O  O624  1  0.33810486  0.18427966  0.04772209  1
  O  O625  1  0.33645713  0.18529019  0.29715918  1
  O  O626  1  0.33545489  0.18388259  0.54810166  1
  O  O627  1  0.33572468  0.18475804  0.79728199  1
  O  O628  1  0.33619653  0.51803173  0.04696537  1
  O  O629  1  0.33621077  0.51854485  0.29749823  1
  O  O630  1  0.33856650  0.51837068  0.54842889  1
  O  O631  1  0.33661209  0.51737688  0.79619205  1
  O  O632  1  0.33951592  0.85192103  0.04602118  1
  O  O633  1  0.33748831  0.85040550  0.29670711  1
  O  O634  1  0.33943893  0.85279287  0.54869277  1
  O  O635  1  0.33879603  0.85259179  0.79784635  1
  O  O636  1  0.83674454  0.18461142  0.04673043  1
  O  O637  1  0.83795680  0.18335163  0.29748112  1
  O  O638  1  0.83892499  0.18584649  0.54766726  1
  O  O639  1  0.83869716  0.18432265  0.79786618  1
  O  O640  1  0.83738754  0.51845899  0.04735768  1
  O  O641  1  0.83609913  0.51967803  0.29740581  1
  O  O642  1  0.83692569  0.51810214  0.54833885  1
  O  O643  1  0.83819770  0.51699628  0.79676638  1
  O  O644  1  0.83436751  0.85184990  0.04736334  1
  O  O645  1  0.83714288  0.85141295  0.29686947  1
  O  O646  1  0.83564353  0.85111599  0.54930296  1
  O  O647  1  0.83591994  0.85303588  0.79787449  1
  O  O648  1  0.16175040  0.14873251  0.20223143  1
  O  O649  1  0.16314529  0.14866893  0.45358144  1
  O  O650  1  0.16222673  0.14771508  0.70283061  1
  O  O651  1  0.16285459  0.14824578  0.95203102  1
  O  O652  1  0.16355643  0.48179623  0.20318198  1
  O  O653  1  0.16140104  0.48082309  0.45329003  1
  O  O654  1  0.16190459  0.48136920  0.70224525  1
  O  O655  1  0.16383100  0.48244851  0.95191977  1
  O  O656  1  0.16374214  0.81436153  0.20103383  1
  O  O657  1  0.16345826  0.81545379  0.45258027  1
  O  O658  1  0.16341853  0.81605758  0.70243836  1
  O  O659  1  0.16428327  0.81462986  0.95203723  1
  O  O660  1  0.66366396  0.14898624  0.20154745  1
  O  O661  1  0.66169533  0.14751683  0.45316424  1
  O  O662  1  0.66185033  0.14814533  0.70215538  1
  O  O663  1  0.66023153  0.14891491  0.95202970  1
  O  O664  1  0.66299192  0.48237735  0.20257843  1
  O  O665  1  0.66333202  0.48272054  0.45359522  1
  O  O666  1  0.66415529  0.48108546  0.70112550  1
  O  O667  1  0.66224388  0.48057789  0.95180815  1
  O  O668  1  0.66141437  0.81398773  0.20224461  1
  O  O669  1  0.66010847  0.81526257  0.45367398  1
  O  O670  1  0.66026766  0.81608859  0.70325266  1
  O  O671  1  0.66060765  0.81624475  0.95247960  1
