# generated using pymatgen
data_Na2MnFe(PO4)2
_symmetry_space_group_name_H-M   'P 1'
_cell_length_a   21.08407974
_cell_length_b   18.93601276
_cell_length_c   20.04272028
_cell_angle_alpha   89.99987612
_cell_angle_beta   89.99609473
_cell_angle_gamma   90.00001159
_symmetry_Int_Tables_number   1
_chemical_formula_structural   Na2MnFe(PO4)2
_chemical_formula_sum   'Na96 Mn48 Fe48 P96 O384'
_cell_volume   8002.02404157
_cell_formula_units_Z   48
loop_
 _symmetry_equiv_pos_site_id
 _symmetry_equiv_pos_as_xyz
  1  'x, y, z'
loop_
 _atom_site_type_symbol
 _atom_site_label
 _atom_site_symmetry_multiplicity
 _atom_site_fract_x
 _atom_site_fract_y
 _atom_site_fract_z
 _atom_site_occupancy
  Na  Na0  1  0.00120687  -0.00030699  -0.00030425  1
  Na  Na1  1  0.00393519  0.00055734  0.25006439  1
  Na  Na2  1  0.00170760  0.00010740  0.49963823  1
  Na  Na3  1  -0.00188971  -0.00153342  0.75031445  1
  Na  Na4  1  0.00008686  0.33314320  -0.00063791  1
  Na  Na5  1  0.00082471  0.33317038  0.25028863  1
  Na  Na6  1  0.00013471  0.33255000  0.50086942  1
  Na  Na7  1  -0.00131661  0.33226677  0.75051141  1
  Na  Na8  1  0.00061627  0.66678683  -0.00031439  1
  Na  Na9  1  -0.00109634  0.66575823  0.24999610  1
  Na  Na10  1  0.00244219  0.66720261  0.50045028  1
  Na  Na11  1  0.00317748  0.66767812  0.75001050  1
  Na  Na12  1  0.49808423  -0.00059950  0.00063629  1
  Na  Na13  1  0.49953089  -0.00042501  0.24943890  1
  Na  Na14  1  0.50138381  0.00061068  0.50008023  1
  Na  Na15  1  0.49951544  0.00006091  0.75030840  1
  Na  Na16  1  0.50017492  0.33390564  -0.00103568  1
  Na  Na17  1  0.50125855  0.33359932  0.24984766  1
  Na  Na18  1  0.49885231  0.33310458  0.49985676  1
  Na  Na19  1  0.49645598  0.33208744  0.75017034  1
  Na  Na20  1  0.50108316  0.66739575  0.00021818  1
  Na  Na21  1  0.49961918  0.66658124  0.24895366  1
  Na  Na22  1  0.49941748  0.66717286  0.49924039  1
  Na  Na23  1  0.49898404  0.66637054  0.75099161  1
  Na  Na24  1  0.24789234  -0.00085743  0.12507870  1
  Na  Na25  1  0.24833306  -0.00058740  0.37427038  1
  Na  Na26  1  0.24883150  -0.00020733  0.62542313  1
  Na  Na27  1  0.24947733  -0.00026467  0.87582280  1
  Na  Na28  1  0.24645244  0.33257462  0.12452170  1
  Na  Na29  1  0.24674648  0.33225415  0.37491076  1
  Na  Na30  1  0.25090139  0.33339398  0.62539781  1
  Na  Na31  1  0.25032237  0.33335363  0.87572944  1
  Na  Na32  1  0.25074880  0.66722462  0.12438607  1
  Na  Na33  1  0.25137122  0.66716556  0.37585493  1
  Na  Na34  1  0.24933273  0.66619496  0.62492111  1
  Na  Na35  1  0.24805070  0.66594075  0.87421623  1
  Na  Na36  1  0.75096983  -0.00046380  0.12489360  1
  Na  Na37  1  0.74820444  -0.00089873  0.37514948  1
  Na  Na38  1  0.75152778  0.00067277  0.62495684  1
  Na  Na39  1  0.75218790  -0.00017860  0.87468600  1
  Na  Na40  1  0.75117318  0.33306680  0.12457561  1
  Na  Na41  1  0.75144505  0.33287526  0.37455584  1
  Na  Na42  1  0.75232939  0.33295427  0.62450067  1
  Na  Na43  1  0.75312521  0.33376500  0.87562046  1
  Na  Na44  1  0.74931665  0.66686197  0.12614249  1
  Na  Na45  1  0.74745047  0.66631757  0.37490779  1
  Na  Na46  1  0.74838671  0.66698349  0.62548989  1
  Na  Na47  1  0.74942681  0.66666152  0.87438144  1
  Na  Na48  1  0.00162019  0.16625736  -0.00050312  1
  Na  Na49  1  0.00135438  0.16702092  0.25030425  1
  Na  Na50  1  0.00045787  0.16726380  0.50092434  1
  Na  Na51  1  0.00002031  0.16697157  0.74978720  1
  Na  Na52  1  0.00125203  0.49977614  -0.00162037  1
  Na  Na53  1  0.00243692  0.49955514  0.25032401  1
  Na  Na54  1  0.00298826  0.49963360  0.50087866  1
  Na  Na55  1  0.00032585  0.50114532  0.75016936  1
  Na  Na56  1  -0.00086755  0.83358100  0.00111894  1
  Na  Na57  1  0.00020164  0.83342643  0.24964020  1
  Na  Na58  1  0.00068333  0.83339340  0.49923329  1
  Na  Na59  1  -0.00028178  0.83350210  0.75075046  1
  Na  Na60  1  0.49910999  0.16710957  0.00010754  1
  Na  Na61  1  0.50074383  0.16602378  0.24948208  1
  Na  Na62  1  0.50056421  0.16624252  0.49960282  1
  Na  Na63  1  0.49922585  0.16699794  0.75006267  1
  Na  Na64  1  0.50101052  0.49965253  -0.00062620  1
  Na  Na65  1  0.50082680  0.50003564  0.24944282  1
  Na  Na66  1  0.49773694  0.50079088  0.50004469  1
  Na  Na67  1  0.49674524  0.50090533  0.75128424  1
  Na  Na68  1  0.49825167  0.83398011  -0.00000977  1
  Na  Na69  1  0.50018235  0.83327879  0.24954184  1
  Na  Na70  1  0.50080500  0.83281540  0.49952631  1
  Na  Na71  1  0.49927444  0.83314280  0.75033375  1
  Na  Na72  1  0.24648886  0.16703602  0.12471164  1
  Na  Na73  1  0.24643459  0.16759811  0.37488189  1
  Na  Na74  1  0.24843369  0.16712194  0.62607486  1
  Na  Na75  1  0.24768313  0.16719854  0.87527328  1
  Na  Na76  1  0.24738505  0.50119789  0.12499304  1
  Na  Na77  1  0.25027344  0.49992643  0.37465377  1
  Na  Na78  1  0.25044932  0.50061235  0.62449925  1
  Na  Na79  1  0.25074254  0.49999384  0.87530610  1
  Na  Na80  1  0.25017356  0.83407379  0.12430795  1
  Na  Na81  1  0.24998844  0.83395729  0.37555355  1
  Na  Na82  1  0.25018742  0.83324258  0.62510812  1
  Na  Na83  1  0.25037961  0.83307877  0.87506500  1
  Na  Na84  1  0.75141828  0.16687914  0.12573279  1
  Na  Na85  1  0.75043079  0.16680378  0.37483635  1
  Na  Na86  1  0.75162294  0.16655989  0.62410001  1
  Na  Na87  1  0.75291512  0.16620844  0.87467189  1
  Na  Na88  1  0.74812130  0.50116610  0.12472028  1
  Na  Na89  1  0.74839120  0.50069298  0.37444242  1
  Na  Na90  1  0.75158882  0.49907675  0.62514865  1
  Na  Na91  1  0.75037392  0.49998024  0.87577776  1
  Na  Na92  1  0.75165235  0.83273987  0.12529264  1
  Na  Na93  1  0.74851476  0.83348527  0.37527268  1
  Na  Na94  1  0.74892114  0.83337581  0.62566894  1
  Na  Na95  1  0.75134925  0.83318017  0.87421075  1
  Mn  Mn96  1  0.64274954  0.24992686  0.74803026  1
  Mn  Mn97  1  0.35627254  0.08355870  0.25237119  1
  Mn  Mn98  1  0.35694936  0.75005918  0.00146941  1
  Mn  Mn99  1  0.10793113  0.41674522  0.87160668  1
  Mn  Mn100  1  0.64167009  0.91682529  0.49809801  1
  Mn  Mn101  1  0.14205829  0.91619665  0.74789679  1
  Mn  Mn102  1  0.89290980  0.58390643  0.87713934  1
  Mn  Mn103  1  0.89324920  0.58398251  0.62721781  1
  Mn  Mn104  1  0.64317104  0.24992728  0.99733910  1
  Mn  Mn105  1  0.85939768  0.08256362  0.00289096  1
  Mn  Mn106  1  0.60771657  0.41664692  0.37258388  1
  Mn  Mn107  1  0.60777295  0.08381401  0.12218090  1
  Mn  Mn108  1  0.64237400  0.25037791  0.49828083  1
  Mn  Mn109  1  0.60748764  0.75002924  0.12205247  1
  Mn  Mn110  1  0.39125960  0.24999295  0.12728509  1
  Mn  Mn111  1  0.85812845  0.74958637  0.75208123  1
  Mn  Mn112  1  0.85877964  0.08269872  0.25245501  1
  Mn  Mn113  1  0.64291838  0.25000034  0.24756487  1
  Mn  Mn114  1  0.85900471  0.41737815  0.50195220  1
  Mn  Mn115  1  0.35722533  0.41585013  0.50173316  1
  Mn  Mn116  1  0.35599546  0.08352074  0.00205549  1
  Mn  Mn117  1  0.64256382  0.91750394  0.74829795  1
  Mn  Mn118  1  0.85837234  0.41726959  0.25194251  1
  Mn  Mn119  1  0.35771517  0.08330898  0.75259262  1
  Mn  Mn120  1  0.85817698  0.41809143  0.00305657  1
  Mn  Mn121  1  0.64082948  0.58261046  0.49850758  1
  Mn  Mn122  1  0.60722721  0.41634547  0.87209454  1
  Mn  Mn123  1  0.10735662  0.08256154  0.62302681  1
  Mn  Mn124  1  0.85840780  0.08269133  0.50164987  1
  Mn  Mn125  1  0.39129284  0.24951353  0.37676996  1
  Mn  Mn126  1  0.85704463  0.74984845  0.25245054  1
  Mn  Mn127  1  0.60706072  0.41648775  0.62341846  1
  Mn  Mn128  1  0.10866845  0.74996668  0.37211822  1
  Mn  Mn129  1  0.85736747  0.74980608  0.50228823  1
  Mn  Mn130  1  0.35672182  0.41650260  0.00301474  1
  Mn  Mn131  1  0.10758355  0.74944895  0.12267473  1
  Mn  Mn132  1  0.35701159  0.41667023  0.25157898  1
  Mn  Mn133  1  0.60783203  0.08327920  0.87291079  1
  Mn  Mn134  1  0.14246962  0.58418686  0.24749892  1
  Mn  Mn135  1  0.39204155  0.91694473  0.62710339  1
  Mn  Mn136  1  0.89290593  0.91704522  0.37709347  1
  Mn  Mn137  1  0.89217688  0.58274593  0.37758939  1
  Mn  Mn138  1  0.35720603  0.08374618  0.50156457  1
  Mn  Mn139  1  0.39235969  0.58323998  0.12674780  1
  Mn  Mn140  1  0.35775253  0.75049783  0.50240634  1
  Mn  Mn141  1  0.10831589  0.41713273  0.62332572  1
  Mn  Mn142  1  0.64156031  0.58233429  0.74769716  1
  Mn  Mn143  1  0.64274876  0.91624870  0.99775763  1
  Fe  Fe144  1  0.39171842  0.91704584  0.12728941  1
  Fe  Fe145  1  0.10656816  0.08263580  0.87281788  1
  Fe  Fe146  1  0.60787248  0.41609332  0.12315506  1
  Fe  Fe147  1  0.89337639  0.91641512  0.87716524  1
  Fe  Fe148  1  0.85770959  0.74939211  0.00133425  1
  Fe  Fe149  1  0.14148940  0.25015788  0.99718937  1
  Fe  Fe150  1  0.39157733  0.58328013  0.62692372  1
  Fe  Fe151  1  0.64209002  0.91678340  0.24773059  1
  Fe  Fe152  1  0.89302625  0.91630861  0.62614707  1
  Fe  Fe153  1  0.10825412  0.75074876  0.62362396  1
  Fe  Fe154  1  0.14355640  0.58318300  0.49790107  1
  Fe  Fe155  1  0.39225377  0.58377459  0.87744665  1
  Fe  Fe156  1  0.10730004  0.75076688  0.87325639  1
  Fe  Fe157  1  0.60784308  0.08358987  0.62372000  1
  Fe  Fe158  1  0.14210267  0.91600109  0.99792229  1
  Fe  Fe159  1  0.10687857  0.41686890  0.12320015  1
  Fe  Fe160  1  0.35770756  0.75035915  0.25153377  1
  Fe  Fe161  1  0.39282171  0.91688704  0.37632269  1
  Fe  Fe162  1  0.64180287  0.58331676  0.24786093  1
  Fe  Fe163  1  0.89431298  0.25006202  0.37635492  1
  Fe  Fe164  1  0.60729997  0.08294611  0.37287359  1
  Fe  Fe165  1  0.64303461  0.58388480  0.99819042  1
  Fe  Fe166  1  0.85820270  0.41657598  0.75144725  1
  Fe  Fe167  1  0.14404498  0.58304163  0.74821721  1
  Fe  Fe168  1  0.89258395  0.58302937  0.12649958  1
  Fe  Fe169  1  0.14119890  0.24987890  0.24775046  1
  Fe  Fe170  1  0.60631232  0.74998822  0.62404138  1
  Fe  Fe171  1  0.10710602  0.08333638  0.12289542  1
  Fe  Fe172  1  0.35707314  0.41686525  0.75151531  1
  Fe  Fe173  1  0.60694224  0.75028749  0.87361051  1
  Fe  Fe174  1  0.39164901  0.24980247  0.62669550  1
  Fe  Fe175  1  0.39158399  0.24942010  0.87723764  1
  Fe  Fe176  1  0.14219148  0.91667053  0.49800752  1
  Fe  Fe177  1  0.35725515  0.74971780  0.75195170  1
  Fe  Fe178  1  0.14177814  0.58392656  0.99794152  1
  Fe  Fe179  1  0.60627383  0.75058691  0.37316250  1
  Fe  Fe180  1  0.14188565  0.25015392  0.49875502  1
  Fe  Fe181  1  0.89326234  0.24969101  0.62730205  1
  Fe  Fe182  1  0.14340924  0.91613905  0.24787854  1
  Fe  Fe183  1  0.10780843  0.08367479  0.37347842  1
  Fe  Fe184  1  0.89426539  0.25005548  0.12640587  1
  Fe  Fe185  1  0.85810202  0.08372122  0.75159259  1
  Fe  Fe186  1  0.89371000  0.91674411  0.12744881  1
  Fe  Fe187  1  0.39291029  0.58365126  0.37590728  1
  Fe  Fe188  1  0.14314097  0.25076797  0.74844765  1
  Fe  Fe189  1  0.39232999  0.91678047  0.87680637  1
  Fe  Fe190  1  0.10780652  0.41657098  0.37326214  1
  Fe  Fe191  1  0.89388230  0.24939387  0.87656476  1
  P  P192  1  0.05415101  0.25018463  0.11048758  1
  P  P193  1  0.05479138  0.25014393  0.36119316  1
  P  P194  1  0.05425381  0.25022205  0.61143085  1
  P  P195  1  0.05435861  0.24918994  0.86016808  1
  P  P196  1  0.05256400  0.58276937  0.10932962  1
  P  P197  1  0.05485544  0.58277774  0.36111268  1
  P  P198  1  0.05647191  0.58441829  0.61098030  1
  P  P199  1  0.05570693  0.58458221  0.86016237  1
  P  P200  1  0.05444011  0.91667782  0.11076990  1
  P  P201  1  0.05574648  0.91720241  0.36014126  1
  P  P202  1  0.05300861  0.91574083  0.60971582  1
  P  P203  1  0.05348741  0.91625612  0.86155163  1
  P  P204  1  0.55330792  0.25080374  0.10941944  1
  P  P205  1  0.55325440  0.24912292  0.35989652  1
  P  P206  1  0.55178932  0.24965103  0.61044955  1
  P  P207  1  0.55169238  0.24995623  0.85987948  1
  P  P208  1  0.55524441  0.58245946  0.10994384  1
  P  P209  1  0.55250855  0.58429273  0.35939612  1
  P  P210  1  0.55091603  0.58365906  0.61070360  1
  P  P211  1  0.55324355  0.58413879  0.86154349  1
  P  P212  1  0.55273608  0.91670412  0.11062410  1
  P  P213  1  0.55283975  0.91678497  0.35942773  1
  P  P214  1  0.55322833  0.91673518  0.61064507  1
  P  P215  1  0.55215236  0.91606868  0.86046805  1
  P  P216  1  0.44559129  0.08292180  0.13993244  1
  P  P217  1  0.44733338  0.08225301  0.38947783  1
  P  P218  1  0.44755594  0.08405541  0.63974133  1
  P  P219  1  0.44596597  0.08322281  0.89032726  1
  P  P220  1  0.44779481  0.41665470  0.13976802  1
  P  P221  1  0.44621478  0.41737773  0.38941516  1
  P  P222  1  0.44507427  0.41658147  0.64054828  1
  P  P223  1  0.44394679  0.41669856  0.88889299  1
  P  P224  1  0.44528829  0.75072498  0.14002036  1
  P  P225  1  0.44589811  0.75050527  0.38808852  1
  P  P226  1  0.44642553  0.74944711  0.64063873  1
  P  P227  1  0.44594334  0.74998371  0.88889681  1
  P  P228  1  0.94860760  0.08303455  0.14001134  1
  P  P229  1  0.94883110  0.08392269  0.38981230  1
  P  P230  1  0.94620495  0.08277181  0.64024617  1
  P  P231  1  0.94680843  0.08327891  0.88858266  1
  P  P232  1  0.94816676  0.41717924  0.13966669  1
  P  P233  1  0.94876617  0.41615457  0.39003961  1
  P  P234  1  0.94688766  0.41642349  0.64085318  1
  P  P235  1  0.94563532  0.41611213  0.88859036  1
  P  P236  1  0.94525926  0.74941695  0.13879729  1
  P  P237  1  0.94693162  0.74983736  0.39003710  1
  P  P238  1  0.94852905  0.75069840  0.63983585  1
  P  P239  1  0.94744707  0.75043261  0.89054468  1
  P  P240  1  0.19380852  0.08308908  0.23548619  1
  P  P241  1  0.19543645  0.08333645  0.48479672  1
  P  P242  1  0.19515217  0.08367955  0.73662622  1
  P  P243  1  0.19315424  0.08281953  0.98557402  1
  P  P244  1  0.19429225  0.41624122  0.23515731  1
  P  P245  1  0.19583433  0.41664445  0.48482714  1
  P  P246  1  0.19817741  0.41682032  0.73531372  1
  P  P247  1  0.19420640  0.41702741  0.98603681  1
  P  P248  1  0.19847197  0.75082187  0.23471274  1
  P  P249  1  0.19551965  0.75011373  0.48640405  1
  P  P250  1  0.19644678  0.74950874  0.73576429  1
  P  P251  1  0.19538243  0.75023218  0.98429426  1
  P  P252  1  0.69583906  0.08241888  0.23578067  1
  P  P253  1  0.69503554  0.08359178  0.48524977  1
  P  P254  1  0.69816006  0.08367313  0.73448893  1
  P  P255  1  0.69799979  0.08300681  0.98460089  1
  P  P256  1  0.69633822  0.41698614  0.23406849  1
  P  P257  1  0.69710308  0.41636541  0.48480361  1
  P  P258  1  0.69840975  0.41589449  0.73496459  1
  P  P259  1  0.69568484  0.41738579  0.98586350  1
  P  P260  1  0.69421034  0.75051381  0.23630929  1
  P  P261  1  0.69390028  0.74977664  0.48560647  1
  P  P262  1  0.69462416  0.75019624  0.73574023  1
  P  P263  1  0.69745429  0.74959962  0.98438087  1
  P  P264  1  0.30171562  0.24964142  0.01418503  1
  P  P265  1  0.30044730  0.25004114  0.26472968  1
  P  P266  1  0.30165010  0.24945896  0.51542764  1
  P  P267  1  0.30369857  0.25043811  0.76476019  1
  P  P268  1  0.30249645  0.58360730  0.01380349  1
  P  P269  1  0.30394847  0.58425634  0.26523210  1
  P  P270  1  0.30426354  0.58340398  0.51415027  1
  P  P271  1  0.30436126  0.58365882  0.76430246  1
  P  P272  1  0.30325420  0.91681456  0.01433297  1
  P  P273  1  0.30386083  0.91616506  0.26445475  1
  P  P274  1  0.30279835  0.91735535  0.51380079  1
  P  P275  1  0.30383296  0.91586464  0.76562766  1
  P  P276  1  0.80633717  0.24980747  0.01481282  1
  P  P277  1  0.80651484  0.24995021  0.26443019  1
  P  P278  1  0.80627725  0.24980109  0.51411807  1
  P  P279  1  0.80606742  0.24981060  0.76435422  1
  P  P280  1  0.80296999  0.58479584  0.01561514  1
  P  P281  1  0.80281614  0.58329764  0.26407375  1
  P  P282  1  0.80275143  0.58365660  0.51552194  1
  P  P283  1  0.80350162  0.58267797  0.76508785  1
  P  P284  1  0.80605085  0.91525084  0.01466186  1
  P  P285  1  0.80325438  0.91660553  0.26438960  1
  P  P286  1  0.80374836  0.91635175  0.51572610  1
  P  P287  1  0.80598365  0.91733968  0.76424707  1
  O  O288  1  0.05791954  0.25021718  0.18729110  1
  O  O289  1  0.05856194  0.25008423  0.43797362  1
  O  O290  1  0.05940067  0.25062341  0.68808738  1
  O  O291  1  0.05839732  0.25027633  0.93696078  1
  O  O292  1  0.05638026  0.58388640  0.18606542  1
  O  O293  1  0.05924696  0.58365518  0.43784693  1
  O  O294  1  0.06070148  0.58331434  0.68780246  1
  O  O295  1  0.05913037  0.58349382  0.93696129  1
  O  O296  1  0.05933450  0.91553488  0.18743969  1
  O  O297  1  0.05940618  0.91626418  0.43696439  1
  O  O298  1  0.05644058  0.91616776  0.68649435  1
  O  O299  1  0.05767348  0.91604646  0.93820391  1
  O  O300  1  0.55692904  0.25001389  0.18616935  1
  O  O301  1  0.55628356  0.24989477  0.43665951  1
  O  O302  1  0.55581410  0.25024933  0.68711795  1
  O  O303  1  0.55650234  0.25020377  0.93649179  1
  O  O304  1  0.55899580  0.58333477  0.18675684  1
  O  O305  1  0.55543491  0.58350592  0.43617906  1
  O  O306  1  0.55476887  0.58275370  0.68741351  1
  O  O307  1  0.55851829  0.58368845  0.93816543  1
  O  O308  1  0.55790310  0.91665781  0.18722760  1
  O  O309  1  0.55618681  0.91678377  0.43618028  1
  O  O310  1  0.55598931  0.91689801  0.68737002  1
  O  O311  1  0.55594900  0.91654654  0.93716574  1
  O  O312  1  0.44179139  0.08353101  0.06320865  1
  O  O313  1  0.44294210  0.08300207  0.31284169  1
  O  O314  1  0.44371842  0.08355063  0.56306365  1
  O  O315  1  0.44340107  0.08345209  0.81352696  1
  O  O316  1  0.44346374  0.41666906  0.06302993  1
  O  O317  1  0.44319151  0.41658484  0.31266032  1
  O  O318  1  0.44253705  0.41655072  0.56371740  1
  O  O319  1  0.43968655  0.41670248  0.81212238  1
  O  O320  1  0.44203027  0.75017179  0.06321919  1
  O  O321  1  0.44170164  0.75047212  0.31145153  1
  O  O322  1  0.44310598  0.75011307  0.56375865  1
  O  O323  1  0.44147761  0.74959864  0.81225015  1
  O  O324  1  0.94535547  0.08276857  0.06328705  1
  O  O325  1  0.94530312  0.08303230  0.31312192  1
  O  O326  1  0.94401988  0.08291933  0.56344357  1
  O  O327  1  0.94257599  0.08329863  0.81193927  1
  O  O328  1  0.94475914  0.41742623  0.06291848  1
  O  O329  1  0.94496134  0.41713788  0.31334608  1
  O  O330  1  0.94450884  0.41711598  0.56403219  1
  O  O331  1  0.94165753  0.41716675  0.81188226  1
  O  O332  1  0.94177753  0.74923486  0.06210383  1
  O  O333  1  0.94312186  0.74976026  0.31322179  1
  O  O334  1  0.94456886  0.74985628  0.56319653  1
  O  O335  1  0.94393517  0.74953595  0.81380895  1
  O  O336  1  0.18964816  0.08286640  0.06249073  1
  O  O337  1  0.19056696  0.08337773  0.31230149  1
  O  O338  1  0.19293666  0.08311202  0.56164761  1
  O  O339  1  0.19094955  0.08279985  0.81337724  1
  O  O340  1  0.19016652  0.41710904  0.06281614  1
  O  O341  1  0.19083549  0.41676466  0.31196401  1
  O  O342  1  0.19366086  0.41660262  0.56162344  1
  O  O343  1  0.19463405  0.41669981  0.81203997  1
  O  O344  1  0.19292871  0.75029629  0.06117243  1
  O  O345  1  0.19491831  0.75018088  0.31139577  1
  O  O346  1  0.19202566  0.75053168  0.56315553  1
  O  O347  1  0.19162116  0.75071219  0.81240608  1
  O  O348  1  0.69423570  0.08322334  0.06138936  1
  O  O349  1  0.69138391  0.08292485  0.31256058  1
  O  O350  1  0.69065380  0.08373119  0.56205387  1
  O  O351  1  0.69401124  0.08349723  0.81121214  1
  O  O352  1  0.69152275  0.41629766  0.06257409  1
  O  O353  1  0.69338275  0.41610194  0.31090467  1
  O  O354  1  0.69346045  0.41611618  0.56156617  1
  O  O355  1  0.69403281  0.41592060  0.81168821  1
  O  O356  1  0.69368478  0.75051951  0.06114344  1
  O  O357  1  0.68999716  0.75059226  0.31306906  1
  O  O358  1  0.68940522  0.74981665  0.56242208  1
  O  O359  1  0.69023647  0.75031711  0.81249832  1
  O  O360  1  0.30457448  0.24994866  0.18803458  1
  O  O361  1  0.30554819  0.24930645  0.43870650  1
  O  O362  1  0.30832306  0.24932797  0.68801954  1
  O  O363  1  0.30728356  0.24953910  0.93754597  1
  O  O364  1  0.30668838  0.58341503  0.18838159  1
  O  O365  1  0.30934341  0.58373089  0.43751716  1
  O  O366  1  0.30835669  0.58391080  0.68750324  1
  O  O367  1  0.30772414  0.58362411  0.93714277  1
  O  O368  1  0.30815543  0.91692119  0.18768006  1
  O  O369  1  0.30818541  0.91728790  0.43718509  1
  O  O370  1  0.30669236  0.91669326  0.68877178  1
  O  O371  1  0.30851508  0.91683404  0.93766898  1
  O  O372  1  0.81141525  0.24986266  0.18764241  1
  O  O373  1  0.81088708  0.24966025  0.43732382  1
  O  O374  1  0.80973525  0.24971288  0.68749391  1
  O  O375  1  0.81073424  0.24947678  0.93803122  1
  O  O376  1  0.80836958  0.58309845  0.18747362  1
  O  O377  1  0.80597335  0.58381787  0.43869586  1
  O  O378  1  0.80698800  0.58363876  0.68835913  1
  O  O379  1  0.80717586  0.58382546  0.93894120  1
  O  O380  1  0.80913674  0.91701267  0.18774046  1
  O  O381  1  0.80701331  0.91633271  0.43891434  1
  O  O382  1  0.80983408  0.91618222  0.68748686  1
  O  O383  1  0.81036614  0.91640606  0.93782375  1
  O  O384  1  0.23111273  0.24959243  0.03694489  1
  O  O385  1  0.23027469  0.24973807  0.28877087  1
  O  O386  1  0.23146547  0.25012068  0.53963951  1
  O  O387  1  0.23324323  0.25013464  0.78844408  1
  O  O388  1  0.23209253  0.58424054  0.03721442  1
  O  O389  1  0.23424800  0.58374850  0.29038164  1
  O  O390  1  0.23383445  0.58324374  0.53749102  1
  O  O391  1  0.23395329  0.58337566  0.78821614  1
  O  O392  1  0.23267451  0.91655518  0.03731175  1
  O  O393  1  0.23345867  0.91674025  0.28805661  1
  O  O394  1  0.23243082  0.91686089  0.53741234  1
  O  O395  1  0.23404640  0.91636431  0.79053405  1
  O  O396  1  0.73619332  0.24986485  0.03858765  1
  O  O397  1  0.73623909  0.24995371  0.28776149  1
  O  O398  1  0.73610248  0.24986955  0.53791968  1
  O  O399  1  0.73613660  0.24978767  0.78913017  1
  O  O400  1  0.73276228  0.58428237  0.03961032  1
  O  O401  1  0.73228411  0.58339441  0.28717250  1
  O  O402  1  0.73312503  0.58311309  0.54073250  1
  O  O403  1  0.73373718  0.58306756  0.79006777  1
  O  O404  1  0.73592598  0.91604710  0.03863552  1
  O  O405  1  0.73283967  0.91635200  0.28756335  1
  O  O406  1  0.73396384  0.91686463  0.54047973  1
  O  O407  1  0.73591345  0.91673203  0.78859780  1
  O  O408  1  0.26366267  0.08304625  0.21057720  1
  O  O409  1  0.26490909  0.08353980  0.45885850  1
  O  O410  1  0.26508607  0.08333674  0.71215555  1
  O  O411  1  0.26313101  0.08329364  0.96116732  1
  O  O412  1  0.26414074  0.41704147  0.21026641  1
  O  O413  1  0.26537805  0.41615242  0.45906000  1
  O  O414  1  0.26809436  0.41712680  0.71040603  1
  O  O415  1  0.26414642  0.41665150  0.96165423  1
  O  O416  1  0.26831298  0.75060817  0.20971825  1
  O  O417  1  0.26543843  0.75025459  0.46165062  1
  O  O418  1  0.26683330  0.74982879  0.71205881  1
  O  O419  1  0.26500611  0.74970205  0.95898087  1
  O  O420  1  0.76593587  0.08303541  0.21169261  1
  O  O421  1  0.76518837  0.08294423  0.46133533  1
  O  O422  1  0.76836256  0.08371993  0.71047752  1
  O  O423  1  0.76788764  0.08277125  0.96022778  1
  O  O424  1  0.76609740  0.41693686  0.20897683  1
  O  O425  1  0.76677210  0.41685197  0.45966521  1
  O  O426  1  0.76851876  0.41599331  0.71081544  1
  O  O427  1  0.76585347  0.41730266  0.96202062  1
  O  O428  1  0.76423941  0.75022014  0.21208482  1
  O  O429  1  0.76397822  0.74998163  0.46157059  1
  O  O430  1  0.76486409  0.75008211  0.71204465  1
  O  O431  1  0.76754370  0.74977064  0.95989239  1
  O  O432  1  0.01866171  0.08331123  0.16468726  1
  O  O433  1  0.01875068  0.08383525  0.41473302  1
  O  O434  1  0.01581058  0.08269558  0.66588134  1
  O  O435  1  0.01697976  0.08308739  0.91292057  1
  O  O436  1  0.01811949  0.41675069  0.16456803  1
  O  O437  1  0.01868969  0.41599808  0.41492131  1
  O  O438  1  0.01654214  0.41664623  0.66629722  1
  O  O439  1  0.01571886  0.41637676  0.91259089  1
  O  O440  1  0.01519971  0.74960698  0.16372880  1
  O  O441  1  0.01682329  0.75019369  0.41427093  1
  O  O442  1  0.01856423  0.75064477  0.66453360  1
  O  O443  1  0.01752323  0.75027136  0.91499542  1
  O  O444  1  0.51545434  0.08288511  0.16439718  1
  O  O445  1  0.51744687  0.08268271  0.41371646  1
  O  O446  1  0.51756708  0.08362037  0.66460102  1
  O  O447  1  0.51547916  0.08317249  0.91607738  1
  O  O448  1  0.51782855  0.41666968  0.16401436  1
  O  O449  1  0.51577842  0.41715011  0.41498047  1
  O  O450  1  0.51460120  0.41648548  0.66644455  1
  O  O451  1  0.51407873  0.41686491  0.91277386  1
  O  O452  1  0.51519226  0.74999418  0.16437044  1
  O  O453  1  0.51609292  0.75060139  0.41242116  1
  O  O454  1  0.51645292  0.74994715  0.66524570  1
  O  O455  1  0.51610152  0.75037906  0.91337792  1
  O  O456  1  0.48346101  0.25056029  0.08465673  1
  O  O457  1  0.48355136  0.24951287  0.33452797  1
  O  O458  1  0.48166218  0.24988233  0.58585327  1
  O  O459  1  0.48133503  0.24963984  0.83635983  1
  O  O460  1  0.48517698  0.58361470  0.08566485  1
  O  O461  1  0.48252468  0.58374327  0.33442847  1
  O  O462  1  0.48089624  0.58364106  0.58598147  1
  O  O463  1  0.48273279  0.58361553  0.83828475  1
  O  O464  1  0.48224785  0.91663891  0.08736352  1
  O  O465  1  0.48273238  0.91657036  0.33479477  1
  O  O466  1  0.48367747  0.91673638  0.58482087  1
  O  O467  1  0.48210262  0.91652511  0.83587551  1
  O  O468  1  0.98388978  0.24995316  0.08619213  1
  O  O469  1  0.98459524  0.25007214  0.33672001  1
  O  O470  1  0.98374646  0.24977968  0.58833213  1
  O  O471  1  0.98405903  0.24961316  0.83645456  1
  O  O472  1  0.98255334  0.58327237  0.08466013  1
  O  O473  1  0.98495340  0.58301967  0.33661959  1
  O  O474  1  0.98639925  0.58351325  0.58690926  1
  O  O475  1  0.98571499  0.58430908  0.83585230  1
  O  O476  1  0.98397420  0.91636720  0.08740073  1
  O  O477  1  0.98576482  0.91665301  0.33571198  1
  O  O478  1  0.98301221  0.91669395  0.58498639  1
  O  O479  1  0.98327664  0.91615442  0.83736727  1
  O  O480  1  0.08741570  0.31532428  0.07732381  1
  O  O481  1  0.08825811  0.31518143  0.32797408  1
  O  O482  1  0.08731029  0.31517186  0.57772441  1
  O  O483  1  0.08799043  0.31403414  0.82652730  1
  O  O484  1  0.08691145  0.64762473  0.07645381  1
  O  O485  1  0.08846062  0.64764813  0.32743612  1
  O  O486  1  0.08969074  0.64978600  0.57832612  1
  O  O487  1  0.08946545  0.64986981  0.82795621  1
  O  O488  1  0.08755844  0.98186963  0.07767693  1
  O  O489  1  0.08926079  0.98260137  0.32788580  1
  O  O490  1  0.08749034  0.98055774  0.57710739  1
  O  O491  1  0.08673778  0.98129550  0.82816864  1
  O  O492  1  0.58722578  0.31600401  0.07711267  1
  O  O493  1  0.58766131  0.31405185  0.32742136  1
  O  O494  1  0.58556597  0.31472380  0.57748504  1
  O  O495  1  0.58493814  0.31502847  0.82649887  1
  O  O496  1  0.58948434  0.64721916  0.07674490  1
  O  O497  1  0.58625631  0.64952436  0.32702385  1
  O  O498  1  0.58471878  0.64882905  0.57838095  1
  O  O499  1  0.58612074  0.64936873  0.82830669  1
  O  O500  1  0.58612017  0.98157727  0.07712984  1
  O  O501  1  0.58683297  0.98181540  0.32670416  1
  O  O502  1  0.58752061  0.98183293  0.57845520  1
  O  O503  1  0.58620562  0.98105637  0.82762997  1
  O  O504  1  0.41159369  0.01776153  0.17226936  1
  O  O505  1  0.41389531  0.01694973  0.42223174  1
  O  O506  1  0.41343926  0.01912711  0.67255339  1
  O  O507  1  0.41161454  0.01795454  0.92215509  1
  O  O508  1  0.41374052  0.35178938  0.17262092  1
  O  O509  1  0.41188547  0.35234552  0.42190710  1
  O  O510  1  0.41044347  0.35148932  0.67253310  1
  O  O511  1  0.41055814  0.35139588  0.92185921  1
  O  O512  1  0.41097197  0.68587576  0.17270658  1
  O  O513  1  0.41257022  0.68533765  0.42126823  1
  O  O514  1  0.41249781  0.68437386  0.67310099  1
  O  O515  1  0.41264091  0.68490187  0.92237632  1
  O  O516  1  0.91496521  0.01787335  0.17287500  1
  O  O517  1  0.91488253  0.01889779  0.42258845  1
  O  O518  1  0.91185397  0.01771603  0.67234272  1
  O  O519  1  0.91342158  0.01822250  0.92186260  1
  O  O520  1  0.91432725  0.35206809  0.17212311  1
  O  O521  1  0.91483703  0.35100975  0.42224604  1
  O  O522  1  0.91261031  0.35123977  0.67274068  1
  O  O523  1  0.91239351  0.35082172  0.92126096  1
  O  O524  1  0.91169668  0.68417048  0.17165048  1
  O  O525  1  0.91328264  0.68474828  0.42283835  1
  O  O526  1  0.91487180  0.68571915  0.67314193  1
  O  O527  1  0.91338229  0.68554365  0.92358255  1
  O  O528  1  0.16004826  0.01783818  0.20285855  1
  O  O529  1  0.16106755  0.01835609  0.45245624  1
  O  O530  1  0.16151946  0.01870389  0.70337905  1
  O  O531  1  0.15980521  0.01744172  0.95279399  1
  O  O532  1  0.16062421  0.35098170  0.20257395  1
  O  O533  1  0.16113357  0.35168642  0.45282792  1
  O  O534  1  0.16436546  0.35171823  0.70276365  1
  O  O535  1  0.16050482  0.35191655  0.95306056  1
  O  O536  1  0.16436760  0.68586229  0.20191710  1
  O  O537  1  0.16218475  0.68471860  0.45363146  1
  O  O538  1  0.16322992  0.68429879  0.70283626  1
  O  O539  1  0.16071021  0.68549053  0.95209702  1
  O  O540  1  0.66253782  0.01716441  0.20278482  1
  O  O541  1  0.66105176  0.01867615  0.45222590  1
  O  O542  1  0.66430769  0.01863906  0.70164953  1
  O  O543  1  0.66411748  0.01783079  0.95212719  1
  O  O544  1  0.66224730  0.35200892  0.20123608  1
  O  O545  1  0.66340167  0.35122673  0.45207883  1
  O  O546  1  0.66483994  0.35086975  0.70199770  1
  O  O547  1  0.66236714  0.35248841  0.95210000  1
  O  O548  1  0.66071034  0.68534715  0.20337336  1
  O  O549  1  0.66015365  0.68482456  0.45252144  1
  O  O550  1  0.66088615  0.68526231  0.70254148  1
  O  O551  1  0.66332319  0.68448054  0.95206736  1
  O  O552  1  0.33462550  0.31470027  0.04787107  1
  O  O553  1  0.33396499  0.31516071  0.29751733  1
  O  O554  1  0.33598428  0.31425391  0.54805298  1
  O  O555  1  0.33675514  0.31574102  0.79765745  1
  O  O556  1  0.33621074  0.64843668  0.04690465  1
  O  O557  1  0.33787790  0.64958190  0.29734917  1
  O  O558  1  0.33742563  0.64836672  0.54796893  1
  O  O559  1  0.33752775  0.64880753  0.79773161  1
  O  O560  1  0.33611737  0.98183691  0.04812914  1
  O  O561  1  0.33737363  0.98101099  0.29812148  1
  O  O562  1  0.33564406  0.98248823  0.54739346  1
  O  O563  1  0.33822329  0.98068728  0.79833984  1
  O  O564  1  0.83998469  0.31491049  0.04781243  1
  O  O565  1  0.83997323  0.31503126  0.29763609  1
  O  O566  1  0.83998076  0.31469033  0.54735543  1
  O  O567  1  0.83999744  0.31477854  0.79723482  1
  O  O568  1  0.83651610  0.64999152  0.04822654  1
  O  O569  1  0.83587771  0.64825031  0.29776397  1
  O  O570  1  0.83657888  0.64879971  0.54818477  1
  O  O571  1  0.83761992  0.64773587  0.79782296  1
  O  O572  1  0.84022005  0.97985934  0.04830269  1
  O  O573  1  0.83635147  0.98164185  0.29813491  1
  O  O574  1  0.83833266  0.98123447  0.54793893  1
  O  O575  1  0.83931526  0.98279167  0.79687282  1
  O  O576  1  0.41177963  0.14798630  0.17286082  1
  O  O577  1  0.41336441  0.14719918  0.42249822  1
  O  O578  1  0.41357831  0.14912181  0.67230781  1
  O  O579  1  0.41149929  0.14830444  0.92252445  1
  O  O580  1  0.41402941  0.48185982  0.17223949  1
  O  O581  1  0.41218342  0.48270540  0.42134254  1
  O  O582  1  0.41070283  0.48171371  0.67274960  1
  O  O583  1  0.41051310  0.48191335  0.92196969  1
  O  O584  1  0.41149676  0.81589183  0.17255029  1
  O  O585  1  0.41246042  0.81562489  0.42141020  1
  O  O586  1  0.41208529  0.81428977  0.67328392  1
  O  O587  1  0.41220066  0.81514647  0.92164944  1
  O  O588  1  0.91478630  0.14812461  0.17241630  1
  O  O589  1  0.91491125  0.14894512  0.42217556  1
  O  O590  1  0.91199909  0.14786895  0.67260338  1
  O  O591  1  0.91374627  0.14847560  0.92187980  1
  O  O592  1  0.91452182  0.48240703  0.17241972  1
  O  O593  1  0.91500469  0.48114988  0.42315243  1
  O  O594  1  0.91240469  0.48131773  0.67331525  1
  O  O595  1  0.91218526  0.48110344  0.92210164  1
  O  O596  1  0.91159311  0.81469536  0.17155781  1
  O  O597  1  0.91294897  0.81495689  0.42244257  1
  O  O598  1  0.91459938  0.81578941  0.67226948  1
  O  O599  1  0.91337070  0.81539415  0.92298646  1
  O  O600  1  0.08769719  0.18508862  0.07753954  1
  O  O601  1  0.08827041  0.18508446  0.32799259  1
  O  O602  1  0.08760189  0.18527274  0.57801296  1
  O  O603  1  0.08772296  0.18400736  0.82749831  1
  O  O604  1  0.08640479  0.51762170  0.07694246  1
  O  O605  1  0.08838722  0.51744878  0.32865986  1
  O  O606  1  0.09056692  0.51970619  0.57766688  1
  O  O607  1  0.08964443  0.51977240  0.82671713  1
  O  O608  1  0.08784494  0.85184103  0.07691722  1
  O  O609  1  0.08986934  0.85254176  0.32664634  1
  O  O610  1  0.08686016  0.85070070  0.57712829  1
  O  O611  1  0.08690459  0.85119183  0.82826167  1
  O  O612  1  0.58733240  0.18573909  0.07664783  1
  O  O613  1  0.58728876  0.18387891  0.32773412  1
  O  O614  1  0.58577227  0.18455224  0.57803243  1
  O  O615  1  0.58550160  0.18491782  0.82708935  1
  O  O616  1  0.58846112  0.51711558  0.07729741  1
  O  O617  1  0.58701488  0.51951707  0.32669398  1
  O  O618  1  0.58469410  0.51858180  0.57775965  1
  O  O619  1  0.58638322  0.51915385  0.82767054  1
  O  O620  1  0.58586684  0.85160175  0.07709906  1
  O  O621  1  0.58681209  0.85176539  0.32672182  1
  O  O622  1  0.58713089  0.85141244  0.57845024  1
  O  O623  1  0.58588114  0.85096908  0.82792898  1
  O  O624  1  0.33458661  0.18464515  0.04786985  1
  O  O625  1  0.33413309  0.18507704  0.29780285  1
  O  O626  1  0.33511276  0.18437640  0.54852939  1
  O  O627  1  0.33705038  0.18554543  0.79857059  1
  O  O628  1  0.33527837  0.51849846  0.04754201  1
  O  O629  1  0.33841936  0.51941134  0.29779625  1
  O  O630  1  0.33750102  0.51836933  0.54752546  1
  O  O631  1  0.33778876  0.51863142  0.79740025  1
  O  O632  1  0.33666969  0.85184805  0.04765387  1
  O  O633  1  0.33707312  0.85100507  0.29755978  1
  O  O634  1  0.33636838  0.85243293  0.54719318  1
  O  O635  1  0.33776054  0.85056885  0.79771560  1
  O  O636  1  0.84000889  0.18492767  0.04821609  1
  O  O637  1  0.83997837  0.18501720  0.29790639  1
  O  O638  1  0.83970049  0.18470725  0.54735216  1
  O  O639  1  0.83995171  0.18460106  0.79714125  1
  O  O640  1  0.83697693  0.52000798  0.04909458  1
  O  O641  1  0.83593978  0.51821195  0.29765446  1
  O  O642  1  0.83752952  0.51878622  0.54745668  1
  O  O643  1  0.83741277  0.51749730  0.79737135  1
  O  O644  1  0.83915408  0.84976648  0.04722582  1
  O  O645  1  0.83649198  0.85160269  0.29780943  1
  O  O646  1  0.83760561  0.85131887  0.54853163  1
  O  O647  1  0.84001754  0.85261466  0.79772132  1
  O  O648  1  0.15979893  0.14806306  0.20261437  1
  O  O649  1  0.16090429  0.14852873  0.45294024  1
  O  O650  1  0.16165391  0.14888941  0.70402684  1
  O  O651  1  0.15907309  0.14767825  0.95274690  1
  O  O652  1  0.15998651  0.48102168  0.20217043  1
  O  O653  1  0.16184078  0.48189596  0.45254440  1
  O  O654  1  0.16422792  0.48180710  0.70278433  1
  O  O655  1  0.16097773  0.48224841  0.95298319  1
  O  O656  1  0.16435847  0.81579607  0.20226460  1
  O  O657  1  0.16180994  0.81501154  0.45329387  1
  O  O658  1  0.16281165  0.81430153  0.70195977  1
  O  O659  1  0.16150485  0.81555411  0.95194156  1
  O  O660  1  0.66226482  0.14747246  0.20256272  1
  O  O661  1  0.66176824  0.14866100  0.45196970  1
  O  O662  1  0.66429650  0.14861910  0.70152469  1
  O  O663  1  0.66430204  0.14808318  0.95177514  1
  O  O664  1  0.66187986  0.48208100  0.20220700  1
  O  O665  1  0.66262232  0.48138911  0.45264858  1
  O  O666  1  0.66446421  0.48094280  0.70224439  1
  O  O667  1  0.66231622  0.48281786  0.95326205  1
  O  O668  1  0.66103371  0.81569565  0.20293250  1
  O  O669  1  0.66022049  0.81481983  0.45243955  1
  O  O670  1  0.66121104  0.81526995  0.70256266  1
  O  O671  1  0.66343191  0.81450451  0.95129890  1
