# generated using pymatgen
data_Na2MnFe(PO4)2
_symmetry_space_group_name_H-M   'P 1'
_cell_length_a   21.08871179
_cell_length_b   18.94128015
_cell_length_c   20.04699032
_cell_angle_alpha   89.99990433
_cell_angle_beta   90.00382788
_cell_angle_gamma   89.99821832
_symmetry_Int_Tables_number   1
_chemical_formula_structural   Na2MnFe(PO4)2
_chemical_formula_sum   'Na96 Mn48 Fe48 P96 O384'
_cell_volume   8007.71409209
_cell_formula_units_Z   48
loop_
 _symmetry_equiv_pos_site_id
 _symmetry_equiv_pos_as_xyz
  1  'x, y, z'
loop_
 _atom_site_type_symbol
 _atom_site_label
 _atom_site_symmetry_multiplicity
 _atom_site_fract_x
 _atom_site_fract_y
 _atom_site_fract_z
 _atom_site_occupancy
  Na  Na0  1  -0.00163465  -0.00153986  0.00060031  1
  Na  Na1  1  0.00156039  0.00043098  0.25032146  1
  Na  Na2  1  0.00217572  0.00061832  0.50023384  1
  Na  Na3  1  0.00110953  0.00017425  0.74972278  1
  Na  Na4  1  0.00129786  0.33381284  -0.00068428  1
  Na  Na5  1  -0.00188668  0.33277360  0.25044957  1
  Na  Na6  1  -0.00023602  0.33352073  0.50046269  1
  Na  Na7  1  0.00154307  0.33346433  0.74985693  1
  Na  Na8  1  -0.00143614  0.66604624  -0.00011470  1
  Na  Na9  1  -0.00261478  0.66586950  0.24943271  1
  Na  Na10  1  -0.00192824  0.66637769  0.50057657  1
  Na  Na11  1  0.00009673  0.66676537  0.74975024  1
  Na  Na12  1  0.49727203  -0.00070685  -0.00137417  1
  Na  Na13  1  0.50184161  0.00156333  0.25054877  1
  Na  Na14  1  0.49916138  -0.00018327  0.50006748  1
  Na  Na15  1  0.49837792  0.00033439  0.74994915  1
  Na  Na16  1  0.49892655  0.33305794  -0.00005954  1
  Na  Na17  1  0.49955405  0.33350993  0.25116762  1
  Na  Na18  1  0.49939911  0.33297723  0.50002841  1
  Na  Na19  1  0.49982180  0.33391443  0.74922116  1
  Na  Na20  1  0.50206006  0.66723870  0.00046843  1
  Na  Na21  1  0.50113611  0.66686720  0.25072478  1
  Na  Na22  1  0.50290190  0.66749701  0.49926163  1
  Na  Na23  1  0.50129721  0.66667737  0.74960920  1
  Na  Na24  1  0.25188407  0.00067753  0.12624135  1
  Na  Na25  1  0.24930963  -0.00052133  0.37470546  1
  Na  Na26  1  0.25145550  0.00082268  0.62462869  1
  Na  Na27  1  0.25133931  0.00018544  0.87467297  1
  Na  Na28  1  0.25023672  0.33368141  0.12466005  1
  Na  Na29  1  0.25248296  0.33446927  0.37570295  1
  Na  Na30  1  0.24841669  0.33276194  0.62455953  1
  Na  Na31  1  0.24839384  0.33297522  0.87484957  1
  Na  Na32  1  0.24823509  0.66602838  0.12498675  1
  Na  Na33  1  0.25029554  0.66693906  0.37508172  1
  Na  Na34  1  0.24873577  0.66579682  0.62504599  1
  Na  Na35  1  0.24750014  0.66583636  0.87451468  1
  Na  Na36  1  0.75028038  0.00064715  0.12505201  1
  Na  Na37  1  0.74725307  -0.00071590  0.37378552  1
  Na  Na38  1  0.74839537  -0.00043536  0.62516830  1
  Na  Na39  1  0.75126634  0.00059711  0.87628577  1
  Na  Na40  1  0.75062266  0.33352434  0.12489265  1
  Na  Na41  1  0.75075538  0.33349888  0.37594408  1
  Na  Na42  1  0.74878359  0.33256835  0.62397507  1
  Na  Na43  1  0.75125242  0.33423659  0.87556396  1
  Na  Na44  1  0.75157956  0.66742393  0.12527809  1
  Na  Na45  1  0.75001312  0.66638096  0.37370605  1
  Na  Na46  1  0.75088175  0.66723956  0.62474098  1
  Na  Na47  1  0.75127745  0.66716860  0.87589670  1
  Na  Na48  1  0.00125849  0.16655348  -0.00030409  1
  Na  Na49  1  0.00030538  0.16710926  0.25054150  1
  Na  Na50  1  0.00254653  0.16663862  0.50089875  1
  Na  Na51  1  0.00362318  0.16637964  0.75019122  1
  Na  Na52  1  0.00011715  0.49960951  0.00009249  1
  Na  Na53  1  -0.00241183  0.50027656  0.24970523  1
  Na  Na54  1  -0.00232434  0.50023199  0.49991960  1
  Na  Na55  1  0.00114076  0.49860866  0.75010701  1
  Na  Na56  1  -0.00210107  0.83379833  0.00012497  1
  Na  Na57  1  -0.00143708  0.83338554  0.24996213  1
  Na  Na58  1  -0.00134999  0.83357005  0.50016277  1
  Na  Na59  1  -0.00145993  0.83354963  0.74900188  1
  Na  Na60  1  0.50014535  0.16645366  0.00006334  1
  Na  Na61  1  0.50083222  0.16721332  0.24940442  1
  Na  Na62  1  0.50158543  0.16647516  0.50124829  1
  Na  Na63  1  0.49837527  0.16727402  0.74877644  1
  Na  Na64  1  0.50011244  0.49936046  -0.00086356  1
  Na  Na65  1  0.49994716  0.50001641  0.25137145  1
  Na  Na66  1  0.50034856  0.49917230  0.49932390  1
  Na  Na67  1  0.50027546  0.49935154  0.74978336  1
  Na  Na68  1  0.50064714  0.83243314  0.00039159  1
  Na  Na69  1  0.49948470  0.83387596  0.25098926  1
  Na  Na70  1  0.50080370  0.83308275  0.49933220  1
  Na  Na71  1  0.50018312  0.83352676  0.74997616  1
  Na  Na72  1  0.24923934  0.16743330  0.12597296  1
  Na  Na73  1  0.25061769  0.16655028  0.37510091  1
  Na  Na74  1  0.24954893  0.16726508  0.62411680  1
  Na  Na75  1  0.25089923  0.16643813  0.87459960  1
  Na  Na76  1  0.24865725  0.50046188  0.12500845  1
  Na  Na77  1  0.25066504  0.49950577  0.37580647  1
  Na  Na78  1  0.24985767  0.49891459  0.62531925  1
  Na  Na79  1  0.24730270  0.50037068  0.87476826  1
  Na  Na80  1  0.25160080  0.83269512  0.12516165  1
  Na  Na81  1  0.25012921  0.83363670  0.37463699  1
  Na  Na82  1  0.25001706  0.83349751  0.62464477  1
  Na  Na83  1  0.24875308  0.83425669  0.87451357  1
  Na  Na84  1  0.74765072  0.16756199  0.12539357  1
  Na  Na85  1  0.74768427  0.16730883  0.37482989  1
  Na  Na86  1  0.74787398  0.16765576  0.62411306  1
  Na  Na87  1  0.74924073  0.16712563  0.87577635  1
  Na  Na88  1  0.75237681  0.49888848  0.12517788  1
  Na  Na89  1  0.75191298  0.49883499  0.37444620  1
  Na  Na90  1  0.74908423  0.50011731  0.62384595  1
  Na  Na91  1  0.75166638  0.49895038  0.87555428  1
  Na  Na92  1  0.75190298  0.83239793  0.12480668  1
  Na  Na93  1  0.74987404  0.83332835  0.37388494  1
  Na  Na94  1  0.75116403  0.83278485  0.62592021  1
  Na  Na95  1  0.75231611  0.83256321  0.87645725  1
  Mn  Mn96  1  0.64265791  0.91718977  0.74832129  1
  Mn  Mn97  1  0.10879199  0.08279374  0.87291926  1
  Mn  Mn98  1  0.39244327  0.58327444  0.37739395  1
  Mn  Mn99  1  0.89219934  0.24944072  0.12739786  1
  Mn  Mn100  1  0.64273189  0.58259673  0.74786312  1
  Mn  Mn101  1  0.35688700  0.41698628  0.00219341  1
  Mn  Mn102  1  0.35797491  0.74985062  0.00207244  1
  Mn  Mn103  1  0.39163625  0.58337850  0.87695801  1
  Mn  Mn104  1  0.89265146  0.58329024  0.87706369  1
  Mn  Mn105  1  0.60680139  0.08320587  0.87241883  1
  Mn  Mn106  1  0.10684893  0.41685311  0.37275589  1
  Mn  Mn107  1  0.10810471  0.08309079  0.12261974  1
  Mn  Mn108  1  0.39287736  0.91742744  0.37710784  1
  Mn  Mn109  1  0.14250098  0.25075239  0.24858081  1
  Mn  Mn110  1  0.85836138  0.08403197  0.75201190  1
  Mn  Mn111  1  0.60728884  0.08337455  0.62294153  1
  Mn  Mn112  1  0.64307497  0.58313770  0.99854319  1
  Mn  Mn113  1  0.60806366  0.41656711  0.87243154  1
  Mn  Mn114  1  0.10695506  0.74990615  0.37245497  1
  Mn  Mn115  1  0.39228459  0.25002293  0.62711014  1
  Mn  Mn116  1  0.64208468  0.91682791  0.24642566  1
  Mn  Mn117  1  0.39287795  0.58386430  0.62705526  1
  Mn  Mn118  1  0.64172879  0.25062500  0.99734490  1
  Mn  Mn119  1  0.10697815  0.75009138  0.87291591  1
  Mn  Mn120  1  0.10709632  0.74981867  0.62254172  1
  Mn  Mn121  1  0.35740513  0.74942611  0.75242684  1
  Mn  Mn122  1  0.85804420  0.08373139  0.00272170  1
  Mn  Mn123  1  0.14239284  0.91686143  0.99827327  1
  Mn  Mn124  1  0.89298938  0.24932158  0.87650170  1
  Mn  Mn125  1  0.85711019  0.08391269  0.25293946  1
  Mn  Mn126  1  0.89281015  0.24942726  0.62725612  1
  Mn  Mn127  1  0.39157316  0.91619663  0.87712754  1
  Mn  Mn128  1  0.10709945  0.75000551  0.12321285  1
  Mn  Mn129  1  0.89178458  0.91782967  0.62696321  1
  Mn  Mn130  1  0.60777545  0.41631158  0.37276226  1
  Mn  Mn131  1  0.39241216  0.25031303  0.12734717  1
  Mn  Mn132  1  0.35854996  0.74982308  0.50247063  1
  Mn  Mn133  1  0.89228825  0.91742950  0.37771578  1
  Mn  Mn134  1  0.64250155  0.91648961  0.99825397  1
  Mn  Mn135  1  0.89159250  0.58259852  0.62757774  1
  Mn  Mn136  1  0.64317435  0.58235192  0.24702416  1
  Mn  Mn137  1  0.35820508  0.08345938  0.25287468  1
  Mn  Mn138  1  0.39183072  0.58382774  0.12713646  1
  Mn  Mn139  1  0.14177902  0.58300760  0.49706138  1
  Mn  Mn140  1  0.60884270  0.74987194  0.62261131  1
  Mn  Mn141  1  0.85748838  0.08306114  0.50203435  1
  Mn  Mn142  1  0.14283572  0.91680069  0.49763201  1
  Mn  Mn143  1  0.10746026  0.41660869  0.12366953  1
  Fe  Fe144  1  0.60751117  0.74999310  0.12375963  1
  Fe  Fe145  1  0.89280578  0.91722845  0.87630623  1
  Fe  Fe146  1  0.14133854  0.58322431  0.99828229  1
  Fe  Fe147  1  0.85751248  0.74977219  0.75230853  1
  Fe  Fe148  1  0.10890730  0.08348578  0.62294410  1
  Fe  Fe149  1  0.60834443  0.75000750  0.87352567  1
  Fe  Fe150  1  0.60708921  0.08339815  0.37380722  1
  Fe  Fe151  1  0.85715383  0.41602156  0.25197948  1
  Fe  Fe152  1  0.39167701  0.25054937  0.87617977  1
  Fe  Fe153  1  0.85653400  0.41640924  0.50219833  1
  Fe  Fe154  1  0.14227571  0.58311030  0.74771858  1
  Fe  Fe155  1  0.39275603  0.91603486  0.62641523  1
  Fe  Fe156  1  0.85831174  0.41666146  0.00200712  1
  Fe  Fe157  1  0.39303586  0.91623096  0.12671361  1
  Fe  Fe158  1  0.60816616  0.75053748  0.37272623  1
  Fe  Fe159  1  0.89274986  0.58348598  0.12684650  1
  Fe  Fe160  1  0.10732037  0.41660694  0.87291109  1
  Fe  Fe161  1  0.89201630  0.58299919  0.37693188  1
  Fe  Fe162  1  0.14350231  0.24996098  0.74803660  1
  Fe  Fe163  1  0.35756676  0.74915381  0.25128674  1
  Fe  Fe164  1  0.85751416  0.74964669  0.00236809  1
  Fe  Fe165  1  0.14202905  0.58379940  0.24894598  1
  Fe  Fe166  1  0.14293681  0.25004027  0.99834987  1
  Fe  Fe167  1  0.35785688  0.41768024  0.25125142  1
  Fe  Fe168  1  0.64258261  0.25004316  0.49753918  1
  Fe  Fe169  1  0.85611755  0.75022568  0.50084003  1
  Fe  Fe170  1  0.85731274  0.41619645  0.75110947  1
  Fe  Fe171  1  0.35735160  0.08373860  0.00190878  1
  Fe  Fe172  1  0.35708819  0.41661081  0.50247490  1
  Fe  Fe173  1  0.35640753  0.41647757  0.75138560  1
  Fe  Fe174  1  0.60766830  0.41702070  0.12365864  1
  Fe  Fe175  1  0.39316986  0.24972646  0.37689281  1
  Fe  Fe176  1  0.10780815  0.08347406  0.37361976  1
  Fe  Fe177  1  0.60761075  0.41687999  0.62332101  1
  Fe  Fe178  1  0.14236850  0.91676095  0.74797153  1
  Fe  Fe179  1  0.64210818  0.25036581  0.74892223  1
  Fe  Fe180  1  0.14310647  0.91566048  0.24804456  1
  Fe  Fe181  1  0.35638923  0.08379276  0.75122956  1
  Fe  Fe182  1  0.85707694  0.74980455  0.25208341  1
  Fe  Fe183  1  0.64246723  0.25067150  0.24867366  1
  Fe  Fe184  1  0.64191821  0.91656283  0.49866288  1
  Fe  Fe185  1  0.89258694  0.91681720  0.12748860  1
  Fe  Fe186  1  0.64352931  0.58345470  0.49788437  1
  Fe  Fe187  1  0.10728318  0.41637620  0.62280758  1
  Fe  Fe188  1  0.35740643  0.08395609  0.50122930  1
  Fe  Fe189  1  0.60655757  0.08323223  0.12278958  1
  Fe  Fe190  1  0.14339665  0.25017261  0.49762118  1
  Fe  Fe191  1  0.89219928  0.24952115  0.37723230  1
  P  P192  1  0.05409517  0.25020510  0.10947807  1
  P  P193  1  0.05313136  0.24990765  0.36151879  1
  P  P194  1  0.05638391  0.25028513  0.61070063  1
  P  P195  1  0.05598469  0.25060628  0.86044201  1
  P  P196  1  0.05345334  0.58335953  0.11088946  1
  P  P197  1  0.05152660  0.58309856  0.35931855  1
  P  P198  1  0.05411480  0.58212507  0.61083889  1
  P  P199  1  0.05489627  0.58255367  0.86033775  1
  P  P200  1  0.05309086  0.91604612  0.11125344  1
  P  P201  1  0.05420120  0.91709812  0.35943752  1
  P  P202  1  0.05469111  0.91730988  0.61077663  1
  P  P203  1  0.05271801  0.91629316  0.85936969  1
  P  P204  1  0.55466584  0.25093174  0.11140327  1
  P  P205  1  0.55406186  0.24936678  0.36085983  1
  P  P206  1  0.55544397  0.25121345  0.61064067  1
  P  P207  1  0.55184896  0.25002854  0.85898297  1
  P  P208  1  0.55343543  0.58286530  0.11041652  1
  P  P209  1  0.55552511  0.58373752  0.36106992  1
  P  P210  1  0.55470692  0.58217109  0.60901855  1
  P  P211  1  0.55367417  0.58379312  0.86002032  1
  P  P212  1  0.55213653  0.91671836  0.11001525  1
  P  P213  1  0.55527289  0.91704392  0.36117752  1
  P  P214  1  0.55279560  0.91683335  0.60957048  1
  P  P215  1  0.55317717  0.91603375  0.86006689  1
  P  P216  1  0.44642716  0.08279346  0.13880836  1
  P  P217  1  0.44746977  0.08469565  0.39066508  1
  P  P218  1  0.44436320  0.08265426  0.63903239  1
  P  P219  1  0.44368835  0.08484981  0.88886974  1
  P  P220  1  0.44746209  0.41711486  0.14073835  1
  P  P221  1  0.44458481  0.41582183  0.38964333  1
  P  P222  1  0.44609692  0.41673874  0.63934118  1
  P  P223  1  0.44489907  0.41582167  0.88852556  1
  P  P224  1  0.44756183  0.75039281  0.14075402  1
  P  P225  1  0.44722918  0.74993265  0.38878617  1
  P  P226  1  0.44739304  0.75062633  0.64001293  1
  P  P227  1  0.44823870  0.74953050  0.89006938  1
  P  P228  1  0.94677280  0.08283513  0.14072580  1
  P  P229  1  0.94816082  0.08414322  0.39046772  1
  P  P230  1  0.94892997  0.08392720  0.63999857  1
  P  P231  1  0.94737771  0.08277562  0.89001807  1
  P  P232  1  0.94481207  0.41703139  0.13965065  1
  P  P233  1  0.94391889  0.41628977  0.38963659  1
  P  P234  1  0.94605345  0.41600768  0.63952888  1
  P  P235  1  0.94636837  0.41629407  0.88909492  1
  P  P236  1  0.94431712  0.74988996  0.13947472  1
  P  P237  1  0.94439126  0.74924410  0.38955466  1
  P  P238  1  0.94382068  0.75003870  0.63915320  1
  P  P239  1  0.94454757  0.75072316  0.88941766  1
  P  P240  1  0.19550221  0.08277874  0.23659458  1
  P  P241  1  0.19647333  0.08426972  0.48538805  1
  P  P242  1  0.19721870  0.08339976  0.73450235  1
  P  P243  1  0.19830098  0.08367828  0.98533876  1
  P  P244  1  0.19784817  0.41758932  0.23568982  1
  P  P245  1  0.19629184  0.41574633  0.48608977  1
  P  P246  1  0.19549053  0.41639617  0.73556914  1
  P  P247  1  0.19512743  0.41668169  0.98479461  1
  P  P248  1  0.19739728  0.74979190  0.23529618  1
  P  P249  1  0.19685701  0.75001327  0.48458741  1
  P  P250  1  0.19588242  0.75013510  0.73488749  1
  P  P251  1  0.19629688  0.74974445  0.98507132  1
  P  P252  1  0.69416282  0.08457745  0.23549527  1
  P  P253  1  0.69559741  0.08315492  0.48439271  1
  P  P254  1  0.69676401  0.08438640  0.73522636  1
  P  P255  1  0.69508052  0.08322579  0.98611765  1
  P  P256  1  0.69750110  0.41558130  0.23479408  1
  P  P257  1  0.69627091  0.41671500  0.48603252  1
  P  P258  1  0.69737164  0.41583059  0.73425772  1
  P  P259  1  0.69721144  0.41705323  0.98623616  1
  P  P260  1  0.69634702  0.74985975  0.23513361  1
  P  P261  1  0.69703248  0.75006063  0.48431539  1
  P  P262  1  0.69730851  0.74999953  0.73665124  1
  P  P263  1  0.69631838  0.74983327  0.98624930  1
  P  P264  1  0.30319216  0.24956875  0.01383146  1
  P  P265  1  0.30450285  0.25106566  0.26578292  1
  P  P266  1  0.30412443  0.24991149  0.51355581  1
  P  P267  1  0.30275160  0.25038783  0.76454864  1
  P  P268  1  0.30118687  0.58325856  0.01482482  1
  P  P269  1  0.30222398  0.58366763  0.26490584  1
  P  P270  1  0.30328736  0.58240763  0.51527480  1
  P  P271  1  0.30178805  0.58224115  0.76456850  1
  P  P272  1  0.30419802  0.91737371  0.01589133  1
  P  P273  1  0.30413314  0.91552257  0.26378341  1
  P  P274  1  0.30467820  0.91778045  0.51511869  1
  P  P275  1  0.30311204  0.91716011  0.76322926  1
  P  P276  1  0.80363068  0.25061032  0.01500863  1
  P  P277  1  0.80257007  0.25049400  0.26576372  1
  P  P278  1  0.80343295  0.25000865  0.51377074  1
  P  P279  1  0.80208140  0.25089796  0.76467737  1
  P  P280  1  0.80491125  0.58314191  0.01558816  1
  P  P281  1  0.80559372  0.58307339  0.26394455  1
  P  P282  1  0.80351524  0.58339386  0.51323497  1
  P  P283  1  0.80359251  0.58244023  0.76497517  1
  P  P284  1  0.80553279  0.91613831  0.01490831  1
  P  P285  1  0.80442921  0.91635464  0.26377801  1
  P  P286  1  0.80150028  0.91633504  0.51458760  1
  P  P287  1  0.80413836  0.91657680  0.76605035  1
  O  O288  1  0.05722810  0.25044977  0.18630149  1
  O  O289  1  0.05837662  0.25066815  0.43813715  1
  O  O290  1  0.06047844  0.25026690  0.68751861  1
  O  O291  1  0.05982717  0.24968611  0.93720744  1
  O  O292  1  0.05856297  0.58336923  0.18756748  1
  O  O293  1  0.05564284  0.58312715  0.43605186  1
  O  O294  1  0.05853339  0.58266761  0.68758178  1
  O  O295  1  0.05833682  0.58332984  0.93720226  1
  O  O296  1  0.05874856  0.91585306  0.18783418  1
  O  O297  1  0.05730217  0.91616615  0.43624831  1
  O  O298  1  0.05888909  0.91669523  0.68752370  1
  O  O299  1  0.05651178  0.91622456  0.93611775  1
  O  O300  1  0.55840826  0.25126657  0.18816885  1
  O  O301  1  0.55874890  0.25037571  0.43760915  1
  O  O302  1  0.55933803  0.25067218  0.68737440  1
  O  O303  1  0.55588343  0.25020474  0.93574770  1
  O  O304  1  0.55642282  0.58266256  0.18720027  1
  O  O305  1  0.56001741  0.58306515  0.43778658  1
  O  O306  1  0.55742030  0.58256408  0.68583913  1
  O  O307  1  0.55712213  0.58299626  0.93675714  1
  O  O308  1  0.55557450  0.91703078  0.18680520  1
  O  O309  1  0.55893718  0.91643400  0.43791257  1
  O  O310  1  0.55671921  0.91711843  0.68624971  1
  O  O311  1  0.55647277  0.91657826  0.93678523  1
  O  O312  1  0.44159419  0.08355733  0.06214626  1
  O  O313  1  0.44406009  0.08426507  0.31385632  1
  O  O314  1  0.44077696  0.08393027  0.56228839  1
  O  O315  1  0.43940742  0.08420612  0.81205095  1
  O  O316  1  0.44321146  0.41705537  0.06401174  1
  O  O317  1  0.44040784  0.41711072  0.31287840  1
  O  O318  1  0.44116542  0.41646094  0.56262683  1
  O  O319  1  0.44017218  0.41656109  0.81180250  1
  O  O320  1  0.44366515  0.74944701  0.06405510  1
  O  O321  1  0.44173348  0.74945104  0.31219320  1
  O  O322  1  0.44442767  0.74984953  0.56321610  1
  O  O323  1  0.44374416  0.74940943  0.81340254  1
  O  O324  1  0.94371782  0.08342033  0.06395307  1
  O  O325  1  0.94378674  0.08383948  0.31384603  1
  O  O326  1  0.94417035  0.08391658  0.56338270  1
  O  O327  1  0.94442351  0.08393256  0.81326968  1
  O  O328  1  0.94154899  0.41624440  0.06281000  1
  O  O329  1  0.94023510  0.41584579  0.31281580  1
  O  O330  1  0.94045005  0.41632287  0.56287206  1
  O  O331  1  0.94150497  0.41607913  0.81241692  1
  O  O332  1  0.94114168  0.74976525  0.06262053  1
  O  O333  1  0.94062159  0.75000145  0.31276647  1
  O  O334  1  0.93915869  0.75010803  0.56238748  1
  O  O335  1  0.94094711  0.74958265  0.81257844  1
  O  O336  1  0.19464763  0.08314844  0.06205418  1
  O  O337  1  0.19125321  0.08335644  0.31335375  1
  O  O338  1  0.19226835  0.08358833  0.56209972  1
  O  O339  1  0.19414817  0.08293099  0.81127011  1
  O  O340  1  0.19265903  0.41674864  0.06157179  1
  O  O341  1  0.19398678  0.41680791  0.31236573  1
  O  O342  1  0.19147593  0.41640226  0.56269922  1
  O  O343  1  0.19125542  0.41661337  0.81226523  1
  O  O344  1  0.19321507  0.75029511  0.06181659  1
  O  O345  1  0.19365615  0.75006701  0.31195151  1
  O  O346  1  0.19309315  0.74985912  0.56129227  1
  O  O347  1  0.19283384  0.75049857  0.81164256  1
  O  O348  1  0.69022379  0.08293333  0.06287363  1
  O  O349  1  0.69007064  0.08354431  0.31222846  1
  O  O350  1  0.69286872  0.08311106  0.56122607  1
  O  O351  1  0.69374290  0.08369618  0.81198780  1
  O  O352  1  0.69198399  0.41689298  0.06281587  1
  O  O353  1  0.69360434  0.41632300  0.31145765  1
  O  O354  1  0.69181823  0.41667150  0.56264797  1
  O  O355  1  0.69411082  0.41653522  0.81102971  1
  O  O356  1  0.69090585  0.75013721  0.06293192  1
  O  O357  1  0.69133184  0.75020324  0.31178787  1
  O  O358  1  0.69422302  0.75016792  0.56115209  1
  O  O359  1  0.69244373  0.75007325  0.81331052  1
  O  O360  1  0.30724559  0.25013036  0.18896069  1
  O  O361  1  0.30878520  0.24965760  0.43692636  1
  O  O362  1  0.30621921  0.25070422  0.68787930  1
  O  O363  1  0.30739922  0.25018740  0.93717984  1
  O  O364  1  0.30562002  0.58362563  0.18820671  1
  O  O365  1  0.30667013  0.58321352  0.43849492  1
  O  O366  1  0.30622353  0.58275225  0.68796254  1
  O  O367  1  0.30533287  0.58333991  0.93817975  1
  O  O368  1  0.30924865  0.91640806  0.18716219  1
  O  O369  1  0.30759943  0.91699562  0.43827371  1
  O  O370  1  0.30804618  0.91619323  0.68665355  1
  O  O371  1  0.30665844  0.91635158  0.93900194  1
  O  O372  1  0.80635694  0.24947136  0.18908986  1
  O  O373  1  0.80847996  0.24915286  0.43716943  1
  O  O374  1  0.80587508  0.24987547  0.68798299  1
  O  O375  1  0.80726616  0.24990796  0.93828558  1
  O  O376  1  0.80913552  0.58331148  0.18718593  1
  O  O377  1  0.80760784  0.58306567  0.43655769  1
  O  O378  1  0.80561104  0.58270675  0.68809827  1
  O  O379  1  0.80734425  0.58296324  0.93881849  1
  O  O380  1  0.80865274  0.91724015  0.18706370  1
  O  O381  1  0.80540672  0.91734230  0.43791517  1
  O  O382  1  0.80651912  0.91744483  0.68917738  1
  O  O383  1  0.80943938  0.91720274  0.93817526  1
  O  O384  1  0.23304613  0.25041883  0.03825454  1
  O  O385  1  0.23478344  0.25048430  0.29090231  1
  O  O386  1  0.23389334  0.25001518  0.53754717  1
  O  O387  1  0.23257494  0.25003498  0.78894794  1
  O  O388  1  0.23104320  0.58294354  0.03903692  1
  O  O389  1  0.23229966  0.58359616  0.29009159  1
  O  O390  1  0.23353539  0.58227771  0.54003500  1
  O  O391  1  0.23152971  0.58274428  0.78845241  1
  O  O392  1  0.23461212  0.91689153  0.04134394  1
  O  O393  1  0.23382272  0.91604064  0.28753309  1
  O  O394  1  0.23491863  0.91725306  0.53994146  1
  O  O395  1  0.23279934  0.91730224  0.78719345  1
  O  O396  1  0.73383311  0.25053346  0.03966961  1
  O  O397  1  0.73240323  0.25047640  0.29003007  1
  O  O398  1  0.73289915  0.24991602  0.53686197  1
  O  O399  1  0.73219137  0.25088204  0.78976100  1
  O  O400  1  0.73537626  0.58324231  0.04127321  1
  O  O401  1  0.73558629  0.58254888  0.28832099  1
  O  O402  1  0.73334282  0.58357011  0.53761872  1
  O  O403  1  0.73432629  0.58262490  0.79126738  1
  O  O404  1  0.73549045  0.91648849  0.03925347  1
  O  O405  1  0.73427512  0.91639434  0.28750073  1
  O  O406  1  0.73151101  0.91635002  0.53934967  1
  O  O407  1  0.73463735  0.91682092  0.79177182  1
  O  O408  1  0.26564711  0.08372554  0.21266772  1
  O  O409  1  0.26679308  0.08359718  0.46145784  1
  O  O410  1  0.26730120  0.08402554  0.70979412  1
  O  O411  1  0.26814043  0.08320966  0.96036472  1
  O  O412  1  0.26780567  0.41728451  0.21076973  1
  O  O413  1  0.26667159  0.41631389  0.46261048  1
  O  O414  1  0.26587897  0.41598888  0.71157676  1
  O  O415  1  0.26477627  0.41686535  0.95937540  1
  O  O416  1  0.26736234  0.74935217  0.21038900  1
  O  O417  1  0.26669905  0.75023923  0.46001607  1
  O  O418  1  0.26555908  0.74958709  0.70959561  1
  O  O419  1  0.26586160  0.74993119  0.95950621  1
  O  O420  1  0.76427539  0.08398152  0.21153512  1
  O  O421  1  0.76521984  0.08345311  0.45889501  1
  O  O422  1  0.76627511  0.08394966  0.70950120  1
  O  O423  1  0.76523069  0.08377593  0.96260312  1
  O  O424  1  0.76775239  0.41617667  0.21088863  1
  O  O425  1  0.76657385  0.41640150  0.46206837  1
  O  O426  1  0.76727121  0.41633996  0.70920092  1
  O  O427  1  0.76764395  0.41695039  0.96287187  1
  O  O428  1  0.76684262  0.74972764  0.21215871  1
  O  O429  1  0.76698836  0.74984881  0.45923249  1
  O  O430  1  0.76761147  0.74989377  0.71290082  1
  O  O431  1  0.76695704  0.74956983  0.96359939  1
  O  O432  1  0.01646852  0.08348826  0.16573725  1
  O  O433  1  0.01834404  0.08356436  0.41463090  1
  O  O434  1  0.01913860  0.08381286  0.66383806  1
  O  O435  1  0.01701664  0.08248519  0.91538647  1
  O  O436  1  0.01467517  0.41646713  0.16450821  1
  O  O437  1  0.01396363  0.41683695  0.41402172  1
  O  O438  1  0.01658166  0.41570594  0.66238921  1
  O  O439  1  0.01677811  0.41664281  0.91257788  1
  O  O440  1  0.01420043  0.74986181  0.16429373  1
  O  O441  1  0.01434785  0.75012188  0.41405628  1
  O  O442  1  0.01399863  0.74985301  0.66275120  1
  O  O443  1  0.01443356  0.74992429  0.91403997  1
  O  O444  1  0.51673731  0.08382779  0.16264354  1
  O  O445  1  0.51745561  0.08356497  0.41524033  1
  O  O446  1  0.51440230  0.08364044  0.66342385  1
  O  O447  1  0.51375643  0.08341323  0.91291258  1
  O  O448  1  0.51752437  0.41691967  0.16517749  1
  O  O449  1  0.51481188  0.41602066  0.41327630  1
  O  O450  1  0.51657022  0.41657844  0.66261119  1
  O  O451  1  0.51499468  0.41594024  0.91250054  1
  O  O452  1  0.51778356  0.75021598  0.16500610  1
  O  O453  1  0.51772014  0.75023719  0.41199147  1
  O  O454  1  0.51711453  0.75029556  0.66506965  1
  O  O455  1  0.51833401  0.74983176  0.91432680  1
  O  O456  1  0.48476088  0.25024005  0.08665942  1
  O  O457  1  0.48370819  0.25022564  0.33722096  1
  O  O458  1  0.48529064  0.25014824  0.58673465  1
  O  O459  1  0.48181759  0.25040253  0.83457832  1
  O  O460  1  0.48389921  0.58324161  0.08475164  1
  O  O461  1  0.48540081  0.58339071  0.33718205  1
  O  O462  1  0.48511289  0.58327573  0.58360666  1
  O  O463  1  0.48401868  0.58329074  0.83476237  1
  O  O464  1  0.48222735  0.91598952  0.08505965  1
  O  O465  1  0.48533883  0.91764286  0.33658217  1
  O  O466  1  0.48278187  0.91661386  0.58508645  1
  O  O467  1  0.48340863  0.91661943  0.83508841  1
  O  O468  1  0.98438539  0.25002830  0.08455985  1
  O  O469  1  0.98274492  0.25011831  0.33791572  1
  O  O470  1  0.98623236  0.25032077  0.58672771  1
  O  O471  1  0.98603580  0.24977266  0.83591457  1
  O  O472  1  0.98302460  0.58328333  0.08749948  1
  O  O473  1  0.98133011  0.58279700  0.33548537  1
  O  O474  1  0.98398526  0.58274575  0.58689670  1
  O  O475  1  0.98496391  0.58293130  0.83579406  1
  O  O476  1  0.98266256  0.91602953  0.08813241  1
  O  O477  1  0.98432218  0.91686015  0.33482647  1
  O  O478  1  0.98469676  0.91726201  0.58636936  1
  O  O479  1  0.98265904  0.91678042  0.83496635  1
  O  O480  1  0.08818408  0.31523138  0.07707354  1
  O  O481  1  0.08615135  0.31496684  0.32769095  1
  O  O482  1  0.08983533  0.31538541  0.57747065  1
  O  O483  1  0.08909226  0.31606473  0.82771637  1
  O  O484  1  0.08660358  0.64831100  0.07724792  1
  O  O485  1  0.08517543  0.64812743  0.32632115  1
  O  O486  1  0.08762026  0.64702387  0.57747169  1
  O  O487  1  0.08878982  0.64737071  0.82717156  1
  O  O488  1  0.08612554  0.98115471  0.07767522  1
  O  O489  1  0.08834117  0.98229821  0.32752450  1
  O  O490  1  0.08845014  0.98250316  0.57825059  1
  O  O491  1  0.08721091  0.98110168  0.82678299  1
  O  O492  1  0.58774560  0.31636975  0.07831761  1
  O  O493  1  0.58792561  0.31404748  0.32720565  1
  O  O494  1  0.58847822  0.31644285  0.57741273  1
  O  O495  1  0.58629824  0.31479712  0.82630287  1
  O  O496  1  0.58787750  0.64807398  0.07861538  1
  O  O497  1  0.58899585  0.64876865  0.32814918  1
  O  O498  1  0.58978039  0.64693007  0.57689402  1
  O  O499  1  0.58768584  0.64902254  0.82790662  1
  O  O500  1  0.58559398  0.98188992  0.07720598  1
  O  O501  1  0.58894653  0.98227527  0.32866574  1
  O  O502  1  0.58662403  0.98182583  0.57664606  1
  O  O503  1  0.58708128  0.98107943  0.82730862  1
  O  O504  1  0.41380781  0.01738416  0.17210861  1
  O  O505  1  0.41275886  0.02003744  0.42312488  1
  O  O506  1  0.41124589  0.01716283  0.67153716  1
  O  O507  1  0.40930259  0.02026060  0.92204136  1
  O  O508  1  0.41330882  0.35226239  0.17348780  1
  O  O509  1  0.41130605  0.35053750  0.42245688  1
  O  O510  1  0.41255366  0.35179240  0.67267716  1
  O  O511  1  0.41153469  0.35055117  0.92143228  1
  O  O512  1  0.41365270  0.68544850  0.17388323  1
  O  O513  1  0.41431530  0.68496550  0.42265925  1
  O  O514  1  0.41330882  0.68560375  0.67262244  1
  O  O515  1  0.41463981  0.68452267  0.92314290  1
  O  O516  1  0.91290610  0.01769461  0.17307057  1
  O  O517  1  0.91444353  0.01901287  0.42339019  1
  O  O518  1  0.91498341  0.01902373  0.67273954  1
  O  O519  1  0.91298212  0.01769468  0.92185592  1
  O  O520  1  0.91065227  0.35230578  0.17286091  1
  O  O521  1  0.91049640  0.35123979  0.42294681  1
  O  O522  1  0.91280169  0.35110123  0.67310955  1
  O  O523  1  0.91315238  0.35131220  0.92260961  1
  O  O524  1  0.91054444  0.68476262  0.17222649  1
  O  O525  1  0.91115615  0.68374424  0.42211768  1
  O  O526  1  0.91037235  0.68502364  0.67251894  1
  O  O527  1  0.91039562  0.68600752  0.92266757  1
  O  O528  1  0.16264697  0.01736743  0.20352365  1
  O  O529  1  0.16256716  0.01956195  0.45204070  1
  O  O530  1  0.16341602  0.01849112  0.70153950  1
  O  O531  1  0.16429341  0.01865569  0.95257663  1
  O  O532  1  0.16394752  0.35258748  0.20284502  1
  O  O533  1  0.16339549  0.35050128  0.45272381  1
  O  O534  1  0.16209170  0.35128218  0.70246515  1
  O  O535  1  0.16110759  0.35150859  0.95242322  1
  O  O536  1  0.16310920  0.68470118  0.20305593  1
  O  O537  1  0.16292027  0.68495157  0.45194316  1
  O  O538  1  0.16148807  0.68499129  0.70284080  1
  O  O539  1  0.16190352  0.68463335  0.95317488  1
  O  O540  1  0.66024977  0.01988039  0.20177904  1
  O  O541  1  0.66142923  0.01807299  0.45213508  1
  O  O542  1  0.66227191  0.01944454  0.70280427  1
  O  O543  1  0.66212435  0.01804195  0.95278215  1
  O  O544  1  0.66387756  0.35046699  0.20217979  1
  O  O545  1  0.66281341  0.35167453  0.45274985  1
  O  O546  1  0.66318497  0.35079279  0.70200694  1
  O  O547  1  0.66384361  0.35226298  0.95244629  1
  O  O548  1  0.66312211  0.68484338  0.20180288  1
  O  O549  1  0.66296996  0.68501677  0.45185482  1
  O  O550  1  0.66412393  0.68497402  0.70318980  1
  O  O551  1  0.66325764  0.68481517  0.95270717  1
  O  O552  1  0.33706598  0.31440372  0.04709461  1
  O  O553  1  0.33851762  0.31632569  0.29760400  1
  O  O554  1  0.33750270  0.31491301  0.54696404  1
  O  O555  1  0.33634015  0.31537945  0.79766213  1
  O  O556  1  0.33483088  0.64832075  0.04771638  1
  O  O557  1  0.33635398  0.64876694  0.29741377  1
  O  O558  1  0.33714626  0.64755463  0.54788969  1
  O  O559  1  0.33546230  0.64720383  0.79777825  1
  O  O560  1  0.33838596  0.98264893  0.04772145  1
  O  O561  1  0.33754991  0.98051827  0.29738324  1
  O  O562  1  0.33850911  0.98311575  0.54705545  1
  O  O563  1  0.33650182  0.98238485  0.79600349  1
  O  O564  1  0.83761619  0.31574811  0.04724686  1
  O  O565  1  0.83655960  0.31557082  0.29811288  1
  O  O566  1  0.83652261  0.31517509  0.54699806  1
  O  O567  1  0.83616494  0.31612398  0.79676936  1
  O  O568  1  0.83926892  0.64823247  0.04774963  1
  O  O569  1  0.83888189  0.64828551  0.29707083  1
  O  O570  1  0.83694956  0.64848423  0.54615241  1
  O  O571  1  0.83826174  0.64728109  0.79706153  1
  O  O572  1  0.83947717  0.98084268  0.04840342  1
  O  O573  1  0.83757637  0.98132878  0.29748636  1
  O  O574  1  0.83537157  0.98131423  0.54771468  1
  O  O575  1  0.83876684  0.98151126  0.79833257  1
  O  O576  1  0.41268510  0.14752122  0.17232814  1
  O  O577  1  0.41394919  0.14989212  0.42337505  1
  O  O578  1  0.41017982  0.14732694  0.67235708  1
  O  O579  1  0.41103474  0.15045569  0.92192279  1
  O  O580  1  0.41356335  0.48215711  0.17359772  1
  O  O581  1  0.41094948  0.48062748  0.42320853  1
  O  O582  1  0.41280986  0.48172546  0.67270483  1
  O  O583  1  0.41152926  0.48078315  0.92210497  1
  O  O584  1  0.41366285  0.81545937  0.17325837  1
  O  O585  1  0.41404907  0.81505106  0.42196012  1
  O  O586  1  0.41333977  0.81582661  0.67205126  1
  O  O587  1  0.41436602  0.81461074  0.92271392  1
  O  O588  1  0.91252819  0.14784145  0.17324349  1
  O  O589  1  0.91465286  0.14915359  0.42347188  1
  O  O590  1  0.91556416  0.14899204  0.67322162  1
  O  O591  1  0.91344705  0.14785608  0.92272411  1
  O  O592  1  0.91122885  0.48230741  0.17207439  1
  O  O593  1  0.90999592  0.48144938  0.42228401  1
  O  O594  1  0.91294654  0.48096994  0.67327201  1
  O  O595  1  0.91292097  0.48125069  0.92252136  1
  O  O596  1  0.91033462  0.81481365  0.17232694  1
  O  O597  1  0.91010105  0.81392466  0.42274466  1
  O  O598  1  0.91044532  0.81507435  0.67235190  1
  O  O599  1  0.91115289  0.81608907  0.92181842  1
  O  O600  1  0.08857698  0.18533137  0.07701608  1
  O  O601  1  0.08654597  0.18488535  0.32847232  1
  O  O602  1  0.09011276  0.18523142  0.57774971  1
  O  O603  1  0.09035608  0.18596376  0.82731358  1
  O  O604  1  0.08675623  0.51835443  0.07751703  1
  O  O605  1  0.08546443  0.51821135  0.32639657  1
  O  O606  1  0.08706767  0.51670749  0.57784754  1
  O  O607  1  0.08847185  0.51729253  0.82776356  1
  O  O608  1  0.08602354  0.85111636  0.07746138  1
  O  O609  1  0.08825977  0.85218040  0.32640059  1
  O  O610  1  0.08799090  0.85227449  0.57740197  1
  O  O611  1  0.08625735  0.85123929  0.82638270  1
  O  O612  1  0.58850081  0.18587262  0.07866280  1
  O  O613  1  0.58702218  0.18405860  0.32794815  1
  O  O614  1  0.58951221  0.18642614  0.57746962  1
  O  O615  1  0.58560130  0.18493858  0.82624899  1
  O  O616  1  0.58745329  0.51763668  0.07807351  1
  O  O617  1  0.58882319  0.51858780  0.32777848  1
  O  O618  1  0.58846102  0.51678595  0.57685232  1
  O  O619  1  0.58784915  0.51877229  0.82736659  1
  O  O620  1  0.58654673  0.85163176  0.07803958  1
  O  O621  1  0.58863677  0.85202504  0.32777818  1
  O  O622  1  0.58706412  0.85194428  0.57689115  1
  O  O623  1  0.58711416  0.85084434  0.82785574  1
  O  O624  1  0.33633502  0.18433402  0.04698870  1
  O  O625  1  0.33910707  0.18625239  0.29849567  1
  O  O626  1  0.33733855  0.18481903  0.54690855  1
  O  O627  1  0.33669736  0.18536809  0.79707133  1
  O  O628  1  0.33504832  0.51833716  0.04771062  1
  O  O629  1  0.33640199  0.51867815  0.29738380  1
  O  O630  1  0.33740403  0.51729414  0.54742487  1
  O  O631  1  0.33501006  0.51700111  0.79742244  1
  O  O632  1  0.33891235  0.85251209  0.04822558  1
  O  O633  1  0.33726634  0.85025126  0.29671717  1
  O  O634  1  0.33920107  0.85303392  0.54786732  1
  O  O635  1  0.33625527  0.85223676  0.79721012  1
  O  O636  1  0.83737199  0.18561608  0.04808362  1
  O  O637  1  0.83638586  0.18564354  0.29918843  1
  O  O638  1  0.83649946  0.18509876  0.54767341  1
  O  O639  1  0.83613306  0.18603364  0.79770079  1
  O  O640  1  0.83942078  0.51815841  0.04772073  1
  O  O641  1  0.83946819  0.51806394  0.29674989  1
  O  O642  1  0.83688929  0.51831739  0.54662675  1
  O  O643  1  0.83790540  0.51702939  0.79650100  1
  O  O644  1  0.83899583  0.85072818  0.04738403  1
  O  O645  1  0.83781597  0.85112849  0.29646714  1
  O  O646  1  0.83543251  0.85121949  0.54681221  1
  O  O647  1  0.83851933  0.85142999  0.79787978  1
  O  O648  1  0.16177295  0.14775255  0.20359462  1
  O  O649  1  0.16317396  0.14955483  0.45244139  1
  O  O650  1  0.16321875  0.14851913  0.70214490  1
  O  O651  1  0.16451821  0.14876150  0.95283580  1
  O  O652  1  0.16380160  0.48268430  0.20340866  1
  O  O653  1  0.16267374  0.48047694  0.45243565  1
  O  O654  1  0.16204398  0.48134569  0.70211709  1
  O  O655  1  0.16054624  0.48159258  0.95253074  1
  O  O656  1  0.16374879  0.81488234  0.20230975  1
  O  O657  1  0.16291974  0.81506284  0.45209447  1
  O  O658  1  0.16215302  0.81538103  0.70238031  1
  O  O659  1  0.16215218  0.81484438  0.95264780  1
  O  O660  1  0.66082776  0.15004345  0.20313329  1
  O  O661  1  0.66106062  0.14823608  0.45226787  1
  O  O662  1  0.66258612  0.14956336  0.70324193  1
  O  O663  1  0.66132249  0.14812250  0.95303342  1
  O  O664  1  0.66363114  0.48033944  0.20142337  1
  O  O665  1  0.66331096  0.48179569  0.45250923  1
  O  O666  1  0.66298570  0.48067132  0.70148994  1
  O  O667  1  0.66415963  0.48210476  0.95274057  1
  O  O668  1  0.66311364  0.81472263  0.20131655  1
  O  O669  1  0.66302370  0.81513274  0.45182944  1
  O  O670  1  0.66411363  0.81501938  0.70316898  1
  O  O671  1  0.66340513  0.81478585  0.95238578  1
