# generated using pymatgen
data_Na2MnFe(PO4)2
_symmetry_space_group_name_H-M   'P 1'
_cell_length_a   21.08857156
_cell_length_b   18.94182573
_cell_length_c   20.04744916
_cell_angle_alpha   89.99975640
_cell_angle_beta   90.00105447
_cell_angle_gamma   90.00024182
_symmetry_Int_Tables_number   1
_chemical_formula_structural   Na2MnFe(PO4)2
_chemical_formula_sum   'Na96 Mn48 Fe48 P96 O384'
_cell_volume   8008.07479871
_cell_formula_units_Z   48
loop_
 _symmetry_equiv_pos_site_id
 _symmetry_equiv_pos_as_xyz
  1  'x, y, z'
loop_
 _atom_site_type_symbol
 _atom_site_label
 _atom_site_symmetry_multiplicity
 _atom_site_fract_x
 _atom_site_fract_y
 _atom_site_fract_z
 _atom_site_occupancy
  Na  Na0  1  0.00135071  0.00103387  -0.00039521  1
  Na  Na1  1  0.00073391  0.00097121  0.24917940  1
  Na  Na2  1  -0.00158634  -0.00005080  0.49973580  1
  Na  Na3  1  -0.00224498  -0.00055950  0.75053215  1
  Na  Na4  1  -0.00030948  0.33389662  -0.00021940  1
  Na  Na5  1  0.00054739  0.33354706  0.25021037  1
  Na  Na6  1  0.00125217  0.33438719  0.49978594  1
  Na  Na7  1  -0.00216057  0.33292845  0.75081380  1
  Na  Na8  1  0.00184620  0.66738903  -0.00060760  1
  Na  Na9  1  0.00025517  0.66624838  0.25010196  1
  Na  Na10  1  -0.00114731  0.66625292  0.50003141  1
  Na  Na11  1  -0.00094001  0.66608657  0.75116682  1
  Na  Na12  1  0.49715239  -0.00095957  0.00030364  1
  Na  Na13  1  0.49861657  0.00003166  0.25006832  1
  Na  Na14  1  0.49998770  0.00084278  0.49959114  1
  Na  Na15  1  0.49815061  -0.00043686  0.75038811  1
  Na  Na16  1  0.50272776  0.33358955  -0.00021533  1
  Na  Na17  1  0.50129644  0.33324570  0.24929696  1
  Na  Na18  1  0.49925426  0.33298617  0.50020166  1
  Na  Na19  1  0.50014695  0.33335148  0.75017553  1
  Na  Na20  1  0.50104637  0.66745235  0.00021772  1
  Na  Na21  1  0.49780409  0.66615178  0.25035098  1
  Na  Na22  1  0.49952758  0.66616243  0.50018803  1
  Na  Na23  1  0.50197950  0.66710385  0.74945338  1
  Na  Na24  1  0.24915936  0.00016642  0.12404758  1
  Na  Na25  1  0.24880561  -0.00017666  0.37423202  1
  Na  Na26  1  0.25169298  0.00143737  0.62578024  1
  Na  Na27  1  0.24904258  0.00003825  0.87629828  1
  Na  Na28  1  0.24766307  0.33274141  0.12451418  1
  Na  Na29  1  0.25036882  0.33364932  0.37442853  1
  Na  Na30  1  0.24967791  0.33309057  0.62504807  1
  Na  Na31  1  0.24976568  0.33392842  0.87572828  1
  Na  Na32  1  0.25153786  0.66720975  0.12456907  1
  Na  Na33  1  0.25290287  0.66685031  0.37582323  1
  Na  Na34  1  0.25248853  0.66694951  0.62552340  1
  Na  Na35  1  0.24941724  0.66622649  0.87338281  1
  Na  Na36  1  0.75143426  0.00043602  0.12397404  1
  Na  Na37  1  0.75094991  -0.00000073  0.37497424  1
  Na  Na38  1  0.75352169  0.00095909  0.62565077  1
  Na  Na39  1  0.75357404  0.00069547  0.87488598  1
  Na  Na40  1  0.74972389  0.33285946  0.12398044  1
  Na  Na41  1  0.74889623  0.33314039  0.37486407  1
  Na  Na42  1  0.75018844  0.33398366  0.62555315  1
  Na  Na43  1  0.75110434  0.33385201  0.87545925  1
  Na  Na44  1  0.74752973  0.66611933  0.12449245  1
  Na  Na45  1  0.74965177  0.66681379  0.37507307  1
  Na  Na46  1  0.74929142  0.66683066  0.62613937  1
  Na  Na47  1  0.74761884  0.66628493  0.87503008  1
  Na  Na48  1  -0.00020758  0.16655398  -0.00039022  1
  Na  Na49  1  -0.00017754  0.16665189  0.25047547  1
  Na  Na50  1  0.00096698  0.16595027  0.49966179  1
  Na  Na51  1  -0.00142263  0.16728002  0.74987153  1
  Na  Na52  1  0.00124883  0.49888136  -0.00047650  1
  Na  Na53  1  0.00107036  0.49901630  0.24917557  1
  Na  Na54  1  -0.00039712  0.50002546  0.49949994  1
  Na  Na55  1  -0.00153280  0.50049816  0.75149119  1
  Na  Na56  1  0.00133932  0.83314378  -0.00050831  1
  Na  Na57  1  0.00099729  0.83314654  0.24993224  1
  Na  Na58  1  -0.00213317  0.83354535  0.50039307  1
  Na  Na59  1  -0.00255998  0.83404408  0.75112108  1
  Na  Na60  1  0.50097245  0.16641903  0.00024441  1
  Na  Na61  1  0.49887402  0.16751470  0.24915945  1
  Na  Na62  1  0.49929040  0.16700343  0.49992690  1
  Na  Na63  1  0.49847015  0.16765911  0.75110418  1
  Na  Na64  1  0.50170731  0.49890895  -0.00080387  1
  Na  Na65  1  0.49906299  0.49972829  0.25100671  1
  Na  Na66  1  0.49863467  0.50011426  0.50095911  1
  Na  Na67  1  0.50112913  0.49926756  0.74950568  1
  Na  Na68  1  0.49906917  0.83357164  0.00112731  1
  Na  Na69  1  0.50013300  0.83309563  0.24958588  1
  Na  Na70  1  0.50033272  0.83325029  0.49919020  1
  Na  Na71  1  0.50087887  0.83266494  0.74926204  1
  Na  Na72  1  0.24899549  0.16692811  0.12456949  1
  Na  Na73  1  0.24900824  0.16693286  0.37474794  1
  Na  Na74  1  0.24957923  0.16706986  0.62500443  1
  Na  Na75  1  0.25003815  0.16618299  0.87597698  1
  Na  Na76  1  0.24716075  0.50049394  0.12457950  1
  Na  Na77  1  0.25078858  0.49956187  0.37500998  1
  Na  Na78  1  0.25371842  0.49820261  0.62532384  1
  Na  Na79  1  0.24783293  0.50032087  0.87475339  1
  Na  Na80  1  0.25139912  0.83344511  0.12418286  1
  Na  Na81  1  0.25297311  0.83235600  0.37455030  1
  Na  Na82  1  0.25046901  0.83332567  0.62603471  1
  Na  Na83  1  0.25068324  0.83331670  0.87457754  1
  Na  Na84  1  0.75083874  0.16730320  0.12427983  1
  Na  Na85  1  0.75192440  0.16627371  0.37395337  1
  Na  Na86  1  0.75284238  0.16602656  0.62547363  1
  Na  Na87  1  0.75273227  0.16638987  0.87510166  1
  Na  Na88  1  0.75052501  0.49869827  0.12484146  1
  Na  Na89  1  0.74942402  0.49971864  0.37558193  1
  Na  Na90  1  0.74877329  0.50013299  0.62591141  1
  Na  Na91  1  0.74939088  0.49935922  0.87478761  1
  Na  Na92  1  0.74790356  0.83409904  0.12355440  1
  Na  Na93  1  0.74798929  0.83359585  0.37545658  1
  Na  Na94  1  0.75060673  0.83267872  0.62600306  1
  Na  Na95  1  0.75081518  0.83270286  0.87526969  1
  Mn  Mn96  1  0.14169228  0.91654036  0.49820598  1
  Mn  Mn97  1  0.60841441  0.08382519  0.37246413  1
  Mn  Mn98  1  0.35713121  0.41700588  0.00195538  1
  Mn  Mn99  1  0.10729522  0.08290170  0.62327688  1
  Mn  Mn100  1  0.39220065  0.91722472  0.37747642  1
  Mn  Mn101  1  0.64307803  0.24951006  0.74823118  1
  Mn  Mn102  1  0.85730848  0.74971437  0.50256781  1
  Mn  Mn103  1  0.85778924  0.41699431  0.50233519  1
  Mn  Mn104  1  0.10763601  0.41741643  0.62335467  1
  Mn  Mn105  1  0.39254400  0.25001754  0.12643452  1
  Mn  Mn106  1  0.39188334  0.58276917  0.12644898  1
  Mn  Mn107  1  0.60703704  0.41624756  0.37301311  1
  Mn  Mn108  1  0.64170859  0.58257439  0.99761958  1
  Mn  Mn109  1  0.14213924  0.91696510  0.74778707  1
  Mn  Mn110  1  0.14246926  0.58298566  0.74686772  1
  Mn  Mn111  1  0.60783523  0.08296314  0.87272466  1
  Mn  Mn112  1  0.89244398  0.25032747  0.37690551  1
  Mn  Mn113  1  0.64288967  0.91709756  0.49832835  1
  Mn  Mn114  1  0.60694297  0.74995983  0.37251499  1
  Mn  Mn115  1  0.14201247  0.24984479  0.24752070  1
  Mn  Mn116  1  0.85705916  0.74991047  0.25146013  1
  Mn  Mn117  1  0.89261861  0.58320300  0.12719764  1
  Mn  Mn118  1  0.60849149  0.08347742  0.62335274  1
  Mn  Mn119  1  0.10676849  0.74975405  0.62287136  1
  Mn  Mn120  1  0.14282010  0.58402127  0.24822973  1
  Mn  Mn121  1  0.35730269  0.08347149  0.50202953  1
  Mn  Mn122  1  0.14240315  0.25014490  0.74857181  1
  Mn  Mn123  1  0.14298981  0.58315099  0.49869679  1
  Mn  Mn124  1  0.64294302  0.91710716  0.74838719  1
  Mn  Mn125  1  0.35773353  0.41629625  0.25158682  1
  Mn  Mn126  1  0.89161996  0.91623009  0.37625944  1
  Mn  Mn127  1  0.89184491  0.58338320  0.37693997  1
  Mn  Mn128  1  0.60799217  0.08323438  0.12271547  1
  Mn  Mn129  1  0.39155848  0.25031338  0.62753704  1
  Mn  Mn130  1  0.35865103  0.75032821  0.75287281  1
  Mn  Mn131  1  0.39319648  0.58328851  0.87744126  1
  Mn  Mn132  1  0.39236965  0.91653822  0.62737924  1
  Mn  Mn133  1  0.35653561  0.08347545  0.00222436  1
  Mn  Mn134  1  0.89243441  0.25080067  0.62695084  1
  Mn  Mn135  1  0.64196866  0.91796330  0.99726140  1
  Mn  Mn136  1  0.64120908  0.58307641  0.24763997  1
  Mn  Mn137  1  0.10880713  0.74995188  0.37327101  1
  Mn  Mn138  1  0.89216882  0.58355691  0.87793487  1
  Mn  Mn139  1  0.10932893  0.75000001  0.12221761  1
  Mn  Mn140  1  0.89295315  0.91664764  0.12737427  1
  Mn  Mn141  1  0.14281185  0.91612931  0.24771832  1
  Mn  Mn142  1  0.64220188  0.24959062  0.49776090  1
  Mn  Mn143  1  0.85764040  0.74954707  0.00260010  1
  Fe  Fe144  1  0.14125926  0.25016503  0.99752177  1
  Fe  Fe145  1  0.10619581  0.08359538  0.87297069  1
  Fe  Fe146  1  0.85720517  0.41651331  0.25136569  1
  Fe  Fe147  1  0.39217892  0.91689511  0.12686293  1
  Fe  Fe148  1  0.89352412  0.91662526  0.87731627  1
  Fe  Fe149  1  0.89113620  0.58367277  0.62710977  1
  Fe  Fe150  1  0.35766070  0.08407101  0.75249305  1
  Fe  Fe151  1  0.85826323  0.08345260  0.50146952  1
  Fe  Fe152  1  0.35710417  0.41647638  0.50187125  1
  Fe  Fe153  1  0.10659850  0.41612575  0.12278356  1
  Fe  Fe154  1  0.60702116  0.75029784  0.87365329  1
  Fe  Fe155  1  0.89189165  0.91563966  0.62745240  1
  Fe  Fe156  1  0.35731785  0.74966633  0.00063153  1
  Fe  Fe157  1  0.64409191  0.24950363  0.99792571  1
  Fe  Fe158  1  0.14271221  0.25037020  0.49820849  1
  Fe  Fe159  1  0.89296059  0.25032405  0.12660496  1
  Fe  Fe160  1  0.85652126  0.74944261  0.75245068  1
  Fe  Fe161  1  0.60764337  0.74978322  0.62310100  1
  Fe  Fe162  1  0.39243721  0.25028366  0.37634184  1
  Fe  Fe163  1  0.35815394  0.41583935  0.75274405  1
  Fe  Fe164  1  0.10706176  0.08401157  0.12332594  1
  Fe  Fe165  1  0.35802055  0.74979684  0.50250013  1
  Fe  Fe166  1  0.85829133  0.08376792  0.00209488  1
  Fe  Fe167  1  0.39413278  0.58312465  0.62692052  1
  Fe  Fe168  1  0.10634104  0.41629773  0.87287074  1
  Fe  Fe169  1  0.35827546  0.75034190  0.25166730  1
  Fe  Fe170  1  0.64218391  0.58313005  0.49873757  1
  Fe  Fe171  1  0.14246650  0.58395080  0.99795244  1
  Fe  Fe172  1  0.85854772  0.08353748  0.75233161  1
  Fe  Fe173  1  0.39297712  0.25004663  0.87733366  1
  Fe  Fe174  1  0.60607701  0.74996160  0.12357162  1
  Fe  Fe175  1  0.14321003  0.91615727  0.99767835  1
  Fe  Fe176  1  0.64282873  0.58327031  0.74810334  1
  Fe  Fe177  1  0.85663434  0.41708929  0.75193702  1
  Fe  Fe178  1  0.60841479  0.41691650  0.12344479  1
  Fe  Fe179  1  0.35673536  0.08365013  0.25161094  1
  Fe  Fe180  1  0.39218880  0.58227588  0.37764969  1
  Fe  Fe181  1  0.85717899  0.41648459  0.00200103  1
  Fe  Fe182  1  0.10761239  0.75033577  0.87294669  1
  Fe  Fe183  1  0.64307805  0.24950107  0.24796005  1
  Fe  Fe184  1  0.60697446  0.41652862  0.62339135  1
  Fe  Fe185  1  0.39233423  0.91691547  0.87674957  1
  Fe  Fe186  1  0.85748102  0.08340309  0.25114400  1
  Fe  Fe187  1  0.10701309  0.08325246  0.37309260  1
  Fe  Fe188  1  0.89284205  0.25003904  0.87722493  1
  Fe  Fe189  1  0.64220828  0.91753848  0.24789321  1
  Fe  Fe190  1  0.10802517  0.41673252  0.37323039  1
  Fe  Fe191  1  0.60777178  0.41655254  0.87286558  1
  P  P192  1  0.05270441  0.24994257  0.10961590  1
  P  P193  1  0.05501468  0.25003659  0.36131991  1
  P  P194  1  0.05408330  0.25035743  0.60960474  1
  P  P195  1  0.05293610  0.25003310  0.86126719  1
  P  P196  1  0.05434847  0.58260971  0.10920675  1
  P  P197  1  0.05376920  0.58254458  0.36013524  1
  P  P198  1  0.05113692  0.58324595  0.61025352  1
  P  P199  1  0.05519015  0.58324130  0.86127852  1
  P  P200  1  0.05476411  0.91755916  0.10905857  1
  P  P201  1  0.05336152  0.91742436  0.35985583  1
  P  P202  1  0.05108024  0.91644245  0.61046175  1
  P  P203  1  0.05394616  0.91692201  0.86133623  1
  P  P204  1  0.55604837  0.25048805  0.11013500  1
  P  P205  1  0.55275646  0.24992798  0.35911451  1
  P  P206  1  0.55335976  0.25053409  0.61044956  1
  P  P207  1  0.55402153  0.25027342  0.86137597  1
  P  P208  1  0.55306356  0.58311031  0.11002420  1
  P  P209  1  0.55238039  0.58294854  0.36158387  1
  P  P210  1  0.55479218  0.58297015  0.61101479  1
  P  P211  1  0.55450077  0.58322218  0.85950753  1
  P  P212  1  0.55310726  0.91657533  0.11109678  1
  P  P213  1  0.55407752  0.91720009  0.35915390  1
  P  P214  1  0.55364229  0.91643089  0.61007589  1
  P  P215  1  0.55187171  0.91622298  0.86017361  1
  P  P216  1  0.44558443  0.08294803  0.14016719  1
  P  P217  1  0.44561682  0.08474232  0.38866224  1
  P  P218  1  0.44610734  0.08371982  0.64102783  1
  P  P219  1  0.44526831  0.08366734  0.88943822  1
  P  P220  1  0.44838361  0.41635966  0.13938132  1
  P  P221  1  0.44546206  0.41578321  0.39058913  1
  P  P222  1  0.44592292  0.41717179  0.63954271  1
  P  P223  1  0.44711620  0.41578787  0.88910759  1
  P  P224  1  0.44518335  0.75044260  0.13884231  1
  P  P225  1  0.44451838  0.74935264  0.38962849  1
  P  P226  1  0.44706990  0.74907098  0.63869880  1
  P  P227  1  0.44753090  0.75059518  0.89061118  1
  P  P228  1  0.94626208  0.08448812  0.13906635  1
  P  P229  1  0.94569529  0.08334551  0.38890921  1
  P  P230  1  0.94475217  0.08283155  0.63958319  1
  P  P231  1  0.94564220  0.08345543  0.88939819  1
  P  P232  1  0.94592007  0.41571316  0.13907534  1
  P  P233  1  0.94683493  0.41659021  0.38868186  1
  P  P234  1  0.94577868  0.41789990  0.64111612  1
  P  P235  1  0.94521987  0.41624877  0.88947050  1
  P  P236  1  0.94786955  0.74997407  0.14007023  1
  P  P237  1  0.94671958  0.74994316  0.38992555  1
  P  P238  1  0.94514074  0.74933041  0.64128066  1
  P  P239  1  0.94660951  0.75039218  0.88908924  1
  P  P240  1  0.19588395  0.08331471  0.23509082  1
  P  P241  1  0.19552245  0.08394241  0.48459322  1
  P  P242  1  0.19663790  0.08376839  0.73663696  1
  P  P243  1  0.19348731  0.08357005  0.98582739  1
  P  P244  1  0.19490540  0.41667079  0.23508811  1
  P  P245  1  0.19729635  0.41640698  0.48487129  1
  P  P246  1  0.19708422  0.41615076  0.73614578  1
  P  P247  1  0.19380668  0.41649908  0.98546977  1
  P  P248  1  0.19912628  0.74992773  0.23487000  1
  P  P249  1  0.19861272  0.74968902  0.48562345  1
  P  P250  1  0.19577018  0.75018242  0.73571742  1
  P  P251  1  0.19753163  0.75030056  0.98418538  1
  P  P252  1  0.69821645  0.08347989  0.23462359  1
  P  P253  1  0.69875254  0.08345057  0.48497991  1
  P  P254  1  0.69909054  0.08322136  0.73556957  1
  P  P255  1  0.69848534  0.08428670  0.98478479  1
  P  P256  1  0.69703712  0.41566281  0.23461752  1
  P  P257  1  0.69510481  0.41740872  0.48643393  1
  P  P258  1  0.69563371  0.41695530  0.73602399  1
  P  P259  1  0.69600057  0.41552596  0.98546815  1
  P  P260  1  0.69521820  0.75079135  0.23406776  1
  P  P261  1  0.69491655  0.74894681  0.48641408  1
  P  P262  1  0.69542293  0.74973270  0.73632719  1
  P  P263  1  0.69422540  0.75025094  0.98537887  1
  P  P264  1  0.30239916  0.25039988  0.01378594  1
  P  P265  1  0.30385368  0.24928745  0.26480863  1
  P  P266  1  0.30306226  0.25075473  0.51359990  1
  P  P267  1  0.30426844  0.25013435  0.76635712  1
  P  P268  1  0.30186550  0.58374881  0.01405289  1
  P  P269  1  0.30453049  0.58363146  0.26535251  1
  P  P270  1  0.30590927  0.58271576  0.51501174  1
  P  P271  1  0.30554379  0.58218162  0.76389298  1
  P  P272  1  0.30422589  0.91595388  0.01397342  1
  P  P273  1  0.30504118  0.91730539  0.26328247  1
  P  P274  1  0.30311583  0.91627914  0.51535221  1
  P  P275  1  0.30416460  0.91788725  0.76610819  1
  P  P276  1  0.80521854  0.25018862  0.01405980  1
  P  P277  1  0.80398906  0.25050999  0.26303758  1
  P  P278  1  0.80352584  0.24978536  0.51485771  1
  P  P279  1  0.80479662  0.25066448  0.76577322  1
  P  P280  1  0.80292292  0.58232479  0.01513545  1
  P  P281  1  0.80268158  0.58228990  0.26472337  1
  P  P282  1  0.80206656  0.58321894  0.51611718  1
  P  P283  1  0.80303733  0.58338082  0.76437340  1
  P  P284  1  0.80509551  0.91729215  0.01370209  1
  P  P285  1  0.80171941  0.91692209  0.26423805  1
  P  P286  1  0.80426417  0.91706184  0.51574389  1
  P  P287  1  0.80582094  0.91599296  0.76502098  1
  O  O288  1  0.05613492  0.24974028  0.18633575  1
  O  O289  1  0.05881202  0.25033562  0.43805182  1
  O  O290  1  0.05688624  0.25036135  0.68644170  1
  O  O291  1  0.05723669  0.25015854  0.93793353  1
  O  O292  1  0.05710609  0.58353135  0.18598567  1
  O  O293  1  0.05698899  0.58316397  0.43689993  1
  O  O294  1  0.05554826  0.58296926  0.68692505  1
  O  O295  1  0.05932656  0.58363120  0.93801898  1
  O  O296  1  0.05757657  0.91674486  0.18589509  1
  O  O297  1  0.05595227  0.91669472  0.43665510  1
  O  O298  1  0.05529003  0.91667328  0.68714530  1
  O  O299  1  0.05885622  0.91648731  0.93795250  1
  O  O300  1  0.56012392  0.24952230  0.18692568  1
  O  O301  1  0.55670980  0.24954997  0.43582884  1
  O  O302  1  0.55682838  0.24990256  0.68719168  1
  O  O303  1  0.55938347  0.24940114  0.93797414  1
  O  O304  1  0.55516180  0.58296280  0.18707704  1
  O  O305  1  0.55740942  0.58301275  0.43813234  1
  O  O306  1  0.55931269  0.58312485  0.68776549  1
  O  O307  1  0.55678384  0.58292644  0.93589140  1
  O  O308  1  0.55819780  0.91770666  0.18772833  1
  O  O309  1  0.55770044  0.91754560  0.43590162  1
  O  O310  1  0.55684335  0.91698898  0.68687828  1
  O  O311  1  0.55557670  0.91725408  0.93686912  1
  O  O312  1  0.44224619  0.08361999  0.06339850  1
  O  O313  1  0.44128586  0.08406877  0.31199492  1
  O  O314  1  0.44278021  0.08382652  0.56423046  1
  O  O315  1  0.44154287  0.08388626  0.81268722  1
  O  O316  1  0.44409879  0.41630558  0.06278286  1
  O  O317  1  0.44304912  0.41586477  0.31367011  1
  O  O318  1  0.44106088  0.41605272  0.56293258  1
  O  O319  1  0.44237410  0.41614204  0.81241468  1
  O  O320  1  0.44057644  0.74972614  0.06220055  1
  O  O321  1  0.44096994  0.75012517  0.31273485  1
  O  O322  1  0.44224338  0.74991993  0.56212532  1
  O  O323  1  0.44432151  0.74987120  0.81371945  1
  O  O324  1  0.94182843  0.08374572  0.06235043  1
  O  O325  1  0.94063488  0.08343330  0.31216798  1
  O  O326  1  0.94133222  0.08365929  0.56275836  1
  O  O327  1  0.94144577  0.08367052  0.81262999  1
  O  O328  1  0.94119431  0.41654135  0.06235083  1
  O  O329  1  0.94163610  0.41641693  0.31206051  1
  O  O330  1  0.94320349  0.41726768  0.56427734  1
  O  O331  1  0.94015811  0.41713502  0.81287432  1
  O  O332  1  0.94416433  0.75005192  0.06320106  1
  O  O333  1  0.94330669  0.74990353  0.31321129  1
  O  O334  1  0.94259466  0.74909474  0.56444592  1
  O  O335  1  0.94109489  0.74927435  0.81259145  1
  O  O336  1  0.18993548  0.08412499  0.06263702  1
  O  O337  1  0.19106106  0.08337549  0.31174913  1
  O  O338  1  0.19281729  0.08327026  0.56147022  1
  O  O339  1  0.19093624  0.08352687  0.81323764  1
  O  O340  1  0.18996106  0.41597641  0.06228764  1
  O  O341  1  0.19117048  0.41650657  0.31185516  1
  O  O342  1  0.19376855  0.41699274  0.56162748  1
  O  O343  1  0.19114250  0.41636183  0.81270640  1
  O  O344  1  0.19466986  0.75033979  0.06060456  1
  O  O345  1  0.19518363  0.74990019  0.31165257  1
  O  O346  1  0.19403273  0.74968574  0.56229035  1
  O  O347  1  0.19080814  0.75026340  0.81245886  1
  O  O348  1  0.69418987  0.08343834  0.06139552  1
  O  O349  1  0.69473314  0.08344641  0.31130722  1
  O  O350  1  0.69493684  0.08362795  0.56165224  1
  O  O351  1  0.69447116  0.08307948  0.81219487  1
  O  O352  1  0.69155848  0.41648389  0.06221046  1
  O  O353  1  0.69309328  0.41629895  0.31131896  1
  O  O354  1  0.69097222  0.41670226  0.56316878  1
  O  O355  1  0.69113039  0.41623634  0.81276980  1
  O  O356  1  0.68938295  0.75044297  0.06216406  1
  O  O357  1  0.69253757  0.74987592  0.31091466  1
  O  O358  1  0.69112699  0.74959609  0.56323165  1
  O  O359  1  0.69057402  0.75053957  0.81300375  1
  O  O360  1  0.30679928  0.25017035  0.18800048  1
  O  O361  1  0.30776412  0.25018749  0.43704587  1
  O  O362  1  0.30656221  0.25028104  0.68938909  1
  O  O363  1  0.30820165  0.25056073  0.93725643  1
  O  O364  1  0.30690876  0.58260951  0.18852813  1
  O  O365  1  0.30913023  0.58266247  0.43816644  1
  O  O366  1  0.31027000  0.58282319  0.68719478  1
  O  O367  1  0.30596584  0.58281410  0.93738959  1
  O  O368  1  0.30831031  0.91738370  0.18648004  1
  O  O369  1  0.30621611  0.91687646  0.43854887  1
  O  O370  1  0.30717977  0.91705973  0.68932734  1
  O  O371  1  0.30894133  0.91671583  0.93727311  1
  O  O372  1  0.80848790  0.25058994  0.18636670  1
  O  O373  1  0.80644529  0.25065526  0.43805026  1
  O  O374  1  0.80723134  0.25076208  0.68902825  1
  O  O375  1  0.80963915  0.25024140  0.93736345  1
  O  O376  1  0.80605144  0.58286877  0.18800057  1
  O  O377  1  0.80612433  0.58323073  0.43941386  1
  O  O378  1  0.80732874  0.58345376  0.68771308  1
  O  O379  1  0.80600469  0.58314477  0.93811738  1
  O  O380  1  0.80573209  0.91629978  0.18755052  1
  O  O381  1  0.80654416  0.91593218  0.43891790  1
  O  O382  1  0.80904786  0.91587448  0.68818879  1
  O  O383  1  0.80978028  0.91636731  0.93698267  1
  O  O384  1  0.23184032  0.25000767  0.03668880  1
  O  O385  1  0.23410037  0.24998844  0.28960357  1
  O  O386  1  0.23286303  0.25031469  0.53783999  1
  O  O387  1  0.23466284  0.25011570  0.79173397  1
  O  O388  1  0.23181058  0.58387907  0.03853204  1
  O  O389  1  0.23502717  0.58320042  0.29104272  1
  O  O390  1  0.23606309  0.58253641  0.54004948  1
  O  O391  1  0.23542192  0.58285722  0.78757693  1
  O  O392  1  0.23374267  0.91674704  0.03729115  1
  O  O393  1  0.23533882  0.91656457  0.28845299  1
  O  O394  1  0.23357311  0.91699288  0.54094855  1
  O  O395  1  0.23442094  0.91704196  0.79102226  1
  O  O396  1  0.73484085  0.25008194  0.03769704  1
  O  O397  1  0.73376377  0.25008241  0.28731401  1
  O  O398  1  0.73408776  0.24989607  0.54060405  1
  O  O399  1  0.73515246  0.25026059  0.79125130  1
  O  O400  1  0.73340503  0.58221614  0.03996710  1
  O  O401  1  0.73295619  0.58278713  0.28990076  1
  O  O402  1  0.73203293  0.58330833  0.54049706  1
  O  O403  1  0.73275458  0.58312357  0.78836227  1
  O  O404  1  0.73492963  0.91738546  0.03734268  1
  O  O405  1  0.73176580  0.91705207  0.28903333  1
  O  O406  1  0.73478795  0.91684284  0.54158518  1
  O  O407  1  0.73587842  0.91639573  0.78976586  1
  O  O408  1  0.26615884  0.08373555  0.21128651  1
  O  O409  1  0.26520640  0.08336576  0.45939940  1
  O  O410  1  0.26704679  0.08418965  0.71341011  1
  O  O411  1  0.26363828  0.08330413  0.96187179  1
  O  O412  1  0.26493180  0.41641489  0.21066145  1
  O  O413  1  0.26740083  0.41684693  0.46040708  1
  O  O414  1  0.26756930  0.41560967  0.71314343  1
  O  O415  1  0.26392502  0.41676153  0.96131002  1
  O  O416  1  0.26916589  0.75023454  0.21041911  1
  O  O417  1  0.26877541  0.74936914  0.46162135  1
  O  O418  1  0.26611339  0.75024768  0.71255664  1
  O  O419  1  0.26760564  0.75004073  0.95897862  1
  O  O420  1  0.76823483  0.08373733  0.20970389  1
  O  O421  1  0.76874374  0.08320513  0.46028463  1
  O  O422  1  0.76942066  0.08346012  0.71208720  1
  O  O423  1  0.76871804  0.08411772  0.96088914  1
  O  O424  1  0.76709615  0.41589406  0.21012228  1
  O  O425  1  0.76500971  0.41686352  0.46190793  1
  O  O426  1  0.76610340  0.41683403  0.71260569  1
  O  O427  1  0.76647204  0.41607647  0.96196659  1
  O  O428  1  0.76478842  0.75002534  0.20849169  1
  O  O429  1  0.76479356  0.74963836  0.46180699  1
  O  O430  1  0.76592611  0.74998448  0.71308048  1
  O  O431  1  0.76452125  0.74977668  0.96195066  1
  O  O432  1  0.01668402  0.08398985  0.16269968  1
  O  O433  1  0.01605188  0.08332078  0.41234443  1
  O  O434  1  0.01462910  0.08343683  0.66443788  1
  O  O435  1  0.01603115  0.08355327  0.91304305  1
  O  O436  1  0.01640257  0.41603744  0.16242375  1
  O  O437  1  0.01715016  0.41679107  0.41236636  1
  O  O438  1  0.01536496  0.41698992  0.66664997  1
  O  O439  1  0.01574174  0.41666303  0.91254680  1
  O  O440  1  0.01755792  0.74990090  0.16465937  1
  O  O441  1  0.01631647  0.75002577  0.41529600  1
  O  O442  1  0.01472802  0.74964698  0.66686444  1
  O  O443  1  0.01714085  0.75019839  0.91224513  1
  O  O444  1  0.51546959  0.08371991  0.16474287  1
  O  O445  1  0.51556473  0.08410347  0.41312375  1
  O  O446  1  0.51582852  0.08370028  0.66608132  1
  O  O447  1  0.51514015  0.08311595  0.91427236  1
  O  O448  1  0.51838569  0.41647689  0.16396648  1
  O  O449  1  0.51503993  0.41616793  0.41603022  1
  O  O450  1  0.51641340  0.41675901  0.66297318  1
  O  O451  1  0.51756394  0.41639526  0.91248279  1
  O  O452  1  0.51553288  0.74988222  0.16276758  1
  O  O453  1  0.51452812  0.75012867  0.41386404  1
  O  O454  1  0.51742529  0.74925836  0.66242060  1
  O  O455  1  0.51751978  0.75027037  0.91517418  1
  O  O456  1  0.48591428  0.24976292  0.08609550  1
  O  O457  1  0.48265771  0.25061222  0.33486136  1
  O  O458  1  0.48354616  0.25035008  0.58558276  1
  O  O459  1  0.48363312  0.25038716  0.83792716  1
  O  O460  1  0.48369785  0.58299810  0.08390381  1
  O  O461  1  0.48204335  0.58243515  0.33795702  1
  O  O462  1  0.48439776  0.58296302  0.58738750  1
  O  O463  1  0.48483387  0.58315229  0.83371641  1
  O  O464  1  0.48268440  0.91666268  0.08761851  1
  O  O465  1  0.48412571  0.91669027  0.33494320  1
  O  O466  1  0.48402983  0.91666882  0.58470839  1
  O  O467  1  0.48187397  0.91626520  0.83552844  1
  O  O468  1  0.98263657  0.25014925  0.08499194  1
  O  O469  1  0.98517412  0.24993480  0.33650365  1
  O  O470  1  0.98441299  0.25044449  0.58447239  1
  O  O471  1  0.98264199  0.24991470  0.83733125  1
  O  O472  1  0.98466321  0.58312054  0.08376659  1
  O  O473  1  0.98416359  0.58248766  0.33474449  1
  O  O474  1  0.98105268  0.58335946  0.58603517  1
  O  O475  1  0.98494243  0.58305783  0.83750981  1
  O  O476  1  0.98501255  0.91700340  0.08400306  1
  O  O477  1  0.98391292  0.91727942  0.33397278  1
  O  O478  1  0.98098690  0.91626588  0.58625720  1
  O  O479  1  0.98350930  0.91714661  0.83784120  1
  O  O480  1  0.08674651  0.31491658  0.07693415  1
  O  O481  1  0.08863703  0.31506789  0.32830788  1
  O  O482  1  0.08841020  0.31536001  0.57730311  1
  O  O483  1  0.08614164  0.31518051  0.82800740  1
  O  O484  1  0.08910441  0.64725525  0.07658829  1
  O  O485  1  0.08780983  0.64774112  0.32761367  1
  O  O486  1  0.08511426  0.64817788  0.57749674  1
  O  O487  1  0.08846506  0.64828191  0.82803780  1
  O  O488  1  0.08853164  0.98295559  0.07712544  1
  O  O489  1  0.08758109  0.98265463  0.32790808  1
  O  O490  1  0.08469380  0.98152968  0.57769436  1
  O  O491  1  0.08685860  0.98227264  0.82804206  1
  O  O492  1  0.58938916  0.31582671  0.07754244  1
  O  O493  1  0.58711190  0.31482239  0.32664218  1
  O  O494  1  0.58711744  0.31581510  0.57821981  1
  O  O495  1  0.58734693  0.31534596  0.82820455  1
  O  O496  1  0.58731666  0.64827994  0.07833600  1
  O  O497  1  0.58526817  0.64802401  0.32791598  1
  O  O498  1  0.58812190  0.64790447  0.57758518  1
  O  O499  1  0.58870436  0.64848544  0.82725408  1
  O  O500  1  0.58624484  0.98151714  0.07713658  1
  O  O501  1  0.58783391  0.98222979  0.32616596  1
  O  O502  1  0.58767084  0.98160812  0.57770009  1
  O  O503  1  0.58584851  0.98113204  0.82715003  1
  O  O504  1  0.41178837  0.01772933  0.17244861  1
  O  O505  1  0.41180386  0.01987617  0.42198358  1
  O  O506  1  0.41169067  0.01883172  0.67341503  1
  O  O507  1  0.41124541  0.01854686  0.92190940  1
  O  O508  1  0.41461116  0.35131913  0.17220072  1
  O  O509  1  0.41140420  0.35050706  0.42273138  1
  O  O510  1  0.41235599  0.35243395  0.67343054  1
  O  O511  1  0.41395566  0.35085551  0.92264593  1
  O  O512  1  0.41156073  0.68558335  0.17229376  1
  O  O513  1  0.41129262  0.68402542  0.42229629  1
  O  O514  1  0.41395257  0.68396106  0.67198931  1
  O  O515  1  0.41347109  0.68559508  0.92334167  1
  O  O516  1  0.91268206  0.01966098  0.17263787  1
  O  O517  1  0.91215599  0.01844272  0.42215855  1
  O  O518  1  0.91113749  0.01764598  0.67220671  1
  O  O519  1  0.91238671  0.01838192  0.92263117  1
  O  O520  1  0.91291479  0.35043633  0.17223873  1
  O  O521  1  0.91371878  0.35156436  0.42226486  1
  O  O522  1  0.91099377  0.35308445  0.67338416  1
  O  O523  1  0.91228731  0.35104856  0.92280574  1
  O  O524  1  0.91369493  0.68491857  0.17232525  1
  O  O525  1  0.91250321  0.68493723  0.42242465  1
  O  O526  1  0.91082747  0.68425185  0.67369979  1
  O  O527  1  0.91349517  0.68541442  0.92303712  1
  O  O528  1  0.16253555  0.01835679  0.20174886  1
  O  O529  1  0.16090692  0.01916835  0.45204244  1
  O  O530  1  0.16371204  0.01869609  0.70284691  1
  O  O531  1  0.16002407  0.01830479  0.95305158  1
  O  O532  1  0.16094208  0.35177682  0.20206131  1
  O  O533  1  0.16346872  0.35136812  0.45219047  1
  O  O534  1  0.16371406  0.35119963  0.70285707  1
  O  O535  1  0.16018662  0.35143865  0.95220799  1
  O  O536  1  0.16560221  0.68484096  0.20213518  1
  O  O537  1  0.16504069  0.68458068  0.45272910  1
  O  O538  1  0.16273693  0.68509919  0.70235642  1
  O  O539  1  0.16314169  0.68546106  0.95146284  1
  O  O540  1  0.66439086  0.01845488  0.20179368  1
  O  O541  1  0.66473505  0.01849569  0.45234989  1
  O  O542  1  0.66581298  0.01816328  0.70244243  1
  O  O543  1  0.66475461  0.01939996  0.95151920  1
  O  O544  1  0.66326224  0.35064544  0.20189365  1
  O  O545  1  0.66131539  0.35257246  0.45314217  1
  O  O546  1  0.66228279  0.35206877  0.70246032  1
  O  O547  1  0.66304316  0.35014226  0.95244589  1
  O  O548  1  0.66031079  0.68594348  0.20182355  1
  O  O549  1  0.66157487  0.68358389  0.45371618  1
  O  O550  1  0.66230028  0.68449393  0.70313768  1
  O  O551  1  0.66059634  0.68538650  0.95234529  1
  O  O552  1  0.33533864  0.31541740  0.04754634  1
  O  O553  1  0.33835412  0.31405316  0.29750985  1
  O  O554  1  0.33625694  0.31597467  0.54688567  1
  O  O555  1  0.33878472  0.31511037  0.79856982  1
  O  O556  1  0.33584931  0.64886665  0.04620408  1
  O  O557  1  0.33876896  0.64883156  0.29714113  1
  O  O558  1  0.33990879  0.64776182  0.54773593  1
  O  O559  1  0.33910705  0.64724755  0.79716248  1
  O  O560  1  0.33780803  0.98069142  0.04772005  1
  O  O561  1  0.33823393  0.98274180  0.29613369  1
  O  O562  1  0.33762725  0.98125479  0.54751207  1
  O  O563  1  0.33790626  0.98309390  0.79847517  1
  O  O564  1  0.83840132  0.31535545  0.04739836  1
  O  O565  1  0.83710888  0.31567262  0.29647975  1
  O  O566  1  0.83773963  0.31475301  0.54742522  1
  O  O567  1  0.83872744  0.31588843  0.79817032  1
  O  O568  1  0.83692676  0.64731303  0.04766987  1
  O  O569  1  0.83680574  0.64732007  0.29726644  1
  O  O570  1  0.83605492  0.64813893  0.54902040  1
  O  O571  1  0.83624189  0.64847622  0.79783192  1
  O  O572  1  0.83854829  0.98259179  0.04634560  1
  O  O573  1  0.83589378  0.98201458  0.29645486  1
  O  O574  1  0.83870402  0.98231365  0.54722032  1
  O  O575  1  0.84004814  0.98100783  0.79752239  1
  O  O576  1  0.41108960  0.14776315  0.17270468  1
  O  O577  1  0.41230003  0.15011278  0.42147492  1
  O  O578  1  0.41175691  0.14870493  0.67351301  1
  O  O579  1  0.41181806  0.14886972  0.92249348  1
  O  O580  1  0.41435115  0.48128368  0.17208416  1
  O  O581  1  0.41095735  0.48061022  0.42292468  1
  O  O582  1  0.41301193  0.48243476  0.67271778  1
  O  O583  1  0.41378503  0.48088833  0.92242831  1
  O  O584  1  0.41213257  0.81569782  0.17201638  1
  O  O585  1  0.41046285  0.81414642  0.42276642  1
  O  O586  1  0.41371761  0.81394919  0.67239992  1
  O  O587  1  0.41336847  0.81551211  0.92292934  1
  O  O588  1  0.91313144  0.14972195  0.17208547  1
  O  O589  1  0.91244620  0.14833632  0.42244296  1
  O  O590  1  0.91073393  0.14771394  0.67267941  1
  O  O591  1  0.91225005  0.14845472  0.92273037  1
  O  O592  1  0.91245151  0.48046874  0.17281797  1
  O  O593  1  0.91325078  0.48143819  0.42208254  1
  O  O594  1  0.91161607  0.48306473  0.67330471  1
  O  O595  1  0.91179286  0.48102621  0.92341311  1
  O  O596  1  0.91388997  0.81507462  0.17253247  1
  O  O597  1  0.91244652  0.81499514  0.42215659  1
  O  O598  1  0.91065229  0.81438793  0.67329985  1
  O  O599  1  0.91363488  0.81553159  0.92235958  1
  O  O600  1  0.08660398  0.18500982  0.07676248  1
  O  O601  1  0.08850125  0.18473660  0.32847465  1
  O  O602  1  0.08831709  0.18534095  0.57732615  1
  O  O603  1  0.08627118  0.18495337  0.82809358  1
  O  O604  1  0.08813638  0.51716808  0.07728525  1
  O  O605  1  0.08799614  0.51747712  0.32799455  1
  O  O606  1  0.08502717  0.51823786  0.57750363  1
  O  O607  1  0.08837942  0.51786982  0.82832980  1
  O  O608  1  0.08947629  0.85289685  0.07644622  1
  O  O609  1  0.08787925  0.85242385  0.32761981  1
  O  O610  1  0.08484639  0.85145496  0.57760625  1
  O  O611  1  0.08693590  0.85188870  0.82771478  1
  O  O612  1  0.59007348  0.18576222  0.07672533  1
  O  O613  1  0.58654419  0.18499501  0.32600681  1
  O  O614  1  0.58726530  0.18549694  0.57770313  1
  O  O615  1  0.58701652  0.18523642  0.82751205  1
  O  O616  1  0.58761057  0.51810725  0.07814731  1
  O  O617  1  0.58593250  0.51809641  0.32813811  1
  O  O618  1  0.58791348  0.51775940  0.57784474  1
  O  O619  1  0.58898339  0.51820488  0.82702768  1
  O  O620  1  0.58622597  0.85138574  0.07812642  1
  O  O621  1  0.58816973  0.85225426  0.32659144  1
  O  O622  1  0.58760555  0.85116409  0.57804717  1
  O  O623  1  0.58580474  0.85109776  0.82792878  1
  O  O624  1  0.33564243  0.18541246  0.04723290  1
  O  O625  1  0.33759742  0.18404703  0.29713510  1
  O  O626  1  0.33657263  0.18590836  0.54722740  1
  O  O627  1  0.33863040  0.18511920  0.79849917  1
  O  O628  1  0.33535548  0.51874700  0.04739100  1
  O  O629  1  0.33906663  0.51866181  0.29780018  1
  O  O630  1  0.33999213  0.51760601  0.54748552  1
  O  O631  1  0.33853719  0.51690683  0.79709205  1
  O  O632  1  0.33730778  0.85062860  0.04682752  1
  O  O633  1  0.33934109  0.85244374  0.29581153  1
  O  O634  1  0.33710064  0.85104323  0.54757927  1
  O  O635  1  0.33886067  0.85299367  0.79859809  1
  O  O636  1  0.83874255  0.18523767  0.04734446  1
  O  O637  1  0.83775272  0.18547435  0.29588618  1
  O  O638  1  0.83794996  0.18464261  0.54651791  1
  O  O639  1  0.83944391  0.18575110  0.79801474  1
  O  O640  1  0.83718884  0.51710618  0.04685160  1
  O  O641  1  0.83643425  0.51690023  0.29692945  1
  O  O642  1  0.83600833  0.51827897  0.54898358  1
  O  O643  1  0.83656827  0.51834189  0.79746200  1
  O  O644  1  0.83823525  0.85231038  0.04734664  1
  O  O645  1  0.83528389  0.85183602  0.29728542  1
  O  O646  1  0.83865581  0.85220310  0.54847672  1
  O  O647  1  0.83939401  0.85080445  0.79791497  1
  O  O648  1  0.16209531  0.14819623  0.20176075  1
  O  O649  1  0.16160749  0.14920917  0.45244675  1
  O  O650  1  0.16329068  0.14871687  0.70328504  1
  O  O651  1  0.15994213  0.14851291  0.95244162  1
  O  O652  1  0.16117604  0.48164908  0.20231370  1
  O  O653  1  0.16327018  0.48135332  0.45203049  1
  O  O654  1  0.16437605  0.48118940  0.70210203  1
  O  O655  1  0.16019416  0.48162676  0.95267025  1
  O  O656  1  0.16519729  0.81473722  0.20204767  1
  O  O657  1  0.16520978  0.81483258  0.45259898  1
  O  O658  1  0.16255574  0.81528271  0.70259292  1
  O  O659  1  0.16359341  0.81557245  0.95149835  1
  O  O660  1  0.66434842  0.14856597  0.20208855  1
  O  O661  1  0.66505937  0.14847487  0.45197485  1
  O  O662  1  0.66560001  0.14824660  0.70256606  1
  O  O663  1  0.66498115  0.14945762  0.95210271  1
  O  O664  1  0.66293930  0.48060851  0.20165753  1
  O  O665  1  0.66176679  0.48279188  0.45370430  1
  O  O666  1  0.66222886  0.48203398  0.70299974  1
  O  O667  1  0.66220756  0.48006482  0.95185519  1
  O  O668  1  0.66119521  0.81608467  0.20205720  1
  O  O669  1  0.66095550  0.81380716  0.45348009  1
  O  O670  1  0.66207400  0.81454896  0.70255674  1
  O  O671  1  0.66111608  0.81536576  0.95186167  1
