# generated using pymatgen
data_Na2MnFe(PO4)2
_symmetry_space_group_name_H-M   'P 1'
_cell_length_a   21.08638418
_cell_length_b   18.93889195
_cell_length_c   20.04517791
_cell_angle_alpha   90.00045390
_cell_angle_beta   90.00394903
_cell_angle_gamma   90.00165513
_symmetry_Int_Tables_number   1
_chemical_formula_structural   Na2MnFe(PO4)2
_chemical_formula_sum   'Na96 Mn48 Fe48 P96 O384'
_cell_volume   8005.09693503
_cell_formula_units_Z   48
loop_
 _symmetry_equiv_pos_site_id
 _symmetry_equiv_pos_as_xyz
  1  'x, y, z'
loop_
 _atom_site_type_symbol
 _atom_site_label
 _atom_site_symmetry_multiplicity
 _atom_site_fract_x
 _atom_site_fract_y
 _atom_site_fract_z
 _atom_site_occupancy
  Na  Na0  1  -0.00110314  -0.00074908  0.00025663  1
  Na  Na1  1  0.00080357  0.00071564  0.24863205  1
  Na  Na2  1  0.00092500  0.00015101  0.50026768  1
  Na  Na3  1  0.00226866  0.00042642  0.75096595  1
  Na  Na4  1  -0.00022697  0.33440724  0.00093012  1
  Na  Na5  1  -0.00127605  0.33304760  0.24985820  1
  Na  Na6  1  0.00133280  0.33421370  0.49884126  1
  Na  Na7  1  0.00071305  0.33410369  0.74985783  1
  Na  Na8  1  0.00040311  0.66618965  0.00050247  1
  Na  Na9  1  -0.00150952  0.66561493  0.24952617  1
  Na  Na10  1  -0.00179884  0.66561322  0.50093245  1
  Na  Na11  1  0.00059106  0.66644490  0.74884407  1
  Na  Na12  1  0.49994836  0.00015729  -0.00012385  1
  Na  Na13  1  0.49800191  -0.00026402  0.24937977  1
  Na  Na14  1  0.50054692  0.00021513  0.49937478  1
  Na  Na15  1  0.50188242  0.00070222  0.75064861  1
  Na  Na16  1  0.50068498  0.33323463  0.00073472  1
  Na  Na17  1  0.49993405  0.33299808  0.25013880  1
  Na  Na18  1  0.50247239  0.33426335  0.49806571  1
  Na  Na19  1  0.50166087  0.33332162  0.75069012  1
  Na  Na20  1  0.49891008  0.66517863  -0.00032349  1
  Na  Na21  1  0.50144649  0.66607891  0.24985558  1
  Na  Na22  1  0.50180936  0.66634015  0.50053062  1
  Na  Na23  1  0.50078411  0.66637812  0.75089536  1
  Na  Na24  1  0.24962764  0.00074137  0.12595736  1
  Na  Na25  1  0.24821020  0.00032584  0.37578617  1
  Na  Na26  1  0.24791082  -0.00043368  0.62453176  1
  Na  Na27  1  0.24883825  -0.00038184  0.87436798  1
  Na  Na28  1  0.24998637  0.33417745  0.12445789  1
  Na  Na29  1  0.24846114  0.33299792  0.37494889  1
  Na  Na30  1  0.24884224  0.33355522  0.62594577  1
  Na  Na31  1  0.24859398  0.33319156  0.87447621  1
  Na  Na32  1  0.25120201  0.66617352  0.12462649  1
  Na  Na33  1  0.25062619  0.66534039  0.37473491  1
  Na  Na34  1  0.25125631  0.66615046  0.62498230  1
  Na  Na35  1  0.25094561  0.66643653  0.87561241  1
  Na  Na36  1  0.75119968  0.00042532  0.12546316  1
  Na  Na37  1  0.74990489  -0.00021591  0.37524778  1
  Na  Na38  1  0.74908664  -0.00050925  0.62438548  1
  Na  Na39  1  0.74955936  -0.00029612  0.87448425  1
  Na  Na40  1  0.75131665  0.33404258  0.12603835  1
  Na  Na41  1  0.74942128  0.33320974  0.37573985  1
  Na  Na42  1  0.74790881  0.33312947  0.62449288  1
  Na  Na43  1  0.74850778  0.33315089  0.87453536  1
  Na  Na44  1  0.75029826  0.66589276  0.12593640  1
  Na  Na45  1  0.75041375  0.66632330  0.37504368  1
  Na  Na46  1  0.74861328  0.66594620  0.62428877  1
  Na  Na47  1  0.74815971  0.66541062  0.87443328  1
  Na  Na48  1  -0.00254088  0.16827988  0.00093495  1
  Na  Na49  1  0.00034927  0.16700504  0.24908080  1
  Na  Na50  1  0.00307763  0.16625374  0.49980611  1
  Na  Na51  1  0.00084961  0.16669949  0.75028864  1
  Na  Na52  1  -0.00098942  0.50032981  0.00066460  1
  Na  Na53  1  -0.00131534  0.49984489  0.24939883  1
  Na  Na54  1  -0.00140301  0.50061833  0.49931245  1
  Na  Na55  1  0.00270475  0.49872705  0.74996305  1
  Na  Na56  1  0.00162010  0.83325713  -0.00017851  1
  Na  Na57  1  0.00048297  0.83311017  0.24980479  1
  Na  Na58  1  -0.00210771  0.83406459  0.50083616  1
  Na  Na59  1  0.00066643  0.83295522  0.74970142  1
  Na  Na60  1  0.49847704  0.16747471  0.00113638  1
  Na  Na61  1  0.49972125  0.16679136  0.24980015  1
  Na  Na62  1  0.50079198  0.16640055  0.49804826  1
  Na  Na63  1  0.50011173  0.16723299  0.75132869  1
  Na  Na64  1  0.50046324  0.50027131  0.00081993  1
  Na  Na65  1  0.49948575  0.50066868  0.25027392  1
  Na  Na66  1  0.50295626  0.49949895  0.49950395  1
  Na  Na67  1  0.50283240  0.49947047  0.74977953  1
  Na  Na68  1  0.50138378  0.83265237  -0.00154177  1
  Na  Na69  1  0.50117524  0.83240216  0.24920531  1
  Na  Na70  1  0.50180683  0.83237237  0.50056464  1
  Na  Na71  1  0.50107621  0.83328136  0.75100484  1
  Na  Na72  1  0.25209498  0.16627625  0.12602901  1
  Na  Na73  1  0.24905968  0.16750766  0.37497380  1
  Na  Na74  1  0.24875645  0.16731785  0.62520946  1
  Na  Na75  1  0.25164774  0.16654004  0.87399386  1
  Na  Na76  1  0.24991126  0.50032357  0.12421653  1
  Na  Na77  1  0.25101995  0.49941988  0.37537746  1
  Na  Na78  1  0.24910895  0.50049695  0.62485209  1
  Na  Na79  1  0.24914142  0.50020042  0.87568899  1
  Na  Na80  1  0.24743324  0.83389063  0.12509980  1
  Na  Na81  1  0.24831835  0.83355835  0.37479805  1
  Na  Na82  1  0.25028286  0.83239741  0.62542290  1
  Na  Na83  1  0.24768959  0.83381077  0.87480601  1
  Na  Na84  1  0.75099165  0.16732930  0.12549075  1
  Na  Na85  1  0.74957612  0.16741950  0.37520229  1
  Na  Na86  1  0.74788837  0.16752662  0.62396867  1
  Na  Na87  1  0.75035889  0.16659216  0.87479012  1
  Na  Na88  1  0.75104231  0.49940905  0.12584584  1
  Na  Na89  1  0.74924779  0.50051676  0.37592201  1
  Na  Na90  1  0.74749606  0.50077246  0.62439469  1
  Na  Na91  1  0.74842978  0.50040417  0.87432827  1
  Na  Na92  1  0.75074742  0.83298619  0.12613970  1
  Na  Na93  1  0.75056450  0.83298810  0.37498565  1
  Na  Na94  1  0.75030636  0.83301158  0.62472926  1
  Na  Na95  1  0.74778846  0.83458785  0.87439494  1
  Mn  Mn96  1  0.85780574  0.74990537  0.00160607  1
  Mn  Mn97  1  0.85815070  0.08323626  0.50250522  1
  Mn  Mn98  1  0.60807575  0.74939402  0.87293433  1
  Mn  Mn99  1  0.89251398  0.91623084  0.87707602  1
  Mn  Mn100  1  0.10754332  0.08418172  0.12206795  1
  Mn  Mn101  1  0.35831111  0.41611983  0.50223497  1
  Mn  Mn102  1  0.60800808  0.41648346  0.12321923  1
  Mn  Mn103  1  0.85781809  0.08340392  0.75140914  1
  Mn  Mn104  1  0.35807160  0.41608214  0.00214768  1
  Mn  Mn105  1  0.35798131  0.08241288  0.75132189  1
  Mn  Mn106  1  0.39216071  0.25083170  0.37712304  1
  Mn  Mn107  1  0.14141609  0.91653499  0.49772779  1
  Mn  Mn108  1  0.64201059  0.91710315  0.24711703  1
  Mn  Mn109  1  0.35710961  0.08362521  0.50269420  1
  Mn  Mn110  1  0.10756587  0.74945983  0.62242530  1
  Mn  Mn111  1  0.35723159  0.75098684  0.00217666  1
  Mn  Mn112  1  0.39290425  0.91711449  0.62763505  1
  Mn  Mn113  1  0.60750497  0.08299163  0.37182327  1
  Mn  Mn114  1  0.14207139  0.25022375  0.74747808  1
  Mn  Mn115  1  0.64133358  0.24951869  0.74695611  1
  Mn  Mn116  1  0.85674349  0.41681552  0.50238610  1
  Mn  Mn117  1  0.39167184  0.91530845  0.37700997  1
  Mn  Mn118  1  0.64247199  0.91637559  0.49755991  1
  Mn  Mn119  1  0.60726410  0.08321936  0.12268191  1
  Mn  Mn120  1  0.14196642  0.58309409  0.49747442  1
  Mn  Mn121  1  0.35761509  0.74985658  0.25266355  1
  Mn  Mn122  1  0.60821228  0.74996029  0.12206860  1
  Mn  Mn123  1  0.39251763  0.25093309  0.87759014  1
  Mn  Mn124  1  0.85786208  0.74946996  0.25265069  1
  Mn  Mn125  1  0.35889700  0.75013772  0.50212762  1
  Mn  Mn126  1  0.89224112  0.58337409  0.87656241  1
  Mn  Mn127  1  0.39370102  0.58265580  0.62751107  1
  Mn  Mn128  1  0.10708799  0.74985957  0.37296586  1
  Mn  Mn129  1  0.85718208  0.41673276  0.75157919  1
  Mn  Mn130  1  0.89285532  0.91689861  0.37738588  1
  Mn  Mn131  1  0.10721291  0.41702822  0.37183795  1
  Mn  Mn132  1  0.85815598  0.08412021  0.25278799  1
  Mn  Mn133  1  0.39207965  0.91650237  0.87729315  1
  Mn  Mn134  1  0.14203032  0.58357985  0.99776685  1
  Mn  Mn135  1  0.85716403  0.74990040  0.75236182  1
  Mn  Mn136  1  0.39138952  0.91618908  0.12707166  1
  Mn  Mn137  1  0.89254677  0.25003604  0.62655688  1
  Mn  Mn138  1  0.60848721  0.08378288  0.87368914  1
  Mn  Mn139  1  0.35830937  0.41752789  0.75198849  1
  Mn  Mn140  1  0.14215144  0.24943976  0.99833143  1
  Mn  Mn141  1  0.89171587  0.25061326  0.87723695  1
  Mn  Mn142  1  0.10747027  0.74920141  0.12315586  1
  Mn  Mn143  1  0.10789397  0.08381735  0.87350689  1
  Fe  Fe144  1  0.39289678  0.58268689  0.12736056  1
  Fe  Fe145  1  0.89289410  0.91683996  0.62730077  1
  Fe  Fe146  1  0.14270513  0.91582912  0.74800103  1
  Fe  Fe147  1  0.85719905  0.08361316  0.00130842  1
  Fe  Fe148  1  0.89331996  0.24993821  0.37704449  1
  Fe  Fe149  1  0.14312860  0.58383329  0.74847518  1
  Fe  Fe150  1  0.60813260  0.74956335  0.37346116  1
  Fe  Fe151  1  0.10717172  0.41730753  0.87366289  1
  Fe  Fe152  1  0.85716398  0.41655910  0.00123164  1
  Fe  Fe153  1  0.35664818  0.41657781  0.25126659  1
  Fe  Fe154  1  0.60744589  0.41721607  0.37208936  1
  Fe  Fe155  1  0.60750673  0.41596095  0.62276476  1
  Fe  Fe156  1  0.10744668  0.08387008  0.62335206  1
  Fe  Fe157  1  0.64316332  0.91701241  0.99904511  1
  Fe  Fe158  1  0.39252550  0.25079171  0.12740539  1
  Fe  Fe159  1  0.14199862  0.91722306  0.99859045  1
  Fe  Fe160  1  0.89227916  0.58306355  0.62707109  1
  Fe  Fe161  1  0.89214410  0.58300443  0.37686707  1
  Fe  Fe162  1  0.10739022  0.08374913  0.37286297  1
  Fe  Fe163  1  0.14258875  0.58282237  0.24834881  1
  Fe  Fe164  1  0.35752861  0.74971087  0.75149304  1
  Fe  Fe165  1  0.64318748  0.25001596  0.99960278  1
  Fe  Fe166  1  0.35593493  0.08370570  0.25178784  1
  Fe  Fe167  1  0.60827629  0.41683326  0.87429080  1
  Fe  Fe168  1  0.89182225  0.25055434  0.12722851  1
  Fe  Fe169  1  0.39329394  0.25008139  0.62542266  1
  Fe  Fe170  1  0.14217473  0.91652960  0.24821050  1
  Fe  Fe171  1  0.89184693  0.58312112  0.12678029  1
  Fe  Fe172  1  0.64331748  0.58263790  0.24827571  1
  Fe  Fe173  1  0.39334297  0.58268884  0.87614643  1
  Fe  Fe174  1  0.64195204  0.24996154  0.49767715  1
  Fe  Fe175  1  0.10734900  0.41662336  0.62318442  1
  Fe  Fe176  1  0.14243116  0.25051498  0.49818919  1
  Fe  Fe177  1  0.35746210  0.08296033  0.00156896  1
  Fe  Fe178  1  0.89259772  0.91654086  0.12631442  1
  Fe  Fe179  1  0.85705443  0.41656168  0.25207414  1
  Fe  Fe180  1  0.64252366  0.91654925  0.74731707  1
  Fe  Fe181  1  0.10806862  0.74898956  0.87251818  1
  Fe  Fe182  1  0.64311044  0.58349734  0.49757249  1
  Fe  Fe183  1  0.39381871  0.58340049  0.37616593  1
  Fe  Fe184  1  0.60739004  0.08363235  0.62289289  1
  Fe  Fe185  1  0.64208521  0.58393535  0.74757100  1
  Fe  Fe186  1  0.64274300  0.58290828  0.99890797  1
  Fe  Fe187  1  0.14256412  0.25096356  0.24773514  1
  Fe  Fe188  1  0.64349920  0.25027930  0.24810383  1
  Fe  Fe189  1  0.10624287  0.41683616  0.12379798  1
  Fe  Fe190  1  0.85678237  0.74977763  0.50179452  1
  Fe  Fe191  1  0.60759434  0.75032382  0.62326649  1
  P  P192  1  0.05288167  0.25143889  0.11148152  1
  P  P193  1  0.05408616  0.24975780  0.35995033  1
  P  P194  1  0.05410743  0.25064029  0.60934831  1
  P  P195  1  0.05318136  0.25114199  0.86046040  1
  P  P196  1  0.05296937  0.58202826  0.11156572  1
  P  P197  1  0.05202118  0.58330560  0.35920401  1
  P  P198  1  0.05329170  0.58243695  0.61101606  1
  P  P199  1  0.05403994  0.58322499  0.85951222  1
  P  P200  1  0.05388353  0.91677776  0.11055655  1
  P  P201  1  0.05373236  0.91749621  0.35920125  1
  P  P202  1  0.05346816  0.91684298  0.61149270  1
  P  P203  1  0.05561541  0.91582695  0.86066330  1
  P  P204  1  0.55385028  0.25012100  0.11107330  1
  P  P205  1  0.55528273  0.25085973  0.35965331  1
  P  P206  1  0.55279883  0.24967940  0.60879363  1
  P  P207  1  0.55534126  0.25081851  0.86215345  1
  P  P208  1  0.55412437  0.58277736  0.11076631  1
  P  P209  1  0.55512415  0.58338375  0.36048551  1
  P  P210  1  0.55593358  0.58365934  0.61049103  1
  P  P211  1  0.55489912  0.58231504  0.86099956  1
  P  P212  1  0.55324211  0.91675968  0.10872145  1
  P  P213  1  0.55324283  0.91555080  0.35949912  1
  P  P214  1  0.55474602  0.91672858  0.61115829  1
  P  P215  1  0.55569776  0.91684314  0.86072979  1
  P  P216  1  0.44394841  0.08412586  0.13956778  1
  P  P217  1  0.44457228  0.08328501  0.38852538  1
  P  P218  1  0.44841884  0.08455351  0.63967121  1
  P  P219  1  0.44617743  0.08334774  0.89087568  1
  P  P220  1  0.44603247  0.41652330  0.14076543  1
  P  P221  1  0.44671022  0.41778236  0.38822767  1
  P  P222  1  0.44874601  0.41556974  0.63946498  1
  P  P223  1  0.44851975  0.41782095  0.89008683  1
  P  P224  1  0.44657650  0.74902009  0.13971122  1
  P  P225  1  0.44851886  0.74856196  0.38981057  1
  P  P226  1  0.44801824  0.74981342  0.64096759  1
  P  P227  1  0.44527723  0.74886694  0.88865722  1
  P  P228  1  0.94469279  0.08358200  0.13841105  1
  P  P229  1  0.94821656  0.08456801  0.38985619  1
  P  P230  1  0.94830691  0.08300412  0.63997139  1
  P  P231  1  0.94607320  0.08338035  0.89078501  1
  P  P232  1  0.94458373  0.41681744  0.13938139  1
  P  P233  1  0.94469355  0.41649659  0.38845272  1
  P  P234  1  0.94745855  0.41728707  0.63952907  1
  P  P235  1  0.94703027  0.41720952  0.89048488  1
  P  P236  1  0.94590485  0.75000479  0.13954945  1
  P  P237  1  0.94573003  0.74886610  0.39094981  1
  P  P238  1  0.94472803  0.74968984  0.63885250  1
  P  P239  1  0.94856306  0.74961046  0.88968407  1
  P  P240  1  0.19547760  0.08410915  0.23635760  1
  P  P241  1  0.19415682  0.08467329  0.48555433  1
  P  P242  1  0.19581933  0.08263858  0.73445114  1
  P  P243  1  0.19810119  0.08347373  0.98510757  1
  P  P244  1  0.19655582  0.41713574  0.23435615  1
  P  P245  1  0.19531677  0.41606635  0.48587467  1
  P  P246  1  0.19498647  0.41811565  0.73572381  1
  P  P247  1  0.19478918  0.41650333  0.98572644  1
  P  P248  1  0.19629235  0.74892210  0.23526485  1
  P  P249  1  0.19701809  0.74935126  0.48462170  1
  P  P250  1  0.19669361  0.74905665  0.73606961  1
  P  P251  1  0.19550576  0.75035556  0.98458435  1
  P  P252  1  0.69677276  0.08458541  0.23485617  1
  P  P253  1  0.69538986  0.08382425  0.48554559  1
  P  P254  1  0.69592968  0.08267869  0.73395475  1
  P  P255  1  0.69814353  0.08369918  0.98580938  1
  P  P256  1  0.69660073  0.41670249  0.23668855  1
  P  P257  1  0.69382894  0.41670494  0.48543325  1
  P  P258  1  0.69438553  0.41742807  0.73518670  1
  P  P259  1  0.69745255  0.41657630  0.98533636  1
  P  P260  1  0.69541501  0.74881356  0.23632896  1
  P  P261  1  0.69619593  0.74928120  0.48553216  1
  P  P262  1  0.69563153  0.74999187  0.73424321  1
  P  P263  1  0.69703323  0.74972795  0.98521612  1
  P  P264  1  0.30406968  0.24948823  0.01573625  1
  P  P265  1  0.30307430  0.25098298  0.26374961  1
  P  P266  1  0.30238185  0.25038609  0.51576784  1
  P  P267  1  0.30505682  0.25042530  0.76346337  1
  P  P268  1  0.30539472  0.58299124  0.01437571  1
  P  P269  1  0.30409376  0.58191155  0.26429921  1
  P  P270  1  0.30518602  0.58293423  0.51409696  1
  P  P271  1  0.30336875  0.58367120  0.76551058  1
  P  P272  1  0.30139658  0.91736529  0.01494528  1
  P  P273  1  0.30145362  0.91728796  0.26502720  1
  P  P274  1  0.30296701  0.91654548  0.51542698  1
  P  P275  1  0.30229577  0.91571953  0.76466979  1
  P  P276  1  0.80285185  0.25058702  0.01537591  1
  P  P277  1  0.80439195  0.25113291  0.26508080  1
  P  P278  1  0.80279279  0.25016880  0.51380464  1
  P  P279  1  0.80281243  0.25012672  0.76448581  1
  P  P280  1  0.80261811  0.58246157  0.01508979  1
  P  P281  1  0.80416354  0.58217988  0.26480054  1
  P  P282  1  0.80384526  0.58381495  0.51439682  1
  P  P283  1  0.80260065  0.58311555  0.76355618  1
  P  P284  1  0.80290911  0.91703805  0.01524838  1
  P  P285  1  0.80453457  0.91680602  0.26431179  1
  P  P286  1  0.80446692  0.91594624  0.51548658  1
  P  P287  1  0.80324264  0.91679392  0.76370527  1
  O  O288  1  0.05821223  0.25061368  0.18809735  1
  O  O289  1  0.05862141  0.25065932  0.43660600  1
  O  O290  1  0.05656597  0.25059225  0.68619504  1
  O  O291  1  0.05585691  0.25034841  0.93723819  1
  O  O292  1  0.05802766  0.58255843  0.18814754  1
  O  O293  1  0.05605768  0.58306140  0.43591998  1
  O  O294  1  0.05857520  0.58334327  0.68757571  1
  O  O295  1  0.05636239  0.58349366  0.93635316  1
  O  O296  1  0.05899174  0.91697824  0.18724584  1
  O  O297  1  0.05619103  0.91658008  0.43605199  1
  O  O298  1  0.05853564  0.91586329  0.68816539  1
  O  O299  1  0.05937951  0.91694154  0.93752185  1
  O  O300  1  0.55913101  0.25008285  0.18768798  1
  O  O301  1  0.55929652  0.24998781  0.43642564  1
  O  O302  1  0.55569703  0.24962137  0.68562143  1
  O  O303  1  0.55976258  0.24995365  0.93888673  1
  O  O304  1  0.55929941  0.58266383  0.18739224  1
  O  O305  1  0.55936800  0.58340096  0.43722588  1
  O  O306  1  0.55891912  0.58379634  0.68737306  1
  O  O307  1  0.55937007  0.58310247  0.93774881  1
  O  O308  1  0.55644114  0.91701296  0.18551088  1
  O  O309  1  0.55662143  0.91644398  0.43629319  1
  O  O310  1  0.55821515  0.91671272  0.68796373  1
  O  O311  1  0.56037445  0.91694373  0.93749056  1
  O  O312  1  0.44021954  0.08310965  0.06276558  1
  O  O313  1  0.43950350  0.08353366  0.31176939  1
  O  O314  1  0.44447625  0.08356130  0.56295399  1
  O  O315  1  0.44307243  0.08303591  0.81407231  1
  O  O316  1  0.44352335  0.41634349  0.06398772  1
  O  O317  1  0.44126505  0.41676276  0.31169213  1
  O  O318  1  0.44501165  0.41649901  0.56276876  1
  O  O319  1  0.44488686  0.41716290  0.81339344  1
  O  O320  1  0.44333173  0.74991306  0.06292923  1
  O  O321  1  0.44426506  0.74929295  0.31312330  1
  O  O322  1  0.44441965  0.74977066  0.56420860  1
  O  O323  1  0.44107813  0.74997857  0.81193065  1
  O  O324  1  0.94033540  0.08369252  0.06168076  1
  O  O325  1  0.94442667  0.08420258  0.31314249  1
  O  O326  1  0.94452357  0.08337718  0.56325336  1
  O  O327  1  0.94331165  0.08329688  0.81398144  1
  O  O328  1  0.94024143  0.41683535  0.06267237  1
  O  O329  1  0.94094913  0.41647012  0.31169728  1
  O  O330  1  0.94326549  0.41702825  0.56283134  1
  O  O331  1  0.94301173  0.41697094  0.81380378  1
  O  O332  1  0.94342317  0.75007723  0.06276436  1
  O  O333  1  0.94324207  0.74950829  0.31410968  1
  O  O334  1  0.94051607  0.74960165  0.56213390  1
  O  O335  1  0.94413893  0.74970824  0.81300210  1
  O  O336  1  0.19420870  0.08437073  0.06185219  1
  O  O337  1  0.19117374  0.08426193  0.31305765  1
  O  O338  1  0.19013943  0.08373306  0.56234262  1
  O  O339  1  0.19313730  0.08382991  0.81123607  1
  O  O340  1  0.19018699  0.41682829  0.06241889  1
  O  O341  1  0.19312901  0.41708809  0.31111933  1
  O  O342  1  0.19109313  0.41703586  0.56260712  1
  O  O343  1  0.19094812  0.41712300  0.81248414  1
  O  O344  1  0.19243822  0.74905595  0.06138924  1
  O  O345  1  0.19340296  0.74859049  0.31199595  1
  O  O346  1  0.19360542  0.74895471  0.56142884  1
  O  O347  1  0.19228054  0.74894147  0.81273705  1
  O  O348  1  0.69457144  0.08381823  0.06245007  1
  O  O349  1  0.69359376  0.08363723  0.31162151  1
  O  O350  1  0.69097053  0.08355501  0.56226337  1
  O  O351  1  0.69341738  0.08356458  0.81075860  1
  O  O352  1  0.69422076  0.41669339  0.06208209  1
  O  O353  1  0.69218112  0.41695556  0.31334909  1
  O  O354  1  0.69001089  0.41628133  0.56229128  1
  O  O355  1  0.69102451  0.41678604  0.81198566  1
  O  O356  1  0.69488150  0.74950646  0.06202772  1
  O  O357  1  0.69161743  0.74954787  0.31310775  1
  O  O358  1  0.69159630  0.75005633  0.56217092  1
  O  O359  1  0.69309479  0.74975719  0.81107210  1
  O  O360  1  0.30787527  0.25109022  0.18713801  1
  O  O361  1  0.30649338  0.25064183  0.43901784  1
  O  O362  1  0.30965760  0.25075943  0.68677757  1
  O  O363  1  0.30683205  0.25073741  0.93887634  1
  O  O364  1  0.30877875  0.58275334  0.18758469  1
  O  O365  1  0.31000914  0.58276586  0.43738178  1
  O  O366  1  0.30743515  0.58268648  0.68876068  1
  O  O367  1  0.30973140  0.58241802  0.93767584  1
  O  O368  1  0.30524739  0.91657422  0.18834358  1
  O  O369  1  0.30624192  0.91649060  0.43864046  1
  O  O370  1  0.30643012  0.91637438  0.68798837  1
  O  O371  1  0.30536529  0.91655530  0.93828492  1
  O  O372  1  0.80900718  0.25048991  0.18832052  1
  O  O373  1  0.80841430  0.24989478  0.43721663  1
  O  O374  1  0.80629635  0.25038579  0.68771608  1
  O  O375  1  0.80584096  0.25064884  0.93863124  1
  O  O376  1  0.80878314  0.58287941  0.18807395  1
  O  O377  1  0.80849639  0.58309495  0.43770389  1
  O  O378  1  0.80789246  0.58283396  0.68692327  1
  O  O379  1  0.80613185  0.58303894  0.93835402  1
  O  O380  1  0.80916573  0.91672734  0.18757687  1
  O  O381  1  0.80754098  0.91694582  0.43865484  1
  O  O382  1  0.80876036  0.91689477  0.68709688  1
  O  O383  1  0.80629435  0.91632320  0.93846802  1
  O  O384  1  0.23440461  0.25014034  0.04101144  1
  O  O385  1  0.23267403  0.25085938  0.28752501  1
  O  O386  1  0.23225134  0.25042005  0.53978117  1
  O  O387  1  0.23490534  0.25015375  0.78737619  1
  O  O388  1  0.23512295  0.58322727  0.03801569  1
  O  O389  1  0.23365813  0.58217095  0.28793352  1
  O  O390  1  0.23504964  0.58310432  0.53783856  1
  O  O391  1  0.23326499  0.58338653  0.78977896  1
  O  O392  1  0.23134707  0.91721134  0.03959694  1
  O  O393  1  0.23132476  0.91685575  0.28945219  1
  O  O394  1  0.23320544  0.91626476  0.54021151  1
  O  O395  1  0.23214665  0.91624017  0.78884701  1
  O  O396  1  0.73282920  0.25069888  0.04051458  1
  O  O397  1  0.73397665  0.25056372  0.28848711  1
  O  O398  1  0.73228773  0.25057624  0.53686000  1
  O  O399  1  0.73307150  0.24979149  0.78923501  1
  O  O400  1  0.73251655  0.58266778  0.03978108  1
  O  O401  1  0.73381315  0.58282565  0.28843247  1
  O  O402  1  0.73327601  0.58301780  0.53747877  1
  O  O403  1  0.73219105  0.58349688  0.78682746  1
  O  O404  1  0.73284646  0.91662771  0.04007656  1
  O  O405  1  0.73448965  0.91675101  0.28827665  1
  O  O406  1  0.73457664  0.91637323  0.53994378  1
  O  O407  1  0.73280846  0.91664254  0.78685125  1
  O  O408  1  0.26581304  0.08416816  0.21245658  1
  O  O409  1  0.26418651  0.08399387  0.46138402  1
  O  O410  1  0.26549835  0.08310259  0.70909609  1
  O  O411  1  0.26795540  0.08332312  0.96015662  1
  O  O412  1  0.26661496  0.41714472  0.20979131  1
  O  O413  1  0.26528956  0.41603786  0.46155648  1
  O  O414  1  0.26505919  0.41747566  0.71147177  1
  O  O415  1  0.26496678  0.41639100  0.96191872  1
  O  O416  1  0.26585381  0.74954572  0.20962262  1
  O  O417  1  0.26665314  0.74961520  0.45952081  1
  O  O418  1  0.26693011  0.74913241  0.71184278  1
  O  O419  1  0.26528538  0.75003229  0.95975281  1
  O  O420  1  0.76649415  0.08430845  0.21009250  1
  O  O421  1  0.76545978  0.08319118  0.46143652  1
  O  O422  1  0.76550654  0.08349690  0.70838223  1
  O  O423  1  0.76806571  0.08351689  0.96059219  1
  O  O424  1  0.76680195  0.41662534  0.21261979  1
  O  O425  1  0.76396051  0.41698348  0.46155424  1
  O  O426  1  0.76421060  0.41685874  0.71020492  1
  O  O427  1  0.76745052  0.41665720  0.96028425  1
  O  O428  1  0.76536787  0.74904328  0.21200064  1
  O  O429  1  0.76654016  0.74977084  0.46177219  1
  O  O430  1  0.76523833  0.74966933  0.70891876  1
  O  O431  1  0.76635239  0.74981098  0.95879496  1
  O  O432  1  0.01482055  0.08385573  0.16241043  1
  O  O433  1  0.01823730  0.08383784  0.41429678  1
  O  O434  1  0.01833168  0.08360868  0.66462702  1
  O  O435  1  0.01572686  0.08370274  0.91611719  1
  O  O436  1  0.01490621  0.41653287  0.16344027  1
  O  O437  1  0.01465850  0.41713983  0.41280790  1
  O  O438  1  0.01755336  0.41655665  0.66378207  1
  O  O439  1  0.01713619  0.41759516  0.91479482  1
  O  O440  1  0.01542740  0.74945871  0.16523077  1
  O  O441  1  0.01527445  0.74959494  0.41658319  1
  O  O442  1  0.01480163  0.74960832  0.66296224  1
  O  O443  1  0.01857079  0.74940481  0.91405399  1
  O  O444  1  0.51401919  0.08347067  0.16380194  1
  O  O445  1  0.51484316  0.08347939  0.41175289  1
  O  O446  1  0.51834669  0.08414929  0.66452542  1
  O  O447  1  0.51596546  0.08373760  0.91573626  1
  O  O448  1  0.51573228  0.41666644  0.16598803  1
  O  O449  1  0.51722132  0.41750091  0.41135248  1
  O  O450  1  0.51885169  0.41619033  0.66391465  1
  O  O451  1  0.51836613  0.41725769  0.91525187  1
  O  O452  1  0.51632139  0.74910650  0.16458196  1
  O  O453  1  0.51855439  0.74883249  0.41429648  1
  O  O454  1  0.51813423  0.74981689  0.66527288  1
  O  O455  1  0.51531794  0.74883338  0.91288158  1
  O  O456  1  0.48334386  0.25054869  0.08801842  1
  O  O457  1  0.48506791  0.25022516  0.33597524  1
  O  O458  1  0.48301388  0.25010556  0.58321540  1
  O  O459  1  0.48536471  0.25043243  0.83788201  1
  O  O460  1  0.48365502  0.58243532  0.08762038  1
  O  O461  1  0.48482573  0.58311653  0.33646076  1
  O  O462  1  0.48604388  0.58299711  0.58568430  1
  O  O463  1  0.48467076  0.58295964  0.83687867  1
  O  O464  1  0.48349731  0.91643109  0.08384112  1
  O  O465  1  0.48356305  0.91569979  0.33433718  1
  O  O466  1  0.48500246  0.91655035  0.58600319  1
  O  O467  1  0.48546125  0.91685370  0.83714990  1
  O  O468  1  0.98240439  0.25142223  0.08823468  1
  O  O469  1  0.98371817  0.25032887  0.33617723  1
  O  O470  1  0.98453674  0.25056141  0.58364623  1
  O  O471  1  0.98368148  0.25068583  0.83473865  1
  O  O472  1  0.98256925  0.58270347  0.08787184  1
  O  O473  1  0.98176247  0.58274104  0.33534390  1
  O  O474  1  0.98286519  0.58291544  0.58748260  1
  O  O475  1  0.98447864  0.58279705  0.83381754  1
  O  O476  1  0.98343354  0.91647802  0.08720337  1
  O  O477  1  0.98411194  0.91707586  0.33379657  1
  O  O478  1  0.98313987  0.91677564  0.58773742  1
  O  O479  1  0.98558268  0.91653990  0.83633916  1
  O  O480  1  0.08616097  0.31651354  0.07851124  1
  O  O481  1  0.08770803  0.31462934  0.32628759  1
  O  O482  1  0.08839318  0.31573781  0.57708372  1
  O  O483  1  0.08724391  0.31641825  0.82848377  1
  O  O484  1  0.08657600  0.64678834  0.07797079  1
  O  O485  1  0.08553815  0.64845081  0.32642812  1
  O  O486  1  0.08660941  0.64731568  0.57719644  1
  O  O487  1  0.08827383  0.64826074  0.82696548  1
  O  O488  1  0.08701396  0.98184712  0.07692211  1
  O  O489  1  0.08778660  0.98272058  0.32717137  1
  O  O490  1  0.08676498  0.98201432  0.57861336  1
  O  O491  1  0.08977227  0.98058264  0.82762962  1
  O  O492  1  0.58745819  0.31501191  0.07771636  1
  O  O493  1  0.58853569  0.31625821  0.32692257  1
  O  O494  1  0.58730866  0.31465672  0.57654153  1
  O  O495  1  0.58856240  0.31613763  0.82934157  1
  O  O496  1  0.58731380  0.64760665  0.07693269  1
  O  O497  1  0.58856594  0.64838789  0.32732524  1
  O  O498  1  0.58939449  0.64901716  0.57775498  1
  O  O499  1  0.58871243  0.64709718  0.82741101  1
  O  O500  1  0.58738360  0.98183549  0.07628056  1
  O  O501  1  0.58717421  0.98060711  0.32665798  1
  O  O502  1  0.58840366  0.98184861  0.57833823  1
  O  O503  1  0.58926289  0.98179402  0.82756718  1
  O  O504  1  0.40974062  0.01941402  0.17277899  1
  O  O505  1  0.41154594  0.01817103  0.42188567  1
  O  O506  1  0.41446714  0.01961074  0.67283079  1
  O  O507  1  0.41213508  0.01825320  0.92344673  1
  O  O508  1  0.41171590  0.35154081  0.17327050  1
  O  O509  1  0.41368110  0.35279230  0.42219651  1
  O  O510  1  0.41522773  0.35038160  0.67190822  1
  O  O511  1  0.41425041  0.35301445  0.92294858  1
  O  O512  1  0.41266844  0.68379453  0.17197438  1
  O  O513  1  0.41496147  0.68330153  0.42234099  1
  O  O514  1  0.41407626  0.68471538  0.67356258  1
  O  O515  1  0.41185191  0.68358907  0.92108518  1
  O  O516  1  0.91162268  0.01826147  0.17143842  1
  O  O517  1  0.91414936  0.01965089  0.42258503  1
  O  O518  1  0.91470562  0.01792330  0.67278616  1
  O  O519  1  0.91187096  0.01828752  0.92307014  1
  O  O520  1  0.91087302  0.35194736  0.17276580  1
  O  O521  1  0.91156047  0.35115355  0.42152817  1
  O  O522  1  0.91354563  0.35227213  0.67229061  1
  O  O523  1  0.91325783  0.35223592  0.92357103  1
  O  O524  1  0.91138010  0.68491854  0.17154274  1
  O  O525  1  0.91161993  0.68349945  0.42279111  1
  O  O526  1  0.91129243  0.68445389  0.67188729  1
  O  O527  1  0.91457700  0.68459881  0.92230743  1
  O  O528  1  0.16225293  0.01896138  0.20319412  1
  O  O529  1  0.15998960  0.01998654  0.45227319  1
  O  O530  1  0.16180620  0.01729502  0.70258162  1
  O  O531  1  0.16375972  0.01853848  0.95301304  1
  O  O532  1  0.16241454  0.35213945  0.20169808  1
  O  O533  1  0.16162792  0.35087270  0.45320334  1
  O  O534  1  0.16085565  0.35340631  0.70234369  1
  O  O535  1  0.16120432  0.35157204  0.95252823  1
  O  O536  1  0.16260135  0.68352521  0.20274127  1
  O  O537  1  0.16294072  0.68442440  0.45196665  1
  O  O538  1  0.16335541  0.68391490  0.70277764  1
  O  O539  1  0.16132303  0.68545933  0.95166387  1
  O  O540  1  0.66254358  0.01976762  0.20206548  1
  O  O541  1  0.66170356  0.01876573  0.45246097  1
  O  O542  1  0.66192902  0.01740054  0.70195527  1
  O  O543  1  0.66420409  0.01866647  0.95322157  1
  O  O544  1  0.66324682  0.35162657  0.20343850  1
  O  O545  1  0.66027144  0.35182796  0.45214514  1
  O  O546  1  0.66019166  0.35255064  0.70212523  1
  O  O547  1  0.66333913  0.35152012  0.95292472  1
  O  O548  1  0.66208779  0.68342695  0.20367233  1
  O  O549  1  0.66306077  0.68396094  0.45243322  1
  O  O550  1  0.66112984  0.68510889  0.70191404  1
  O  O551  1  0.66262118  0.68451809  0.95330350  1
  O  O552  1  0.33878426  0.31421633  0.04841793  1
  O  O553  1  0.33614058  0.31624985  0.29716601  1
  O  O554  1  0.33645425  0.31520713  0.54873979  1
  O  O555  1  0.33817894  0.31555287  0.79702428  1
  O  O556  1  0.33893468  0.64800328  0.04747123  1
  O  O557  1  0.33782552  0.64669328  0.29796309  1
  O  O558  1  0.33876389  0.64791743  0.54725242  1
  O  O559  1  0.33734350  0.64874462  0.79788649  1
  O  O560  1  0.33526298  0.98234551  0.04747665  1
  O  O561  1  0.33493929  0.98243933  0.29759124  1
  O  O562  1  0.33668381  0.98182038  0.54792357  1
  O  O563  1  0.33615730  0.98071961  0.79755079  1
  O  O564  1  0.83685565  0.31568131  0.04794502  1
  O  O565  1  0.83749968  0.31629102  0.29819877  1
  O  O566  1  0.83587298  0.31521875  0.54732419  1
  O  O567  1  0.83647439  0.31528452  0.79723022  1
  O  O568  1  0.83669869  0.64737843  0.04799594  1
  O  O569  1  0.83791097  0.64693217  0.29832823  1
  O  O570  1  0.83670375  0.64903212  0.54765834  1
  O  O571  1  0.83588331  0.64803719  0.79714168  1
  O  O572  1  0.83682392  0.98214445  0.04765869  1
  O  O573  1  0.83791758  0.98192979  0.29746681  1
  O  O574  1  0.83882209  0.98074003  0.54840034  1
  O  O575  1  0.83636538  0.98179930  0.79718155  1
  O  O576  1  0.41063156  0.14962180  0.17219399  1
  O  O577  1  0.41138797  0.14843784  0.42184811  1
  O  O578  1  0.41472112  0.14985402  0.67183828  1
  O  O579  1  0.41173246  0.14820468  0.92320382  1
  O  O580  1  0.41166215  0.48156111  0.17296893  1
  O  O581  1  0.41387860  0.48293839  0.42168904  1
  O  O582  1  0.41493566  0.48047149  0.67270339  1
  O  O583  1  0.41465556  0.48295640  0.92245052  1
  O  O584  1  0.41257847  0.81406597  0.17246132  1
  O  O585  1  0.41465313  0.81351542  0.42283988  1
  O  O586  1  0.41388882  0.81472186  0.67367403  1
  O  O587  1  0.41197826  0.81395552  0.92213194  1
  O  O588  1  0.91134288  0.14875834  0.17159817  1
  O  O589  1  0.91468354  0.14976928  0.42260847  1
  O  O590  1  0.91439041  0.14815677  0.67245395  1
  O  O591  1  0.91145131  0.14827382  0.92301217  1
  O  O592  1  0.91119525  0.48193867  0.17260595  1
  O  O593  1  0.91070468  0.48141474  0.42130621  1
  O  O594  1  0.91399134  0.48239639  0.67253730  1
  O  O595  1  0.91287402  0.48209097  0.92322391  1
  O  O596  1  0.91204567  0.81522796  0.17187626  1
  O  O597  1  0.91090353  0.81361828  0.42324139  1
  O  O598  1  0.91148422  0.81492609  0.67200838  1
  O  O599  1  0.91485886  0.81469269  0.92248937  1
  O  O600  1  0.08588833  0.18643090  0.07758170  1
  O  O601  1  0.08731825  0.18457376  0.32688654  1
  O  O602  1  0.08854312  0.18559018  0.57731222  1
  O  O603  1  0.08771606  0.18625902  0.82807138  1
  O  O604  1  0.08590078  0.51681559  0.07823158  1
  O  O605  1  0.08615683  0.51858107  0.32609640  1
  O  O606  1  0.08624626  0.51718793  0.57769772  1
  O  O607  1  0.08871208  0.51820765  0.82766443  1
  O  O608  1  0.08748217  0.85186582  0.07741707  1
  O  O609  1  0.08820146  0.85252028  0.32682728  1
  O  O610  1  0.08656495  0.85186270  0.57768526  1
  O  O611  1  0.08891138  0.85038060  0.82797898  1
  O  O612  1  0.58692962  0.18518443  0.07727755  1
  O  O613  1  0.58918448  0.18619962  0.32620404  1
  O  O614  1  0.58696557  0.18462928  0.57631749  1
  O  O615  1  0.58883705  0.18595157  0.82858121  1
  O  O616  1  0.58761616  0.51781453  0.07737756  1
  O  O617  1  0.58870330  0.51838897  0.32705707  1
  O  O618  1  0.59016543  0.51882793  0.57779118  1
  O  O619  1  0.58823728  0.51713572  0.82817731  1
  O  O620  1  0.58779540  0.85190446  0.07645966  1
  O  O621  1  0.58737586  0.85030456  0.32767536  1
  O  O622  1  0.58855691  0.85143622  0.57858351  1
  O  O623  1  0.58913472  0.85173425  0.82753943  1
  O  O624  1  0.33802433  0.18418958  0.04760282  1
  O  O625  1  0.33635658  0.18600074  0.29716267  1
  O  O626  1  0.33627156  0.18535678  0.54852069  1
  O  O627  1  0.33860976  0.18532713  0.79632391  1
  O  O628  1  0.33877493  0.51803925  0.04789201  1
  O  O629  1  0.33744307  0.51670258  0.29732304  1
  O  O630  1  0.33838865  0.51781588  0.54756676  1
  O  O631  1  0.33740310  0.51879358  0.79870183  1
  O  O632  1  0.33501917  0.85227676  0.04805676  1
  O  O633  1  0.33534033  0.85213669  0.29780840  1
  O  O634  1  0.33728382  0.85162911  0.54775802  1
  O  O635  1  0.33572563  0.85055360  0.79747403  1
  O  O636  1  0.83694130  0.18559675  0.04794365  1
  O  O637  1  0.83811619  0.18634195  0.29863059  1
  O  O638  1  0.83578391  0.18514606  0.54747463  1
  O  O639  1  0.83698930  0.18516549  0.79684568  1
  O  O640  1  0.83652634  0.51741562  0.04770165  1
  O  O641  1  0.83719570  0.51699858  0.29801672  1
  O  O642  1  0.83734204  0.51903613  0.54819229  1
  O  O643  1  0.83551478  0.51808038  0.79718919  1
  O  O644  1  0.83709637  0.85211154  0.04804870  1
  O  O645  1  0.83796676  0.85173196  0.29738336  1
  O  O646  1  0.83812339  0.85059055  0.54762214  1
  O  O647  1  0.83629977  0.85173901  0.79740792  1
  O  O648  1  0.16226248  0.14917162  0.20283792  1
  O  O649  1  0.16099768  0.15014824  0.45281027  1
  O  O650  1  0.16124661  0.14746008  0.70182272  1
  O  O651  1  0.16443582  0.14860817  0.95221558  1
  O  O652  1  0.16241397  0.48211944  0.20170020  1
  O  O653  1  0.16176210  0.48091238  0.45227989  1
  O  O654  1  0.16169634  0.48348991  0.70290948  1
  O  O655  1  0.16128710  0.48152129  0.95243548  1
  O  O656  1  0.16170835  0.81400805  0.20339027  1
  O  O657  1  0.16259319  0.81447055  0.45272597  1
  O  O658  1  0.16308516  0.81412528  0.70300712  1
  O  O659  1  0.16153355  0.81560876  0.95273698  1
  O  O660  1  0.66295945  0.14992602  0.20274858  1
  O  O661  1  0.66206368  0.14897782  0.45255554  1
  O  O662  1  0.66105660  0.14737216  0.70140088  1
  O  O663  1  0.66446148  0.14895380  0.95322993  1
  O  O664  1  0.66330356  0.48170699  0.20327466  1
  O  O665  1  0.66033914  0.48200640  0.45265097  1
  O  O666  1  0.66068584  0.48259942  0.70263750  1
  O  O667  1  0.66330290  0.48154338  0.95267071  1
  O  O668  1  0.66170271  0.81363937  0.20301894  1
  O  O669  1  0.66246477  0.81396969  0.45185758  1
  O  O670  1  0.66152383  0.81517652  0.70199885  1
  O  O671  1  0.66246651  0.81479197  0.95342974  1
