# generated using pymatgen
data_Na2MnFe(PO4)2
_symmetry_space_group_name_H-M   'P 1'
_cell_length_a   21.08293222
_cell_length_b   18.93538418
_cell_length_c   20.04226037
_cell_angle_alpha   90.00028217
_cell_angle_beta   89.99960000
_cell_angle_gamma   89.99886945
_symmetry_Int_Tables_number   1
_chemical_formula_structural   Na2MnFe(PO4)2
_chemical_formula_sum   'Na96 Mn48 Fe48 P96 O384'
_cell_volume   8001.13932756
_cell_formula_units_Z   48
loop_
 _symmetry_equiv_pos_site_id
 _symmetry_equiv_pos_as_xyz
  1  'x, y, z'
loop_
 _atom_site_type_symbol
 _atom_site_label
 _atom_site_symmetry_multiplicity
 _atom_site_fract_x
 _atom_site_fract_y
 _atom_site_fract_z
 _atom_site_occupancy
  Na  Na0  1  -0.00007640  0.00008816  0.00016480  1
  Na  Na1  1  -0.00056948  -0.00014158  0.24893434  1
  Na  Na2  1  0.00027721  0.00063918  0.49986483  1
  Na  Na3  1  0.00019903  0.00079760  0.75042007  1
  Na  Na4  1  0.00215071  0.33444472  -0.00073895  1
  Na  Na5  1  -0.00136487  0.33275055  0.25072465  1
  Na  Na6  1  0.00043996  0.33387928  0.49904152  1
  Na  Na7  1  -0.00035489  0.33285923  0.75078954  1
  Na  Na8  1  0.00007252  0.66738172  -0.00070172  1
  Na  Na9  1  -0.00097295  0.66683509  0.24973173  1
  Na  Na10  1  -0.00205964  0.66619053  0.50029207  1
  Na  Na11  1  -0.00043695  0.66701369  0.75042826  1
  Na  Na12  1  0.49908581  -0.00090861  -0.00049468  1
  Na  Na13  1  0.50134679  0.00045136  0.24950293  1
  Na  Na14  1  0.49954414  -0.00056519  0.50123046  1
  Na  Na15  1  0.49812916  -0.00121010  0.75090093  1
  Na  Na16  1  0.50012129  0.33317495  -0.00148321  1
  Na  Na17  1  0.49938693  0.33262376  0.25082176  1
  Na  Na18  1  0.50345298  0.33429430  0.49992987  1
  Na  Na19  1  0.50160712  0.33327304  0.75067359  1
  Na  Na20  1  0.50065755  0.66705305  0.00070962  1
  Na  Na21  1  0.50180175  0.66747103  0.24862226  1
  Na  Na22  1  0.50228363  0.66674544  0.50058652  1
  Na  Na23  1  0.50283664  0.66787274  0.75012834  1
  Na  Na24  1  0.25023789  -0.00022658  0.12480061  1
  Na  Na25  1  0.24782135  -0.00102628  0.37541322  1
  Na  Na26  1  0.25120621  0.00080389  0.62536573  1
  Na  Na27  1  0.25023671  -0.00047559  0.87443114  1
  Na  Na28  1  0.25061370  0.33339254  0.12512801  1
  Na  Na29  1  0.24943943  0.33317162  0.37516889  1
  Na  Na30  1  0.24843752  0.33319732  0.62500712  1
  Na  Na31  1  0.24880510  0.33306044  0.87455938  1
  Na  Na32  1  0.24935300  0.66691667  0.12489321  1
  Na  Na33  1  0.25144927  0.66743670  0.37606873  1
  Na  Na34  1  0.24935143  0.66646630  0.62447585  1
  Na  Na35  1  0.24941518  0.66743107  0.87473385  1
  Na  Na36  1  0.75183226  0.00054622  0.12580684  1
  Na  Na37  1  0.74970135  -0.00022613  0.37417760  1
  Na  Na38  1  0.75131304  0.00073616  0.62482904  1
  Na  Na39  1  0.75069913  -0.00057119  0.87546105  1
  Na  Na40  1  0.75007756  0.33372253  0.12575835  1
  Na  Na41  1  0.74854896  0.33299280  0.37543995  1
  Na  Na42  1  0.74905094  0.33280650  0.62459255  1
  Na  Na43  1  0.74885283  0.33250768  0.87390531  1
  Na  Na44  1  0.74835103  0.66652614  0.12561317  1
  Na  Na45  1  0.74951979  0.66672733  0.37504472  1
  Na  Na46  1  0.74925269  0.66664836  0.62477947  1
  Na  Na47  1  0.74858856  0.66682359  0.87482615  1
  Na  Na48  1  0.00031683  0.16583884  -0.00023543  1
  Na  Na49  1  -0.00043600  0.16569097  0.24966308  1
  Na  Na50  1  0.00019425  0.16580259  0.49952107  1
  Na  Na51  1  -0.00065147  0.16652652  0.75047130  1
  Na  Na52  1  -0.00046105  0.49990615  -0.00029705  1
  Na  Na53  1  -0.00326826  0.50131087  0.25000364  1
  Na  Na54  1  -0.00180016  0.50000284  0.49957841  1
  Na  Na55  1  -0.00069689  0.49970570  0.75011556  1
  Na  Na56  1  0.00187042  0.83292330  -0.00074339  1
  Na  Na57  1  0.00173060  0.83303937  0.24970047  1
  Na  Na58  1  0.00073349  0.83305494  0.50010708  1
  Na  Na59  1  0.00081535  0.83302171  0.75101353  1
  Na  Na60  1  0.49989881  0.16635384  -0.00150191  1
  Na  Na61  1  0.49951250  0.16744689  0.25030007  1
  Na  Na62  1  0.50265420  0.16598146  0.50116284  1
  Na  Na63  1  0.50024970  0.16719651  0.75019575  1
  Na  Na64  1  0.49961477  0.50002803  0.00010822  1
  Na  Na65  1  0.49948597  0.49990363  0.24954941  1
  Na  Na66  1  0.50116546  0.49973743  0.50062514  1
  Na  Na67  1  0.50100289  0.49976869  0.75036077  1
  Na  Na68  1  0.50124245  0.83358751  0.00032144  1
  Na  Na69  1  0.50284427  0.83275821  0.24900492  1
  Na  Na70  1  0.50163408  0.83337481  0.50003031  1
  Na  Na71  1  0.50089526  0.83354402  0.75093218  1
  Na  Na72  1  0.24893908  0.16681486  0.12594295  1
  Na  Na73  1  0.24815437  0.16696637  0.37455249  1
  Na  Na74  1  0.24912081  0.16609215  0.62524544  1
  Na  Na75  1  0.24842585  0.16677798  0.87464402  1
  Na  Na76  1  0.25191893  0.49954160  0.12455789  1
  Na  Na77  1  0.25190561  0.49951058  0.37676156  1
  Na  Na78  1  0.25016642  0.49935056  0.62409074  1
  Na  Na79  1  0.24932239  0.49985424  0.87480883  1
  Na  Na80  1  0.24892506  0.83404414  0.12425173  1
  Na  Na81  1  0.24887481  0.83367959  0.37527482  1
  Na  Na82  1  0.24972322  0.83339991  0.62553649  1
  Na  Na83  1  0.25007332  0.83359396  0.87441659  1
  Na  Na84  1  0.75105713  0.16576365  0.12578425  1
  Na  Na85  1  0.75034029  0.16640595  0.37453847  1
  Na  Na86  1  0.75079333  0.16648788  0.62537101  1
  Na  Na87  1  0.75007198  0.16680688  0.87391878  1
  Na  Na88  1  0.75182605  0.49967149  0.12572491  1
  Na  Na89  1  0.75016563  0.50010795  0.37554951  1
  Na  Na90  1  0.75025323  0.50007388  0.62392893  1
  Na  Na91  1  0.75014015  0.50073264  0.87455243  1
  Na  Na92  1  0.74751618  0.83387728  0.12557286  1
  Na  Na93  1  0.74759222  0.83394107  0.37447979  1
  Na  Na94  1  0.74874317  0.83326838  0.62486497  1
  Na  Na95  1  0.74786813  0.83369324  0.87565537  1
  Mn  Mn96  1  0.39292170  0.25000705  0.37845720  1
  Mn  Mn97  1  0.10771784  0.74999358  0.37262571  1
  Mn  Mn98  1  0.85697812  0.75014648  0.25170570  1
  Mn  Mn99  1  0.14228174  0.25047512  0.24751257  1
  Mn  Mn100  1  0.14273723  0.91681754  0.74774716  1
  Mn  Mn101  1  0.35889756  0.75027088  0.50230973  1
  Mn  Mn102  1  0.35790932  0.74963846  0.25216071  1
  Mn  Mn103  1  0.14183392  0.58341975  0.99783884  1
  Mn  Mn104  1  0.60826396  0.08328864  0.62340098  1
  Mn  Mn105  1  0.14169641  0.24989893  0.74716081  1
  Mn  Mn106  1  0.10732509  0.41716143  0.37200271  1
  Mn  Mn107  1  0.10709996  0.08289204  0.12244861  1
  Mn  Mn108  1  0.39276273  0.24991944  0.62686898  1
  Mn  Mn109  1  0.89204254  0.25008155  0.87754882  1
  Mn  Mn110  1  0.39328226  0.58341552  0.62780954  1
  Mn  Mn111  1  0.39290369  0.91629752  0.37663105  1
  Mn  Mn112  1  0.35731678  0.41669144  0.00195217  1
  Mn  Mn113  1  0.14223616  0.58351038  0.24822976  1
  Mn  Mn114  1  0.10760688  0.41756078  0.12368003  1
  Mn  Mn115  1  0.14159021  0.58296233  0.49773310  1
  Mn  Mn116  1  0.85730455  0.75097941  0.50239479  1
  Mn  Mn117  1  0.60767429  0.41623788  0.12277029  1
  Mn  Mn118  1  0.64208999  0.24998857  0.24720542  1
  Mn  Mn119  1  0.60792950  0.08361791  0.12217549  1
  Mn  Mn120  1  0.60829467  0.08245795  0.87255749  1
  Mn  Mn121  1  0.64233214  0.58304592  0.99783163  1
  Mn  Mn122  1  0.89211961  0.91639492  0.87718813  1
  Mn  Mn123  1  0.35826941  0.41580163  0.50261792  1
  Mn  Mn124  1  0.39265493  0.58443236  0.87658906  1
  Mn  Mn125  1  0.39221339  0.58339377  0.12789482  1
  Mn  Mn126  1  0.14204752  0.91726320  0.49835601  1
  Mn  Mn127  1  0.85733206  0.75085031  0.00243090  1
  Mn  Mn128  1  0.60860485  0.41738355  0.87232479  1
  Mn  Mn129  1  0.89215724  0.91646526  0.62794723  1
  Mn  Mn130  1  0.64232684  0.58275928  0.49710134  1
  Mn  Mn131  1  0.14176527  0.58309735  0.74713470  1
  Mn  Mn132  1  0.35709238  0.08319600  0.00218874  1
  Mn  Mn133  1  0.35833522  0.74964220  0.75231783  1
  Mn  Mn134  1  0.35775097  0.08364487  0.50175400  1
  Mn  Mn135  1  0.35775206  0.08326715  0.25280549  1
  Mn  Mn136  1  0.39238315  0.24972496  0.87703329  1
  Mn  Mn137  1  0.64178862  0.91795261  0.49771261  1
  Mn  Mn138  1  0.89194611  0.25021025  0.12672483  1
  Mn  Mn139  1  0.89198382  0.24988010  0.37744167  1
  Mn  Mn140  1  0.89197195  0.58356776  0.87684149  1
  Mn  Mn141  1  0.89210878  0.91604576  0.37658895  1
  Mn  Mn142  1  0.85726429  0.41573360  0.50267723  1
  Mn  Mn143  1  0.85806512  0.41606578  0.00225398  1
  Fe  Fe144  1  0.39278605  0.91696469  0.12679374  1
  Fe  Fe145  1  0.14138939  0.24993323  0.49878211  1
  Fe  Fe146  1  0.89217690  0.58442152  0.12682900  1
  Fe  Fe147  1  0.64341927  0.58327348  0.74801418  1
  Fe  Fe148  1  0.14228317  0.91640488  0.24736440  1
  Fe  Fe149  1  0.64274974  0.58326039  0.24839115  1
  Fe  Fe150  1  0.14285698  0.91709044  0.99817958  1
  Fe  Fe151  1  0.35707024  0.75043461  0.00156721  1
  Fe  Fe152  1  0.85757740  0.08329927  0.50148463  1
  Fe  Fe153  1  0.10762647  0.74994011  0.87287548  1
  Fe  Fe154  1  0.89153398  0.58387293  0.37629824  1
  Fe  Fe155  1  0.60828819  0.41703440  0.62400024  1
  Fe  Fe156  1  0.14229231  0.24953857  0.99857556  1
  Fe  Fe157  1  0.60838335  0.08322379  0.37330441  1
  Fe  Fe158  1  0.85690406  0.41659466  0.25171477  1
  Fe  Fe159  1  0.64256899  0.91687481  0.24768649  1
  Fe  Fe160  1  0.85726088  0.08311851  0.00117935  1
  Fe  Fe161  1  0.89275930  0.91563526  0.12645651  1
  Fe  Fe162  1  0.10753954  0.41675957  0.87253855  1
  Fe  Fe163  1  0.60735665  0.41721721  0.37249160  1
  Fe  Fe164  1  0.39329052  0.91592493  0.87719427  1
  Fe  Fe165  1  0.35743457  0.41618964  0.75124848  1
  Fe  Fe166  1  0.39197463  0.24937069  0.12591646  1
  Fe  Fe167  1  0.35813183  0.41666195  0.25211151  1
  Fe  Fe168  1  0.64340155  0.24925873  0.49868997  1
  Fe  Fe169  1  0.85659853  0.75027043  0.75145929  1
  Fe  Fe170  1  0.10725677  0.74973260  0.12316279  1
  Fe  Fe171  1  0.10650272  0.41665967  0.62369178  1
  Fe  Fe172  1  0.60699513  0.75026082  0.12283580  1
  Fe  Fe173  1  0.35714217  0.08406131  0.75163980  1
  Fe  Fe174  1  0.64274342  0.91776814  0.99870301  1
  Fe  Fe175  1  0.39397801  0.58361515  0.37623524  1
  Fe  Fe176  1  0.39304591  0.91641282  0.62694392  1
  Fe  Fe177  1  0.85767351  0.08298131  0.75157607  1
  Fe  Fe178  1  0.64373934  0.24995479  0.74777921  1
  Fe  Fe179  1  0.60742514  0.75005925  0.87342656  1
  Fe  Fe180  1  0.60765073  0.74981745  0.37282593  1
  Fe  Fe181  1  0.60798876  0.75004664  0.62387154  1
  Fe  Fe182  1  0.64228518  0.24941025  0.99888045  1
  Fe  Fe183  1  0.10657330  0.74966906  0.62371353  1
  Fe  Fe184  1  0.64274570  0.91690535  0.74856204  1
  Fe  Fe185  1  0.89238721  0.58310372  0.62692084  1
  Fe  Fe186  1  0.10710152  0.08323494  0.87319667  1
  Fe  Fe187  1  0.10690799  0.08361650  0.62320300  1
  Fe  Fe188  1  0.89272869  0.25044373  0.62626537  1
  Fe  Fe189  1  0.10671830  0.08291279  0.37312096  1
  Fe  Fe190  1  0.85697254  0.08336476  0.25202618  1
  Fe  Fe191  1  0.85723061  0.41674469  0.75081616  1
  P  P192  1  0.05343203  0.25015832  0.10935757  1
  P  P193  1  0.05423393  0.24896236  0.36087819  1
  P  P194  1  0.05215417  0.25004643  0.60970650  1
  P  P195  1  0.05477308  0.24946501  0.86126154  1
  P  P196  1  0.05171716  0.58423942  0.11018621  1
  P  P197  1  0.05132872  0.58341560  0.35975666  1
  P  P198  1  0.05162593  0.58317123  0.61023015  1
  P  P199  1  0.05360505  0.58336908  0.85985597  1
  P  P200  1  0.05388661  0.91579938  0.11008551  1
  P  P201  1  0.05401447  0.91759764  0.35915842  1
  P  P202  1  0.05320631  0.91677258  0.61063937  1
  P  P203  1  0.05493915  0.91711249  0.86131463  1
  P  P204  1  0.55200959  0.24984410  0.10894100  1
  P  P205  1  0.55543362  0.24975053  0.36155933  1
  P  P206  1  0.55609049  0.25084850  0.61094376  1
  P  P207  1  0.55602039  0.24959322  0.86016062  1
  P  P208  1  0.55447170  0.58352379  0.11116132  1
  P  P209  1  0.55339361  0.58316699  0.35919196  1
  P  P210  1  0.55575494  0.58316678  0.61160189  1
  P  P211  1  0.55463030  0.58436451  0.85941955  1
  P  P212  1  0.55421797  0.91664187  0.11026342  1
  P  P213  1  0.55448207  0.91708854  0.35923052  1
  P  P214  1  0.55391478  0.91628442  0.61188463  1
  P  P215  1  0.55454822  0.91596755  0.86096862  1
  P  P216  1  0.44631005  0.08314465  0.13958031  1
  P  P217  1  0.44880763  0.08310938  0.39031693  1
  P  P218  1  0.44627482  0.08293102  0.64084578  1
  P  P219  1  0.44547131  0.08248062  0.88864635  1
  P  P220  1  0.44590911  0.41523673  0.14037410  1
  P  P221  1  0.44722128  0.41761969  0.38918847  1
  P  P222  1  0.44820746  0.41616636  0.64074860  1
  P  P223  1  0.44581266  0.41693508  0.88865591  1
  P  P224  1  0.44638949  0.75146006  0.13846766  1
  P  P225  1  0.44869306  0.74930067  0.38944601  1
  P  P226  1  0.44865362  0.75056688  0.64027822  1
  P  P227  1  0.44750096  0.75073789  0.89080407  1
  P  P228  1  0.94400539  0.08214049  0.13896955  1
  P  P229  1  0.94562547  0.08282191  0.38927473  1
  P  P230  1  0.94600937  0.08432732  0.63933201  1
  P  P231  1  0.94573995  0.08310741  0.88954990  1
  P  P232  1  0.94577017  0.41743449  0.14061767  1
  P  P233  1  0.94451907  0.41741197  0.38883182  1
  P  P234  1  0.94685768  0.41618939  0.64022995  1
  P  P235  1  0.94655041  0.41664374  0.88855276  1
  P  P236  1  0.94747044  0.75067398  0.13947977  1
  P  P237  1  0.94617150  0.74975763  0.38987229  1
  P  P238  1  0.94671490  0.74954129  0.64083548  1
  P  P239  1  0.94637398  0.75025974  0.88878471  1
  P  P240  1  0.19508786  0.08239697  0.23598066  1
  P  P241  1  0.19439220  0.08430286  0.48557009  1
  P  P242  1  0.19594761  0.08313004  0.73545565  1
  P  P243  1  0.19563268  0.08284899  0.98451979  1
  P  P244  1  0.19853804  0.41735909  0.23508551  1
  P  P245  1  0.19463654  0.41571775  0.48619617  1
  P  P246  1  0.19592579  0.41663268  0.73492820  1
  P  P247  1  0.19558094  0.41597389  0.98451112  1
  P  P248  1  0.19595566  0.75048182  0.23419880  1
  P  P249  1  0.19552188  0.75002631  0.48630478  1
  P  P250  1  0.19517348  0.74999769  0.73508243  1
  P  P251  1  0.19569312  0.75113041  0.98541637  1
  P  P252  1  0.69654823  0.08265585  0.23591824  1
  P  P253  1  0.69764544  0.08417782  0.48459213  1
  P  P254  1  0.69822488  0.08276779  0.73529996  1
  P  P255  1  0.69790564  0.08314031  0.98519491  1
  P  P256  1  0.69647651  0.41776871  0.23630733  1
  P  P257  1  0.69480095  0.41564605  0.48559536  1
  P  P258  1  0.69776579  0.41697567  0.73438673  1
  P  P259  1  0.69705358  0.41589997  0.98492076  1
  P  P260  1  0.69398252  0.74968349  0.23566500  1
  P  P261  1  0.69465432  0.75017493  0.48531273  1
  P  P262  1  0.69591682  0.75024509  0.73594023  1
  P  P263  1  0.69455452  0.75107867  0.98583915  1
  P  P264  1  0.30208716  0.24961145  0.01520045  1
  P  P265  1  0.30503178  0.25060691  0.26436096  1
  P  P266  1  0.30157722  0.24965824  0.51533520  1
  P  P267  1  0.30349915  0.25006832  0.76449899  1
  P  P268  1  0.30343457  0.58475566  0.01462335  1
  P  P269  1  0.30413087  0.58276851  0.26629765  1
  P  P270  1  0.30517918  0.58334872  0.51426738  1
  P  P271  1  0.30328058  0.58237948  0.76475158  1
  P  P272  1  0.30414478  0.91574296  0.01412924  1
  P  P273  1  0.30290061  0.91639349  0.26409191  1
  P  P274  1  0.30429714  0.91675624  0.51587136  1
  P  P275  1  0.30597177  0.91733400  0.76440962  1
  P  P276  1  0.80167055  0.24912156  0.01485524  1
  P  P277  1  0.80349021  0.25014465  0.26494951  1
  P  P278  1  0.80299695  0.24893072  0.51550050  1
  P  P279  1  0.80436795  0.25024738  0.76312899  1
  P  P280  1  0.80385334  0.58391009  0.01572925  1
  P  P281  1  0.80363310  0.58328579  0.26449009  1
  P  P282  1  0.80495257  0.58360186  0.51461841  1
  P  P283  1  0.80368869  0.58358176  0.76320752  1
  P  P284  1  0.80266762  0.91700362  0.01571695  1
  P  P285  1  0.80308528  0.91655115  0.26352878  1
  P  P286  1  0.80312238  0.91759072  0.51486719  1
  P  P287  1  0.80224587  0.91609830  0.76493107  1
  O  O288  1  0.05637751  0.24985930  0.18620316  1
  O  O289  1  0.05784413  0.24974457  0.43763302  1
  O  O290  1  0.05547610  0.24979944  0.68649405  1
  O  O291  1  0.05872295  0.24946933  0.93798411  1
  O  O292  1  0.05555253  0.58365409  0.18683847  1
  O  O293  1  0.05540469  0.58299605  0.43643919  1
  O  O294  1  0.05533090  0.58314334  0.68691252  1
  O  O295  1  0.05630181  0.58338334  0.93664027  1
  O  O296  1  0.05830802  0.91666159  0.18678941  1
  O  O297  1  0.05677216  0.91695415  0.43596749  1
  O  O298  1  0.05617326  0.91709601  0.68740713  1
  O  O299  1  0.05865390  0.91714763  0.93806615  1
  O  O300  1  0.55620747  0.24980319  0.18569586  1
  O  O301  1  0.55954080  0.24937443  0.43830866  1
  O  O302  1  0.56033291  0.24984766  0.68777064  1
  O  O303  1  0.56020116  0.24934698  0.93695985  1
  O  O304  1  0.55866429  0.58273392  0.18784160  1
  O  O305  1  0.55650916  0.58281280  0.43605624  1
  O  O306  1  0.55982252  0.58303008  0.68832271  1
  O  O307  1  0.55705913  0.58304521  0.93624004  1
  O  O308  1  0.55912224  0.91757765  0.18693989  1
  O  O309  1  0.55668002  0.91755117  0.43611137  1
  O  O310  1  0.55875068  0.91717340  0.68857083  1
  O  O311  1  0.55920732  0.91754133  0.93762745  1
  O  O312  1  0.44321456  0.08298433  0.06278077  1
  O  O313  1  0.44442363  0.08345363  0.31362491  1
  O  O314  1  0.44349183  0.08380817  0.56402235  1
  O  O315  1  0.44132112  0.08370230  0.81196987  1
  O  O316  1  0.44293885  0.41611705  0.06350712  1
  O  O317  1  0.44228159  0.41660472  0.31256319  1
  O  O318  1  0.44437156  0.41595954  0.56395678  1
  O  O319  1  0.44132175  0.41651566  0.81194338  1
  O  O320  1  0.44156100  0.75085961  0.06186427  1
  O  O321  1  0.44482137  0.74996467  0.31276701  1
  O  O322  1  0.44516764  0.75004504  0.56356376  1
  O  O323  1  0.44396528  0.75008245  0.81407771  1
  O  O324  1  0.94002910  0.08307692  0.06214030  1
  O  O325  1  0.94049451  0.08297516  0.31253689  1
  O  O326  1  0.94132721  0.08344829  0.56263561  1
  O  O327  1  0.94055022  0.08303233  0.81281311  1
  O  O328  1  0.94352060  0.41630903  0.06373120  1
  O  O329  1  0.94013870  0.41658315  0.31207674  1
  O  O330  1  0.94333419  0.41601240  0.56351300  1
  O  O331  1  0.94091423  0.41635109  0.81194456  1
  O  O332  1  0.94399569  0.75092186  0.06278681  1
  O  O333  1  0.94290429  0.75063013  0.31311560  1
  O  O334  1  0.94293547  0.75061866  0.56413001  1
  O  O335  1  0.94067415  0.75055718  0.81220398  1
  O  O336  1  0.19292524  0.08275759  0.06136430  1
  O  O337  1  0.19102137  0.08275034  0.31271160  1
  O  O338  1  0.19029523  0.08350401  0.56241778  1
  O  O339  1  0.19103919  0.08301679  0.81209905  1
  O  O340  1  0.19287344  0.41693062  0.06132239  1
  O  O341  1  0.19429419  0.41750073  0.31179916  1
  O  O342  1  0.18975256  0.41668485  0.56294854  1
  O  O343  1  0.19093696  0.41681999  0.81163295  1
  O  O344  1  0.19093175  0.75015482  0.06212297  1
  O  O345  1  0.19318324  0.74981713  0.31104267  1
  O  O346  1  0.19040407  0.74957952  0.56303520  1
  O  O347  1  0.19076094  0.75002017  0.81189200  1
  O  O348  1  0.69454945  0.08305634  0.06190710  1
  O  O349  1  0.69190482  0.08313655  0.31255812  1
  O  O350  1  0.69397888  0.08331181  0.56129153  1
  O  O351  1  0.69461983  0.08248758  0.81196420  1
  O  O352  1  0.69409693  0.41668856  0.06172468  1
  O  O353  1  0.69166214  0.41742830  0.31300295  1
  O  O354  1  0.69125731  0.41688985  0.56235177  1
  O  O355  1  0.69455288  0.41729551  0.81112148  1
  O  O356  1  0.69056193  0.75017838  0.06264267  1
  O  O357  1  0.69056707  0.74958506  0.31254590  1
  O  O358  1  0.69075145  0.75007036  0.56213088  1
  O  O359  1  0.69171278  0.75020510  0.81266597  1
  O  O360  1  0.30906690  0.24965813  0.18759690  1
  O  O361  1  0.30599378  0.24978995  0.43861110  1
  O  O362  1  0.30657186  0.25000758  0.68777159  1
  O  O363  1  0.30623241  0.24940416  0.93850698  1
  O  O364  1  0.30689417  0.58368432  0.18940449  1
  O  O365  1  0.31032585  0.58375886  0.43758351  1
  O  O366  1  0.30659122  0.58318986  0.68794366  1
  O  O367  1  0.30650222  0.58449700  0.93788409  1
  O  O368  1  0.30822597  0.91661958  0.18743181  1
  O  O369  1  0.30735375  0.91638192  0.43902094  1
  O  O370  1  0.31001828  0.91620327  0.68762211  1
  O  O371  1  0.30903746  0.91603723  0.93743714  1
  O  O372  1  0.80643231  0.25023233  0.18819276  1
  O  O373  1  0.80642307  0.24990860  0.43879931  1
  O  O374  1  0.80899841  0.25041972  0.68648105  1
  O  O375  1  0.80529309  0.24980832  0.93810084  1
  O  O376  1  0.80849304  0.58425250  0.18776545  1
  O  O377  1  0.80877482  0.58382967  0.43782965  1
  O  O378  1  0.80831564  0.58350084  0.68648914  1
  O  O379  1  0.80683519  0.58437716  0.93885912  1
  O  O380  1  0.80810066  0.91554945  0.18693847  1
  O  O381  1  0.80606446  0.91652615  0.43811284  1
  O  O382  1  0.80591586  0.91595093  0.68824273  1
  O  O383  1  0.80647696  0.91576847  0.93899004  1
  O  O384  1  0.23190922  0.24973260  0.03940085  1
  O  O385  1  0.23496627  0.25023465  0.28848715  1
  O  O386  1  0.23155455  0.24976059  0.53970719  1
  O  O387  1  0.23375252  0.24994538  0.78949013  1
  O  O388  1  0.23373826  0.58362735  0.03987798  1
  O  O389  1  0.23452125  0.58353793  0.29176665  1
  O  O390  1  0.23493251  0.58297266  0.53776670  1
  O  O391  1  0.23362739  0.58313727  0.78984196  1
  O  O392  1  0.23362623  0.91683658  0.03743371  1
  O  O393  1  0.23253846  0.91609703  0.28756941  1
  O  O394  1  0.23451861  0.91712106  0.54075765  1
  O  O395  1  0.23578139  0.91666041  0.78821228  1
  O  O396  1  0.73185421  0.24936120  0.04019972  1
  O  O397  1  0.73381260  0.24988939  0.29009763  1
  O  O398  1  0.73296004  0.24943874  0.54001959  1
  O  O399  1  0.73394491  0.24988934  0.78687405  1
  O  O400  1  0.73411288  0.58334831  0.04058519  1
  O  O401  1  0.73325612  0.58382689  0.28819857  1
  O  O402  1  0.73477604  0.58326937  0.53835829  1
  O  O403  1  0.73336081  0.58367726  0.78720111  1
  O  O404  1  0.73252555  0.91718991  0.04003612  1
  O  O405  1  0.73270959  0.91639391  0.28715850  1
  O  O406  1  0.73347522  0.91763889  0.54013023  1
  O  O407  1  0.73224489  0.91654482  0.78974984  1
  O  O408  1  0.26503127  0.08315530  0.21153057  1
  O  O409  1  0.26442782  0.08321207  0.46121151  1
  O  O410  1  0.26640313  0.08341611  0.71214032  1
  O  O411  1  0.26533729  0.08283780  0.95931563  1
  O  O412  1  0.26852547  0.41688449  0.21065115  1
  O  O413  1  0.26487129  0.41595727  0.46260334  1
  O  O414  1  0.26630092  0.41618070  0.71136958  1
  O  O415  1  0.26534727  0.41648767  0.95936073  1
  O  O416  1  0.26565331  0.75032148  0.20905425  1
  O  O417  1  0.26569060  0.75059974  0.46258865  1
  O  O418  1  0.26537628  0.74998195  0.71147825  1
  O  O419  1  0.26605927  0.75086210  0.96157105  1
  O  O420  1  0.76693084  0.08316737  0.21232140  1
  O  O421  1  0.76767632  0.08350508  0.45992893  1
  O  O422  1  0.76831235  0.08317461  0.71065347  1
  O  O423  1  0.76781449  0.08286021  0.96000930  1
  O  O424  1  0.76679587  0.41698033  0.21254682  1
  O  O425  1  0.76483600  0.41631817  0.46140655  1
  O  O426  1  0.76780800  0.41663225  0.70946364  1
  O  O427  1  0.76658552  0.41650021  0.95924549  1
  O  O428  1  0.76397379  0.74990908  0.21115461  1
  O  O429  1  0.76461753  0.75034071  0.46104960  1
  O  O430  1  0.76620089  0.75000436  0.71161199  1
  O  O431  1  0.76459290  0.75040074  0.96160086  1
  O  O432  1  0.01417379  0.08275471  0.16283275  1
  O  O433  1  0.01603665  0.08298029  0.41252914  1
  O  O434  1  0.01646393  0.08377943  0.66301377  1
  O  O435  1  0.01617230  0.08304904  0.91271601  1
  O  O436  1  0.01529763  0.41706143  0.16641866  1
  O  O437  1  0.01453153  0.41707236  0.41291196  1
  O  O438  1  0.01700520  0.41633977  0.66485086  1
  O  O439  1  0.01699899  0.41684435  0.91172725  1
  O  O440  1  0.01738600  0.75023712  0.16445022  1
  O  O441  1  0.01582395  0.74970730  0.41503341  1
  O  O442  1  0.01693963  0.74998760  0.66505129  1
  O  O443  1  0.01690865  0.75016689  0.91176874  1
  O  O444  1  0.51602239  0.08348296  0.16473345  1
  O  O445  1  0.51888590  0.08279398  0.41467796  1
  O  O446  1  0.51603795  0.08321485  0.66600793  1
  O  O447  1  0.51551085  0.08243703  0.91291567  1
  O  O448  1  0.51568033  0.41602291  0.16541244  1
  O  O449  1  0.51765729  0.41713903  0.41271900  1
  O  O450  1  0.51839327  0.41652866  0.66492849  1
  O  O451  1  0.51592906  0.41687833  0.91257341  1
  O  O452  1  0.51681236  0.75093846  0.16201839  1
  O  O453  1  0.51880924  0.74989860  0.41396567  1
  O  O454  1  0.51864977  0.75043310  0.66505874  1
  O  O455  1  0.51761817  0.75041154  0.91515367  1
  O  O456  1  0.48193806  0.24964588  0.08458872  1
  O  O457  1  0.48543087  0.25022288  0.33724963  1
  O  O458  1  0.48605631  0.25009867  0.58667395  1
  O  O459  1  0.48582836  0.24990012  0.83653254  1
  O  O460  1  0.48444323  0.58337155  0.08684190  1
  O  O461  1  0.48350280  0.58344451  0.33412023  1
  O  O462  1  0.48587472  0.58312091  0.58694960  1
  O  O463  1  0.48506451  0.58407018  0.83393139  1
  O  O464  1  0.48382399  0.91670320  0.08674671  1
  O  O465  1  0.48493415  0.91651571  0.33344026  1
  O  O466  1  0.48367057  0.91640854  0.58786658  1
  O  O467  1  0.48413009  0.91600214  0.83753428  1
  O  O468  1  0.98372866  0.25014104  0.08419725  1
  O  O469  1  0.98433092  0.24897310  0.33626371  1
  O  O470  1  0.98212041  0.25008374  0.58477656  1
  O  O471  1  0.98479116  0.24942407  0.83682508  1
  O  O472  1  0.98172373  0.58408231  0.08532170  1
  O  O473  1  0.98123589  0.58383837  0.33547977  1
  O  O474  1  0.98147130  0.58300772  0.58572630  1
  O  O475  1  0.98396749  0.58344963  0.83449221  1
  O  O476  1  0.98356718  0.91637412  0.08613434  1
  O  O477  1  0.98431994  0.91673750  0.33393466  1
  O  O478  1  0.98359112  0.91679051  0.58512170  1
  O  O479  1  0.98502350  0.91695091  0.83660898  1
  O  O480  1  0.08780321  0.31520590  0.07736059  1
  O  O481  1  0.08779668  0.31405752  0.32766696  1
  O  O482  1  0.08618767  0.31515403  0.57730125  1
  O  O483  1  0.08830937  0.31458083  0.82817450  1
  O  O484  1  0.08566950  0.64931123  0.07756300  1
  O  O485  1  0.08533007  0.64842195  0.32723489  1
  O  O486  1  0.08527844  0.64836823  0.57755965  1
  O  O487  1  0.08775265  0.64852609  0.82766814  1
  O  O488  1  0.08768273  0.98061877  0.07657973  1
  O  O489  1  0.08772185  0.98290434  0.32679182  1
  O  O490  1  0.08723585  0.98193360  0.57825341  1
  O  O491  1  0.08840401  0.98232614  0.82831107  1
  O  O492  1  0.58607877  0.31480342  0.07628012  1
  O  O493  1  0.58905652  0.31494996  0.32860113  1
  O  O494  1  0.58949100  0.31611954  0.57836722  1
  O  O495  1  0.58988879  0.31449596  0.82709355  1
  O  O496  1  0.58789386  0.64883800  0.07851792  1
  O  O497  1  0.58766309  0.64817858  0.32696652  1
  O  O498  1  0.58929555  0.64839585  0.57880319  1
  O  O499  1  0.58881917  0.64982301  0.82789495  1
  O  O500  1  0.58751869  0.98157609  0.07639776  1
  O  O501  1  0.58870901  0.98222888  0.32690202  1
  O  O502  1  0.58708976  0.98138087  0.57827446  1
  O  O503  1  0.58799047  0.98058479  0.82670020  1
  O  O504  1  0.41247765  0.01779694  0.17204283  1
  O  O505  1  0.41476997  0.01799987  0.42263056  1
  O  O506  1  0.41207205  0.01779322  0.67282406  1
  O  O507  1  0.41192885  0.01718593  0.92124876  1
  O  O508  1  0.41224113  0.34985500  0.17251291  1
  O  O509  1  0.41385729  0.35280705  0.42322864  1
  O  O510  1  0.41447272  0.35106951  0.67350539  1
  O  O511  1  0.41232583  0.35194084  0.92196991  1
  O  O512  1  0.41313472  0.68649133  0.17210399  1
  O  O513  1  0.41531724  0.68406862  0.42220392  1
  O  O514  1  0.41493546  0.68546717  0.67319575  1
  O  O515  1  0.41332383  0.68589031  0.92367847  1
  O  O516  1  0.91084253  0.01669489  0.17169775  1
  O  O517  1  0.91240521  0.01778311  0.42269285  1
  O  O518  1  0.91238508  0.01954649  0.67320238  1
  O  O519  1  0.91231889  0.01819863  0.92302088  1
  O  O520  1  0.91106439  0.35260004  0.17304756  1
  O  O521  1  0.91114475  0.35236415  0.42234250  1
  O  O522  1  0.91311697  0.35105697  0.67300943  1
  O  O523  1  0.91367988  0.35158827  0.92240108  1
  O  O524  1  0.91309168  0.68577336  0.17196083  1
  O  O525  1  0.91180416  0.68477627  0.42192418  1
  O  O526  1  0.91301737  0.68427288  0.67324744  1
  O  O527  1  0.91318625  0.68526223  0.92219439  1
  O  O528  1  0.16180839  0.01716616  0.20283533  1
  O  O529  1  0.16015411  0.01958663  0.45239205  1
  O  O530  1  0.16276762  0.01817589  0.70184557  1
  O  O531  1  0.16150095  0.01775206  0.95207699  1
  O  O532  1  0.16432565  0.35246585  0.20247817  1
  O  O533  1  0.16137703  0.35038611  0.45341405  1
  O  O534  1  0.16204568  0.35174943  0.70180736  1
  O  O535  1  0.16168456  0.35067752  0.95236581  1
  O  O536  1  0.16161900  0.68546094  0.20163913  1
  O  O537  1  0.16248861  0.68492038  0.45270109  1
  O  O538  1  0.16147428  0.68512252  0.70176800  1
  O  O539  1  0.16205356  0.68623761  0.95186021  1
  O  O540  1  0.66355673  0.01752830  0.20254138  1
  O  O541  1  0.66326492  0.01950276  0.45154539  1
  O  O542  1  0.66465096  0.01764135  0.70243050  1
  O  O543  1  0.66387722  0.01800500  0.95263822  1
  O  O544  1  0.66291336  0.35279357  0.20295577  1
  O  O545  1  0.66150625  0.35022562  0.45320564  1
  O  O546  1  0.66354029  0.35192996  0.70210013  1
  O  O547  1  0.66305008  0.35063109  0.95302081  1
  O  O548  1  0.66032744  0.68458106  0.20279773  1
  O  O549  1  0.66107869  0.68506985  0.45219835  1
  O  O550  1  0.66228734  0.68532750  0.70259536  1
  O  O551  1  0.66053254  0.68642886  0.95238439  1
  O  O552  1  0.33613662  0.31454932  0.04788631  1
  O  O553  1  0.33837612  0.31597164  0.29715086  1
  O  O554  1  0.33567865  0.31451030  0.54820393  1
  O  O555  1  0.33742325  0.31527758  0.79694104  1
  O  O556  1  0.33689383  0.65014471  0.04715945  1
  O  O557  1  0.33894725  0.64765799  0.29862484  1
  O  O558  1  0.33835269  0.64843727  0.54780348  1
  O  O559  1  0.33761369  0.64739523  0.79730668  1
  O  O560  1  0.33794496  0.98047533  0.04773720  1
  O  O561  1  0.33600006  0.98141853  0.29779615  1
  O  O562  1  0.33868049  0.98177557  0.54802935  1
  O  O563  1  0.33910554  0.98273468  0.79710669  1
  O  O564  1  0.83578822  0.31411887  0.04745445  1
  O  O565  1  0.83731899  0.31527631  0.29750181  1
  O  O566  1  0.83711139  0.31372037  0.54866205  1
  O  O567  1  0.83720798  0.31545094  0.79670524  1
  O  O568  1  0.83764568  0.64903343  0.04851078  1
  O  O569  1  0.83719046  0.64820759  0.29805045  1
  O  O570  1  0.83832072  0.64855309  0.54799372  1
  O  O571  1  0.83681693  0.64872390  0.79660162  1
  O  O572  1  0.83689362  0.98202563  0.04776773  1
  O  O573  1  0.83638948  0.98169855  0.29656962  1
  O  O574  1  0.83737282  0.98278414  0.54678890  1
  O  O575  1  0.83649466  0.98113152  0.79728501  1
  O  O576  1  0.41213348  0.14822924  0.17183755  1
  O  O577  1  0.41516960  0.14811014  0.42350979  1
  O  O578  1  0.41190236  0.14789752  0.67342952  1
  O  O579  1  0.41198846  0.14738939  0.92216902  1
  O  O580  1  0.41129312  0.48003021  0.17308197  1
  O  O581  1  0.41430049  0.48300855  0.42212161  1
  O  O582  1  0.41402305  0.48102743  0.67341095  1
  O  O583  1  0.41251213  0.48214488  0.92165896  1
  O  O584  1  0.41351654  0.81666855  0.17194823  1
  O  O585  1  0.41477859  0.81426190  0.42240699  1
  O  O586  1  0.41467025  0.81546707  0.67286411  1
  O  O587  1  0.41357378  0.81585918  0.92338691  1
  O  O588  1  0.91020390  0.14691847  0.17245593  1
  O  O589  1  0.91219654  0.14764677  0.42301811  1
  O  O590  1  0.91294761  0.14962003  0.67239866  1
  O  O591  1  0.91237890  0.14807198  0.92300437  1
  O  O592  1  0.91134199  0.48275782  0.17211346  1
  O  O593  1  0.91098571  0.48255388  0.42149902  1
  O  O594  1  0.91275304  0.48118021  0.67291366  1
  O  O595  1  0.91326304  0.48164572  0.92184174  1
  O  O596  1  0.91375891  0.81582790  0.17233277  1
  O  O597  1  0.91238617  0.81493834  0.42267160  1
  O  O598  1  0.91264942  0.81431147  0.67417577  1
  O  O599  1  0.91347022  0.81525729  0.92267104  1
  O  O600  1  0.08768083  0.18514008  0.07689839  1
  O  O601  1  0.08794433  0.18380750  0.32827452  1
  O  O602  1  0.08628812  0.18505046  0.57713386  1
  O  O603  1  0.08816773  0.18423201  0.82815908  1
  O  O604  1  0.08559623  0.51914686  0.07745160  1
  O  O605  1  0.08485644  0.51845359  0.32648754  1
  O  O606  1  0.08533653  0.51802462  0.57752337  1
  O  O607  1  0.08762670  0.51821917  0.82745334  1
  O  O608  1  0.08739999  0.85064072  0.07723701  1
  O  O609  1  0.08877903  0.85284763  0.32665407  1
  O  O610  1  0.08725212  0.85152752  0.57852348  1
  O  O611  1  0.08882995  0.85207548  0.82855535  1
  O  O612  1  0.58613115  0.18490332  0.07609524  1
  O  O613  1  0.58856669  0.18449835  0.32822847  1
  O  O614  1  0.59015220  0.18599413  0.57774408  1
  O  O615  1  0.58949120  0.18452674  0.82691721  1
  O  O616  1  0.58789416  0.51854038  0.07775315  1
  O  O617  1  0.58751568  0.51817256  0.32650873  1
  O  O618  1  0.58926345  0.51802552  0.57852036  1
  O  O619  1  0.58942617  0.51981231  0.82653934  1
  O  O620  1  0.58782836  0.85163254  0.07733442  1
  O  O621  1  0.58916108  0.85207427  0.32734568  1
  O  O622  1  0.58743299  0.85128525  0.57892032  1
  O  O623  1  0.58789984  0.85063615  0.82825408  1
  O  O624  1  0.33576767  0.18461175  0.04833125  1
  O  O625  1  0.33862709  0.18567875  0.29788651  1
  O  O626  1  0.33543797  0.18455792  0.54786780  1
  O  O627  1  0.33751002  0.18491610  0.79703695  1
  O  O628  1  0.33812249  0.51991016  0.04687268  1
  O  O629  1  0.33830401  0.51747400  0.29816619  1
  O  O630  1  0.33865056  0.51820598  0.54733541  1
  O  O631  1  0.33707441  0.51703913  0.79677851  1
  O  O632  1  0.33699123  0.85054946  0.04769730  1
  O  O633  1  0.33628009  0.85133526  0.29744735  1
  O  O634  1  0.33848462  0.85181837  0.54860922  1
  O  O635  1  0.33978111  0.85256615  0.79806506  1
  O  O636  1  0.83571930  0.18402189  0.04701978  1
  O  O637  1  0.83766564  0.18495178  0.29716276  1
  O  O638  1  0.83689698  0.18373395  0.54774546  1
  O  O639  1  0.83772421  0.18516144  0.79637803  1
  O  O640  1  0.83846273  0.51901506  0.04776807  1
  O  O641  1  0.83683878  0.51812435  0.29760401  1
  O  O642  1  0.83866545  0.51859686  0.54763650  1
  O  O643  1  0.83689695  0.51834486  0.79632357  1
  O  O644  1  0.83631570  0.85204386  0.04912660  1
  O  O645  1  0.83612105  0.85156319  0.29738669  1
  O  O646  1  0.83701345  0.85264687  0.54783795  1
  O  O647  1  0.83573303  0.85092984  0.79789390  1
  O  O648  1  0.16104603  0.14727072  0.20294402  1
  O  O649  1  0.16109553  0.14965898  0.45289207  1
  O  O650  1  0.16228394  0.14797313  0.70200708  1
  O  O651  1  0.16135882  0.14791123  0.95227067  1
  O  O652  1  0.16496005  0.48253564  0.20221800  1
  O  O653  1  0.16135209  0.48072367  0.45251531  1
  O  O654  1  0.16259346  0.48155540  0.70130016  1
  O  O655  1  0.16111839  0.48083764  0.95179264  1
  O  O656  1  0.16155321  0.81545796  0.20192483  1
  O  O657  1  0.16194759  0.81513182  0.45335556  1
  O  O658  1  0.16156024  0.81500676  0.70204224  1
  O  O659  1  0.16240234  0.81637652  0.95239286  1
  O  O660  1  0.66318344  0.14760191  0.20236664  1
  O  O661  1  0.66399225  0.14944131  0.45212126  1
  O  O662  1  0.66429858  0.14777167  0.70271505  1
  O  O663  1  0.66396702  0.14813540  0.95265751  1
  O  O664  1  0.66362326  0.48293133  0.20292718  1
  O  O665  1  0.66083284  0.48036352  0.45199648  1
  O  O666  1  0.66387480  0.48197810  0.70158461  1
  O  O667  1  0.66269404  0.48087656  0.95236286  1
  O  O668  1  0.66007424  0.81474264  0.20287497  1
  O  O669  1  0.66070659  0.81508448  0.45253292  1
  O  O670  1  0.66252627  0.81546180  0.70284014  1
  O  O671  1  0.66125910  0.81654462  0.95332777  1
