# generated using pymatgen
data_Na2MnFe(PO4)2
_symmetry_space_group_name_H-M   'P 1'
_cell_length_a   21.08153550
_cell_length_b   18.93285475
_cell_length_c   20.04065832
_cell_angle_alpha   90.00073711
_cell_angle_beta   90.00165902
_cell_angle_gamma   90.00021227
_symmetry_Int_Tables_number   1
_chemical_formula_structural   Na2MnFe(PO4)2
_chemical_formula_sum   'Na96 Mn48 Fe48 P96 O384'
_cell_volume   7998.90108911
_cell_formula_units_Z   48
loop_
 _symmetry_equiv_pos_site_id
 _symmetry_equiv_pos_as_xyz
  1  'x, y, z'
loop_
 _atom_site_type_symbol
 _atom_site_label
 _atom_site_symmetry_multiplicity
 _atom_site_fract_x
 _atom_site_fract_y
 _atom_site_fract_z
 _atom_site_occupancy
  Na  Na0  1  0.00066927  0.00064016  0.00058464  1
  Na  Na1  1  -0.00054214  0.00003313  0.25011435  1
  Na  Na2  1  -0.00010834  -0.00043427  0.49987723  1
  Na  Na3  1  0.00213381  0.00097281  0.74922866  1
  Na  Na4  1  -0.00154052  0.33255136  0.00111235  1
  Na  Na5  1  -0.00068081  0.33266003  0.24996757  1
  Na  Na6  1  0.00145584  0.33301465  0.49963272  1
  Na  Na7  1  0.00194196  0.33387122  0.74979412  1
  Na  Na8  1  -0.00082310  0.66691589  0.00058269  1
  Na  Na9  1  -0.00091779  0.66721523  0.25070195  1
  Na  Na10  1  -0.00029959  0.66705376  0.49860749  1
  Na  Na11  1  0.00096969  0.66730679  0.74966554  1
  Na  Na12  1  0.49678976  -0.00109919  0.00169400  1
  Na  Na13  1  0.49961862  0.00049091  0.24940819  1
  Na  Na14  1  0.50085742  0.00116247  0.49859659  1
  Na  Na15  1  0.49799031  -0.00063887  0.75079608  1
  Na  Na16  1  0.49969663  0.33262573  -0.00058274  1
  Na  Na17  1  0.50000103  0.33327667  0.24895196  1
  Na  Na18  1  0.49812215  0.33237998  0.50086755  1
  Na  Na19  1  0.49995405  0.33302737  0.75033289  1
  Na  Na20  1  0.50133073  0.66707763  0.00004993  1
  Na  Na21  1  0.49852115  0.66604897  0.25049077  1
  Na  Na22  1  0.50004111  0.66768567  0.49955928  1
  Na  Na23  1  0.50073718  0.66728325  0.74958734  1
  Na  Na24  1  0.25139675  0.00052184  0.12436044  1
  Na  Na25  1  0.25053490  0.00016848  0.37457830  1
  Na  Na26  1  0.24924795  -0.00071017  0.62616481  1
  Na  Na27  1  0.25166445  0.00070585  0.87517897  1
  Na  Na28  1  0.24999005  0.33279322  0.12511253  1
  Na  Na29  1  0.25058144  0.33276710  0.37415710  1
  Na  Na30  1  0.25015796  0.33296660  0.62420454  1
  Na  Na31  1  0.25107902  0.33387219  0.87644436  1
  Na  Na32  1  0.25139187  0.66692194  0.12431747  1
  Na  Na33  1  0.25085067  0.66735007  0.37424933  1
  Na  Na34  1  0.24883984  0.66602856  0.62426854  1
  Na  Na35  1  0.25082040  0.66704870  0.87608882  1
  Na  Na36  1  0.75016463  0.00024181  0.12618336  1
  Na  Na37  1  0.74935110  0.00000002  0.37540526  1
  Na  Na38  1  0.74935824  0.00009275  0.62399060  1
  Na  Na39  1  0.75094491  0.00108161  0.87479079  1
  Na  Na40  1  0.75205368  0.33357257  0.12545485  1
  Na  Na41  1  0.75121745  0.33290297  0.37508551  1
  Na  Na42  1  0.74932970  0.33225298  0.62381180  1
  Na  Na43  1  0.74948321  0.33244131  0.87524087  1
  Na  Na44  1  0.74844349  0.66717232  0.12555144  1
  Na  Na45  1  0.75052019  0.66772688  0.37566358  1
  Na  Na46  1  0.74918087  0.66714683  0.62589915  1
  Na  Na47  1  0.74845764  0.66699040  0.87398073  1
  Na  Na48  1  0.00024051  0.16712193  0.00077811  1
  Na  Na49  1  0.00021199  0.16660460  0.25024009  1
  Na  Na50  1  0.00062010  0.16707902  0.50032808  1
  Na  Na51  1  0.00385744  0.16554656  0.74885389  1
  Na  Na52  1  -0.00041167  0.49959300  0.00068137  1
  Na  Na53  1  -0.00036851  0.49987491  0.25021211  1
  Na  Na54  1  0.00086088  0.50005410  0.49850861  1
  Na  Na55  1  -0.00100367  0.50118581  0.75015418  1
  Na  Na56  1  -0.00138408  0.83325046  0.00071905  1
  Na  Na57  1  -0.00206932  0.83354580  0.25055898  1
  Na  Na58  1  0.00000016  0.83284485  0.49920336  1
  Na  Na59  1  0.00098279  0.83266106  0.74949135  1
  Na  Na60  1  0.49942563  0.16742821  0.00056701  1
  Na  Na61  1  0.49971640  0.16714129  0.24866080  1
  Na  Na62  1  0.50128947  0.16647580  0.49951628  1
  Na  Na63  1  0.50219510  0.16573799  0.75101415  1
  Na  Na64  1  0.49798307  0.50072120  -0.00053304  1
  Na  Na65  1  0.49754596  0.50047120  0.24963331  1
  Na  Na66  1  0.49706889  0.50031858  0.50036683  1
  Na  Na67  1  0.49755200  0.50021666  0.75049882  1
  Na  Na68  1  0.49968841  0.83389362  0.00101552  1
  Na  Na69  1  0.50144359  0.83240667  0.25067301  1
  Na  Na70  1  0.49943123  0.83336403  0.49901506  1
  Na  Na71  1  0.49983097  0.83305951  0.74948391  1
  Na  Na72  1  0.25134562  0.16587854  0.12503507  1
  Na  Na73  1  0.24909526  0.16675544  0.37506639  1
  Na  Na74  1  0.24688626  0.16759206  0.62446459  1
  Na  Na75  1  0.24896368  0.16656865  0.87564766  1
  Na  Na76  1  0.25128385  0.49997079  0.12485833  1
  Na  Na77  1  0.25129209  0.50016745  0.37338430  1
  Na  Na78  1  0.25178505  0.49997289  0.62464330  1
  Na  Na79  1  0.25350894  0.49883578  0.87679970  1
  Na  Na80  1  0.25086905  0.83345673  0.12394170  1
  Na  Na81  1  0.25152106  0.83303213  0.37456936  1
  Na  Na82  1  0.25027273  0.83318357  0.62532623  1
  Na  Na83  1  0.25039012  0.83352454  0.87532064  1
  Na  Na84  1  0.75019478  0.16702744  0.12640032  1
  Na  Na85  1  0.75076458  0.16646362  0.37513060  1
  Na  Na86  1  0.74832897  0.16702135  0.62378677  1
  Na  Na87  1  0.74897649  0.16700956  0.87484066  1
  Na  Na88  1  0.75057631  0.49959448  0.12542365  1
  Na  Na89  1  0.75131125  0.49959879  0.37529921  1
  Na  Na90  1  0.75130017  0.49975454  0.62536085  1
  Na  Na91  1  0.75043369  0.49981263  0.87402728  1
  Na  Na92  1  0.74968413  0.83253996  0.12529429  1
  Na  Na93  1  0.74953920  0.83265521  0.37570785  1
  Na  Na94  1  0.74922359  0.83298615  0.62456010  1
  Na  Na95  1  0.74915605  0.83288138  0.87521717  1
  Mn  Mn96  1  0.89240026  0.24962108  0.87657848  1
  Mn  Mn97  1  0.89176834  0.91686545  0.12739618  1
  Mn  Mn98  1  0.64206055  0.25035325  0.49712810  1
  Mn  Mn99  1  0.10833325  0.41657880  0.87311932  1
  Mn  Mn100  1  0.60687844  0.41678062  0.62264373  1
  Mn  Mn101  1  0.10759531  0.75027847  0.87319087  1
  Mn  Mn102  1  0.10742092  0.08282410  0.37290982  1
  Mn  Mn103  1  0.60766512  0.41710252  0.87308442  1
  Mn  Mn104  1  0.64207025  0.58277359  0.49802776  1
  Mn  Mn105  1  0.60787311  0.08247823  0.87388169  1
  Mn  Mn106  1  0.14306096  0.58342303  0.24687352  1
  Mn  Mn107  1  0.89139559  0.58346074  0.87788171  1
  Mn  Mn108  1  0.35768313  0.41616604  0.25215738  1
  Mn  Mn109  1  0.89199668  0.91722188  0.87703497  1
  Mn  Mn110  1  0.64170362  0.58279640  0.24815623  1
  Mn  Mn111  1  0.60720840  0.08313257  0.12257444  1
  Mn  Mn112  1  0.64188670  0.91662793  0.49781474  1
  Mn  Mn113  1  0.14232309  0.25014384  0.99850930  1
  Mn  Mn114  1  0.39128055  0.58409748  0.62739758  1
  Mn  Mn115  1  0.39269379  0.91705219  0.37727567  1
  Mn  Mn116  1  0.60799383  0.41722335  0.12254685  1
  Mn  Mn117  1  0.10925272  0.41771401  0.62234427  1
  Mn  Mn118  1  0.64202647  0.91716589  0.99781244  1
  Mn  Mn119  1  0.85819945  0.41585777  0.75186773  1
  Mn  Mn120  1  0.14234790  0.91679718  0.24750054  1
  Mn  Mn121  1  0.14290404  0.58318778  0.99831760  1
  Mn  Mn122  1  0.60703594  0.41654984  0.37280900  1
  Mn  Mn123  1  0.14268190  0.91666472  0.99812709  1
  Mn  Mn124  1  0.89139186  0.58309214  0.12703044  1
  Mn  Mn125  1  0.85752216  0.08303334  0.25282832  1
  Mn  Mn126  1  0.85746687  0.75037770  0.75171335  1
  Mn  Mn127  1  0.89293420  0.91625070  0.62727556  1
  Mn  Mn128  1  0.10764416  0.75046343  0.37247691  1
  Mn  Mn129  1  0.89189057  0.58346257  0.37767570  1
  Mn  Mn130  1  0.64077592  0.91791507  0.74752661  1
  Mn  Mn131  1  0.10823674  0.41646546  0.37233635  1
  Mn  Mn132  1  0.14262965  0.58266354  0.74818192  1
  Mn  Mn133  1  0.85858714  0.41702002  0.50297015  1
  Mn  Mn134  1  0.35802129  0.74926254  0.75232679  1
  Mn  Mn135  1  0.14258125  0.91659199  0.74783403  1
  Mn  Mn136  1  0.39221453  0.24945706  0.87737048  1
  Mn  Mn137  1  0.39165707  0.24866361  0.62752621  1
  Mn  Mn138  1  0.85817296  0.08355634  0.75147740  1
  Mn  Mn139  1  0.89353375  0.25040931  0.62738058  1
  Mn  Mn140  1  0.35756769  0.08417103  0.75200716  1
  Mn  Mn141  1  0.35898449  0.75011357  0.00286499  1
  Mn  Mn142  1  0.35780692  0.08308256  0.50245438  1
  Mn  Mn143  1  0.64155143  0.58242548  0.74729134  1
  Fe  Fe144  1  0.85635555  0.74990952  0.25166942  1
  Fe  Fe145  1  0.35798466  0.75070815  0.25141175  1
  Fe  Fe146  1  0.89261067  0.24974589  0.12689278  1
  Fe  Fe147  1  0.39293647  0.91622933  0.12774713  1
  Fe  Fe148  1  0.14309992  0.58365083  0.49809872  1
  Fe  Fe149  1  0.10702643  0.74992622  0.12369327  1
  Fe  Fe150  1  0.39287268  0.25005094  0.12719183  1
  Fe  Fe151  1  0.35801285  0.41573089  0.00265604  1
  Fe  Fe152  1  0.85695731  0.08283085  0.50192260  1
  Fe  Fe153  1  0.60743824  0.08374127  0.37269388  1
  Fe  Fe154  1  0.39269048  0.25007036  0.37610328  1
  Fe  Fe155  1  0.60658340  0.75065490  0.62301276  1
  Fe  Fe156  1  0.85727039  0.41659473  0.00156289  1
  Fe  Fe157  1  0.64229991  0.58249469  0.99845919  1
  Fe  Fe158  1  0.10653304  0.41689958  0.12339766  1
  Fe  Fe159  1  0.14283242  0.24964035  0.24802776  1
  Fe  Fe160  1  0.89366993  0.58367942  0.62597121  1
  Fe  Fe161  1  0.39336302  0.58380165  0.12648693  1
  Fe  Fe162  1  0.85616083  0.74983609  0.00191895  1
  Fe  Fe163  1  0.85830327  0.08371314  0.00164847  1
  Fe  Fe164  1  0.35751678  0.41610818  0.75184423  1
  Fe  Fe165  1  0.10805264  0.08233534  0.62222428  1
  Fe  Fe166  1  0.85680635  0.75021126  0.50243940  1
  Fe  Fe167  1  0.39306708  0.58407247  0.87700640  1
  Fe  Fe168  1  0.35733119  0.08416565  0.00202425  1
  Fe  Fe169  1  0.64216991  0.24993589  0.74829585  1
  Fe  Fe170  1  0.85761139  0.41682258  0.25172347  1
  Fe  Fe171  1  0.39242668  0.91617284  0.87671982  1
  Fe  Fe172  1  0.39251300  0.91703743  0.62594544  1
  Fe  Fe173  1  0.10791180  0.08320772  0.87393120  1
  Fe  Fe174  1  0.64349174  0.25033253  0.99938511  1
  Fe  Fe175  1  0.64264508  0.91698927  0.24886846  1
  Fe  Fe176  1  0.39226035  0.58304982  0.37705177  1
  Fe  Fe177  1  0.60693293  0.75028652  0.87387910  1
  Fe  Fe178  1  0.60703521  0.74985091  0.12383222  1
  Fe  Fe179  1  0.89314364  0.24922362  0.37685533  1
  Fe  Fe180  1  0.10755979  0.08329810  0.12332229  1
  Fe  Fe181  1  0.14330411  0.25017808  0.49748241  1
  Fe  Fe182  1  0.14302131  0.91613679  0.49823924  1
  Fe  Fe183  1  0.10781857  0.74999788  0.62232947  1
  Fe  Fe184  1  0.89165253  0.91733665  0.37727566  1
  Fe  Fe185  1  0.35711235  0.75016361  0.50161246  1
  Fe  Fe186  1  0.64308040  0.25023817  0.24836727  1
  Fe  Fe187  1  0.60722674  0.08265892  0.62337448  1
  Fe  Fe188  1  0.35675839  0.41662202  0.50120061  1
  Fe  Fe189  1  0.14301063  0.25086731  0.74881161  1
  Fe  Fe190  1  0.60676976  0.74996626  0.37322571  1
  Fe  Fe191  1  0.35710953  0.08338816  0.25154806  1
  P  P192  1  0.05367207  0.25005974  0.11181242  1
  P  P193  1  0.05445534  0.24962300  0.36020996  1
  P  P194  1  0.05653584  0.24981028  0.61024863  1
  P  P195  1  0.05432322  0.24930586  0.85975916  1
  P  P196  1  0.05323478  0.58354048  0.11053047  1
  P  P197  1  0.05488827  0.58367978  0.36045075  1
  P  P198  1  0.05355650  0.58422828  0.60873620  1
  P  P199  1  0.05307453  0.58333621  0.86029271  1
  P  P200  1  0.05351527  0.91633701  0.11054342  1
  P  P201  1  0.05278529  0.91662963  0.36088717  1
  P  P202  1  0.05466515  0.91603764  0.60904154  1
  P  P203  1  0.05341382  0.91745476  0.86012616  1
  P  P204  1  0.55406272  0.25023213  0.11048744  1
  P  P205  1  0.55265108  0.24974176  0.35894369  1
  P  P206  1  0.55418911  0.24891921  0.61111087  1
  P  P207  1  0.55543969  0.24992557  0.86113350  1
  P  P208  1  0.55289242  0.58388666  0.10975626  1
  P  P209  1  0.55147799  0.58350885  0.36040567  1
  P  P210  1  0.55242218  0.58389837  0.60970910  1
  P  P211  1  0.55342565  0.58375291  0.86126918  1
  P  P212  1  0.55341066  0.91601585  0.11193633  1
  P  P213  1  0.55417478  0.91692432  0.35940391  1
  P  P214  1  0.55175248  0.91713910  0.60951974  1
  P  P215  1  0.55175351  0.91617309  0.86066135  1
  P  P216  1  0.44437408  0.08377076  0.13934924  1
  P  P217  1  0.44661933  0.08459833  0.38825018  1
  P  P218  1  0.44778739  0.08253969  0.63997933  1
  P  P219  1  0.44599225  0.08277949  0.89108884  1
  P  P220  1  0.44561364  0.41645757  0.13855045  1
  P  P221  1  0.44544854  0.41595390  0.39033375  1
  P  P222  1  0.44406100  0.41622137  0.63975339  1
  P  P223  1  0.44466869  0.41691135  0.88953886  1
  P  P224  1  0.44755578  0.74985495  0.14073954  1
  P  P225  1  0.44560100  0.74959184  0.38922606  1
  P  P226  1  0.44607766  0.75123122  0.63837050  1
  P  P227  1  0.44774321  0.74999376  0.89007886  1
  P  P228  1  0.94657156  0.08409152  0.13920854  1
  P  P229  1  0.94564106  0.08337441  0.39060285  1
  P  P230  1  0.94762965  0.08325688  0.63849122  1
  P  P231  1  0.94793714  0.08375434  0.89042228  1
  P  P232  1  0.94539920  0.41598417  0.13949843  1
  P  P233  1  0.94560928  0.41552080  0.38870972  1
  P  P234  1  0.94791856  0.41780184  0.63978241  1
  P  P235  1  0.94636169  0.41623039  0.89101172  1
  P  P236  1  0.94525143  0.74976227  0.13981613  1
  P  P237  1  0.94393497  0.75112567  0.38931453  1
  P  P238  1  0.94715832  0.74917101  0.63836957  1
  P  P239  1  0.94557073  0.75029125  0.89090227  1
  P  P240  1  0.19702700  0.08384610  0.23450472  1
  P  P241  1  0.19562913  0.08244435  0.48590236  1
  P  P242  1  0.19485849  0.08420631  0.73580202  1
  P  P243  1  0.19624459  0.08332138  0.98595194  1
  P  P244  1  0.19607365  0.41570608  0.23401401  1
  P  P245  1  0.19800893  0.41710385  0.48432607  1
  P  P246  1  0.19862228  0.41630811  0.73534575  1
  P  P247  1  0.19697169  0.41663179  0.98691098  1
  P  P248  1  0.19788483  0.75041269  0.23406010  1
  P  P249  1  0.19675529  0.75031932  0.48568552  1
  P  P250  1  0.19629632  0.74963798  0.73433211  1
  P  P251  1  0.19617786  0.75008061  0.98628275  1
  P  P252  1  0.69499397  0.08361639  0.23659165  1
  P  P253  1  0.69559002  0.08319015  0.48508326  1
  P  P254  1  0.69592157  0.08409775  0.73406617  1
  P  P255  1  0.69829261  0.08430843  0.98583241  1
  P  P256  1  0.69779486  0.41562624  0.23543253  1
  P  P257  1  0.69698943  0.41676831  0.48463014  1
  P  P258  1  0.69649601  0.41549448  0.73459983  1
  P  P259  1  0.69786453  0.41644877  0.98545223  1
  P  P260  1  0.69515888  0.75071020  0.23621068  1
  P  P261  1  0.69528409  0.74989531  0.48572858  1
  P  P262  1  0.69378582  0.75054332  0.73529701  1
  P  P263  1  0.69515377  0.74916931  0.98596603  1
  P  P264  1  0.30435192  0.24966169  0.01586237  1
  P  P265  1  0.30391182  0.24890219  0.26421146  1
  P  P266  1  0.30352050  0.25023135  0.51331041  1
  P  P267  1  0.30193745  0.25027261  0.76530473  1
  P  P268  1  0.30617047  0.58282514  0.01483483  1
  P  P269  1  0.30588761  0.58447188  0.26383383  1
  P  P270  1  0.30360015  0.58360440  0.51308848  1
  P  P271  1  0.30403280  0.58268580  0.76619942  1
  P  P272  1  0.30597804  0.91749315  0.01452824  1
  P  P273  1  0.30489392  0.91682352  0.26358571  1
  P  P274  1  0.30294701  0.91609748  0.51540717  1
  P  P275  1  0.30527035  0.91664836  0.76466292  1
  P  P276  1  0.80349928  0.24975124  0.01556185  1
  P  P277  1  0.80455711  0.25047279  0.26462083  1
  P  P278  1  0.80510597  0.24869242  0.51378827  1
  P  P279  1  0.80211268  0.24951329  0.76459143  1
  P  P280  1  0.80137320  0.58360674  0.01488370  1
  P  P281  1  0.80307268  0.58350575  0.26509306  1
  P  P282  1  0.80387981  0.58465429  0.51614038  1
  P  P283  1  0.80440469  0.58356678  0.76362964  1
  P  P284  1  0.80310327  0.91679704  0.01510335  1
  P  P285  1  0.80243832  0.91586758  0.26581026  1
  P  P286  1  0.80440567  0.91670759  0.51390611  1
  P  P287  1  0.80255619  0.91679384  0.76479960  1
  O  O288  1  0.05823829  0.24982737  0.18849492  1
  O  O289  1  0.05976844  0.25008598  0.43692842  1
  O  O290  1  0.06040738  0.25092373  0.68704211  1
  O  O291  1  0.05685238  0.25035902  0.93661000  1
  O  O292  1  0.05610452  0.58356018  0.18732724  1
  O  O293  1  0.05988592  0.58372116  0.43718846  1
  O  O294  1  0.05697112  0.58348173  0.68548739  1
  O  O295  1  0.05675509  0.58310321  0.93705256  1
  O  O296  1  0.05606735  0.91636906  0.18736578  1
  O  O297  1  0.05841972  0.91623663  0.43745817  1
  O  O298  1  0.05737137  0.91613762  0.68580797  1
  O  O299  1  0.05637826  0.91669471  0.93691535  1
  O  O300  1  0.55928140  0.25049106  0.18712587  1
  O  O301  1  0.55625144  0.25025328  0.43572417  1
  O  O302  1  0.55814635  0.24980065  0.68788672  1
  O  O303  1  0.56001845  0.25017745  0.93791109  1
  O  O304  1  0.55636647  0.58269325  0.18650199  1
  O  O305  1  0.55538573  0.58298441  0.43703770  1
  O  O306  1  0.55542654  0.58288610  0.68654040  1
  O  O307  1  0.55841855  0.58261225  0.93796041  1
  O  O308  1  0.55854160  0.91689910  0.18852024  1
  O  O309  1  0.55670929  0.91696842  0.43618905  1
  O  O310  1  0.55462180  0.91709131  0.68626516  1
  O  O311  1  0.55559552  0.91710508  0.93739648  1
  O  O312  1  0.44080455  0.08399632  0.06258741  1
  O  O313  1  0.44159066  0.08404198  0.31163928  1
  O  O314  1  0.44415831  0.08377524  0.56322465  1
  O  O315  1  0.44323127  0.08404838  0.81426459  1
  O  O316  1  0.44223606  0.41585405  0.06175517  1
  O  O317  1  0.44306173  0.41586516  0.31346248  1
  O  O318  1  0.43960241  0.41611831  0.56296079  1
  O  O319  1  0.44084329  0.41576072  0.81270443  1
  O  O320  1  0.44459625  0.75020350  0.06401204  1
  O  O321  1  0.44125596  0.75029453  0.31254694  1
  O  O322  1  0.44114081  0.75034353  0.56169855  1
  O  O323  1  0.44441313  0.74973690  0.81335803  1
  O  O324  1  0.94168282  0.08372869  0.06253190  1
  O  O325  1  0.94308129  0.08327269  0.31374255  1
  O  O326  1  0.94204028  0.08332897  0.56193262  1
  O  O327  1  0.94431810  0.08379404  0.81367474  1
  O  O328  1  0.94035205  0.41678470  0.06279163  1
  O  O329  1  0.94142948  0.41631872  0.31191486  1
  O  O330  1  0.94491386  0.41665369  0.56296031  1
  O  O331  1  0.94339576  0.41636343  0.81418907  1
  O  O332  1  0.93992153  0.74964415  0.06314911  1
  O  O333  1  0.93950924  0.75032746  0.31251434  1
  O  O334  1  0.94206407  0.74999112  0.56173637  1
  O  O335  1  0.94271254  0.75016608  0.81405804  1
  O  O336  1  0.19112764  0.08315537  0.06264849  1
  O  O337  1  0.19311244  0.08310144  0.31123680  1
  O  O338  1  0.19195915  0.08233339  0.56271153  1
  O  O339  1  0.19148520  0.08295919  0.81264404  1
  O  O340  1  0.19110186  0.41684503  0.06347742  1
  O  O341  1  0.19332924  0.41642126  0.31081912  1
  O  O342  1  0.19501453  0.41728832  0.56108471  1
  O  O343  1  0.19517646  0.41699008  0.81207378  1
  O  O344  1  0.19132674  0.75007773  0.06296998  1
  O  O345  1  0.19371361  0.75052693  0.31081172  1
  O  O346  1  0.19222881  0.75005945  0.56235671  1
  O  O347  1  0.19325340  0.74999045  0.81117210  1
  O  O348  1  0.69411563  0.08339612  0.06252650  1
  O  O349  1  0.69124047  0.08376925  0.31338434  1
  O  O350  1  0.69065378  0.08300833  0.56175402  1
  O  O351  1  0.69296609  0.08279142  0.81087599  1
  O  O352  1  0.69442971  0.41674208  0.06218184  1
  O  O353  1  0.69373101  0.41617081  0.31206739  1
  O  O354  1  0.69297204  0.41673221  0.56134292  1
  O  O355  1  0.69345524  0.41654204  0.81140584  1
  O  O356  1  0.69044359  0.74991353  0.06274400  1
  O  O357  1  0.69043602  0.74967663  0.31293942  1
  O  O358  1  0.69002215  0.75023800  0.56244277  1
  O  O359  1  0.68942636  0.75061252  0.81213449  1
  O  O360  1  0.30870200  0.24973291  0.18756577  1
  O  O361  1  0.30835565  0.24920257  0.43666933  1
  O  O362  1  0.30527457  0.24915801  0.68855402  1
  O  O363  1  0.30686993  0.24964207  0.93906011  1
  O  O364  1  0.30996834  0.58389319  0.18706151  1
  O  O365  1  0.30805437  0.58394798  0.43635997  1
  O  O366  1  0.30637220  0.58410159  0.68928856  1
  O  O367  1  0.31012433  0.58411756  0.93805976  1
  O  O368  1  0.30883649  0.91644197  0.18680509  1
  O  O369  1  0.30692083  0.91693973  0.43862885  1
  O  O370  1  0.30937048  0.91663457  0.68788655  1
  O  O371  1  0.30975172  0.91619649  0.93767512  1
  O  O372  1  0.80922670  0.24962667  0.18788620  1
  O  O373  1  0.80931560  0.24929390  0.43703175  1
  O  O374  1  0.80654406  0.24949495  0.68790339  1
  O  O375  1  0.80663047  0.24929997  0.93884938  1
  O  O376  1  0.80571532  0.58370983  0.18828843  1
  O  O377  1  0.80658471  0.58383885  0.43930921  1
  O  O378  1  0.80935284  0.58388838  0.68696381  1
  O  O379  1  0.80455294  0.58391308  0.93815922  1
  O  O380  1  0.80615032  0.91650232  0.18906306  1
  O  O381  1  0.80781568  0.91683227  0.43712959  1
  O  O382  1  0.80626349  0.91649577  0.68799200  1
  O  O383  1  0.80578115  0.91688082  0.93832815  1
  O  O384  1  0.23462979  0.24960559  0.04102229  1
  O  O385  1  0.23344904  0.24968914  0.28770815  1
  O  O386  1  0.23313702  0.25000437  0.53696227  1
  O  O387  1  0.23218814  0.25030087  0.79065030  1
  O  O388  1  0.23611982  0.58312880  0.03900056  1
  O  O389  1  0.23574152  0.58348534  0.28776427  1
  O  O390  1  0.23339677  0.58343824  0.53739866  1
  O  O391  1  0.23459212  0.58304656  0.79203111  1
  O  O392  1  0.23590904  0.91695363  0.03864622  1
  O  O393  1  0.23500556  0.91697524  0.28829825  1
  O  O394  1  0.23289369  0.91630249  0.53976979  1
  O  O395  1  0.23524534  0.91691004  0.78880572  1
  O  O396  1  0.73343007  0.25012445  0.04057738  1
  O  O397  1  0.73413993  0.24973066  0.28827396  1
  O  O398  1  0.73496078  0.24941017  0.53757164  1
  O  O399  1  0.73210272  0.24960757  0.78901335  1
  O  O400  1  0.73148868  0.58317618  0.04021594  1
  O  O401  1  0.73349203  0.58336862  0.29072146  1
  O  O402  1  0.73422516  0.58371946  0.54135361  1
  O  O403  1  0.73421972  0.58338665  0.78734919  1
  O  O404  1  0.73352426  0.91672849  0.04083730  1
  O  O405  1  0.73232504  0.91653803  0.29020348  1
  O  O406  1  0.73450893  0.91642362  0.53860545  1
  O  O407  1  0.73284795  0.91707763  0.78974217  1
  O  O408  1  0.26723253  0.08331184  0.21044672  1
  O  O409  1  0.26551735  0.08291871  0.46117429  1
  O  O410  1  0.26480262  0.08353203  0.71101711  1
  O  O411  1  0.26670394  0.08377624  0.96270308  1
  O  O412  1  0.26598012  0.41625018  0.20939299  1
  O  O413  1  0.26785223  0.41683453  0.45898879  1
  O  O414  1  0.26843094  0.41643015  0.71010524  1
  O  O415  1  0.26756789  0.41615226  0.96421178  1
  O  O416  1  0.26813370  0.75031724  0.21011674  1
  O  O417  1  0.26706253  0.75037760  0.46159127  1
  O  O418  1  0.26612464  0.74947631  0.70953622  1
  O  O419  1  0.26638326  0.75032024  0.96264749  1
  O  O420  1  0.76504012  0.08354866  0.21228450  1
  O  O421  1  0.76600885  0.08302634  0.46169943  1
  O  O422  1  0.76556911  0.08363051  0.70869453  1
  O  O423  1  0.76831585  0.08417289  0.96118395  1
  O  O424  1  0.76790798  0.41631836  0.21102705  1
  O  O425  1  0.76691480  0.41654689  0.46041835  1
  O  O426  1  0.76611899  0.41559901  0.70925870  1
  O  O427  1  0.76782053  0.41620717  0.96041861  1
  O  O428  1  0.76562705  0.75006020  0.21262946  1
  O  O429  1  0.76581066  0.75026492  0.46276800  1
  O  O430  1  0.76395877  0.75043906  0.71155566  1
  O  O431  1  0.76554684  0.74994787  0.96226165  1
  O  O432  1  0.01693218  0.08339175  0.16301682  1
  O  O433  1  0.01534948  0.08326565  0.41572538  1
  O  O434  1  0.01818893  0.08290952  0.66142401  1
  O  O435  1  0.01796902  0.08381445  0.91511679  1
  O  O436  1  0.01586391  0.41655131  0.16297046  1
  O  O437  1  0.01565281  0.41613007  0.41289161  1
  O  O438  1  0.01756177  0.41781748  0.66504016  1
  O  O439  1  0.01605693  0.41598163  0.91616603  1
  O  O440  1  0.01570629  0.75019802  0.16328109  1
  O  O441  1  0.01425907  0.75020123  0.41272477  1
  O  O442  1  0.01751568  0.74998177  0.66202369  1
  O  O443  1  0.01531406  0.75010513  0.91593597  1
  O  O444  1  0.51448438  0.08369701  0.16346593  1
  O  O445  1  0.51703144  0.08383663  0.41184447  1
  O  O446  1  0.51757153  0.08246529  0.66510248  1
  O  O447  1  0.51561268  0.08315317  0.91663609  1
  O  O448  1  0.51542528  0.41692276  0.16354679  1
  O  O449  1  0.51497447  0.41618501  0.41610007  1
  O  O450  1  0.51412259  0.41650369  0.66373200  1
  O  O451  1  0.51471607  0.41652977  0.91384932  1
  O  O452  1  0.51757495  0.74945516  0.16565338  1
  O  O453  1  0.51610812  0.75053656  0.41274139  1
  O  O454  1  0.51634490  0.75060227  0.66225503  1
  O  O455  1  0.51762138  0.75030903  0.91528992  1
  O  O456  1  0.48350471  0.24988274  0.08750575  1
  O  O457  1  0.48253949  0.25029533  0.33447166  1
  O  O458  1  0.48421599  0.24919281  0.58665733  1
  O  O459  1  0.48521714  0.24961378  0.83738639  1
  O  O460  1  0.48279362  0.58385541  0.08533836  1
  O  O461  1  0.48134702  0.58311885  0.33599651  1
  O  O462  1  0.48270058  0.58414796  0.58467424  1
  O  O463  1  0.48310275  0.58353234  0.83743212  1
  O  O464  1  0.48291330  0.91639498  0.08866319  1
  O  O465  1  0.48441994  0.91674853  0.33432701  1
  O  O466  1  0.48207787  0.91730525  0.58368790  1
  O  O467  1  0.48178531  0.91619689  0.83593132  1
  O  O468  1  0.98337881  0.24999700  0.08775440  1
  O  O469  1  0.98394645  0.24915188  0.33718698  1
  O  O470  1  0.98643851  0.25021284  0.58612141  1
  O  O471  1  0.98482333  0.24962998  0.83395663  1
  O  O472  1  0.98353957  0.58326033  0.08522096  1
  O  O473  1  0.98463534  0.58384875  0.33713178  1
  O  O474  1  0.98362749  0.58362714  0.58376187  1
  O  O475  1  0.98334754  0.58395020  0.83546742  1
  O  O476  1  0.98392302  0.91670410  0.08508667  1
  O  O477  1  0.98232555  0.91711684  0.33765791  1
  O  O478  1  0.98490086  0.91604744  0.58398342  1
  O  O479  1  0.98396801  0.91708741  0.83423927  1
  O  O480  1  0.08685439  0.31526254  0.07850111  1
  O  O481  1  0.08765303  0.31446915  0.32640063  1
  O  O482  1  0.09036481  0.31466482  0.57673611  1
  O  O483  1  0.08903218  0.31416973  0.82719852  1
  O  O484  1  0.08719857  0.64884798  0.07834278  1
  O  O485  1  0.08824101  0.64870411  0.32714996  1
  O  O486  1  0.08748663  0.64938930  0.57614810  1
  O  O487  1  0.08743220  0.64817393  0.82779672  1
  O  O488  1  0.08794559  0.98144769  0.07847287  1
  O  O489  1  0.08620123  0.98163085  0.32751538  1
  O  O490  1  0.08895397  0.98104338  0.57652874  1
  O  O491  1  0.08759391  0.98278830  0.82831618  1
  O  O492  1  0.58722679  0.31520360  0.07677232  1
  O  O493  1  0.58689176  0.31463680  0.32608237  1
  O  O494  1  0.58781671  0.31381790  0.57761020  1
  O  O495  1  0.58869562  0.31492982  0.82761971  1
  O  O496  1  0.58687042  0.64911158  0.07771266  1
  O  O497  1  0.58506115  0.64874115  0.32782795  1
  O  O498  1  0.58664315  0.64902875  0.57776843  1
  O  O499  1  0.58660127  0.64904267  0.82851677  1
  O  O500  1  0.58647513  0.98087603  0.07783002  1
  O  O501  1  0.58832637  0.98194884  0.32692711  1
  O  O502  1  0.58617618  0.98216301  0.57730226  1
  O  O503  1  0.58538981  0.98134420  0.82775922  1
  O  O504  1  0.41069238  0.01869163  0.17234781  1
  O  O505  1  0.41314937  0.01966244  0.42187865  1
  O  O506  1  0.41347921  0.01738105  0.67178090  1
  O  O507  1  0.41173505  0.01753800  0.92276623  1
  O  O508  1  0.41199916  0.35138960  0.17171104  1
  O  O509  1  0.41121460  0.35071384  0.42243700  1
  O  O510  1  0.41060078  0.35115920  0.67307118  1
  O  O511  1  0.41076625  0.35206819  0.92292242  1
  O  O512  1  0.41333899  0.68479849  0.17295205  1
  O  O513  1  0.41255595  0.68438956  0.42247553  1
  O  O514  1  0.41260149  0.68642294  0.67214805  1
  O  O515  1  0.41402405  0.68492424  0.92289605  1
  O  O516  1  0.91285677  0.01919006  0.17256781  1
  O  O517  1  0.91112901  0.01840215  0.42282794  1
  O  O518  1  0.91446824  0.01827445  0.67211626  1
  O  O519  1  0.91379875  0.01885101  0.92326754  1
  O  O520  1  0.91231474  0.35073089  0.17262904  1
  O  O521  1  0.91256735  0.35011285  0.42148716  1
  O  O522  1  0.91396021  0.35268322  0.67255107  1
  O  O523  1  0.91193979  0.35121502  0.92324916  1
  O  O524  1  0.91204427  0.68464672  0.17327796  1
  O  O525  1  0.91011393  0.68640136  0.42286339  1
  O  O526  1  0.91430444  0.68377131  0.67151349  1
  O  O527  1  0.91110505  0.68547140  0.92361228  1
  O  O528  1  0.16299012  0.01906496  0.20132875  1
  O  O529  1  0.16232041  0.01710147  0.45292117  1
  O  O530  1  0.16069176  0.01950273  0.70241403  1
  O  O531  1  0.16325296  0.01831885  0.95220187  1
  O  O532  1  0.16217173  0.35041078  0.20196203  1
  O  O533  1  0.16392447  0.35191209  0.45201269  1
  O  O534  1  0.16456701  0.35130118  0.70294651  1
  O  O535  1  0.16386217  0.35159902  0.95337032  1
  O  O536  1  0.16396785  0.68545323  0.20119133  1
  O  O537  1  0.16341496  0.68532181  0.45225083  1
  O  O538  1  0.16211189  0.68459739  0.70191383  1
  O  O539  1  0.16302389  0.68494772  0.95302270  1
  O  O540  1  0.66156098  0.01837334  0.20368616  1
  O  O541  1  0.66200571  0.01825773  0.45179202  1
  O  O542  1  0.66133164  0.01932243  0.70113160  1
  O  O543  1  0.66439338  0.01930300  0.95272224  1
  O  O544  1  0.66441884  0.35039468  0.20257605  1
  O  O545  1  0.66306147  0.35179972  0.45182546  1
  O  O546  1  0.66228046  0.35029977  0.70266694  1
  O  O547  1  0.66380314  0.35127548  0.95327883  1
  O  O548  1  0.66143316  0.68595777  0.20256382  1
  O  O549  1  0.66220416  0.68480475  0.45216213  1
  O  O550  1  0.66006854  0.68558377  0.70217879  1
  O  O551  1  0.66207035  0.68387614  0.95288206  1
  O  O552  1  0.33873249  0.31458699  0.04834903  1
  O  O553  1  0.33768289  0.31374347  0.29770030  1
  O  O554  1  0.33657374  0.31551909  0.54624466  1
  O  O555  1  0.33620932  0.31526282  0.79744875  1
  O  O556  1  0.34001147  0.64770933  0.04825108  1
  O  O557  1  0.33889127  0.64977375  0.29690501  1
  O  O558  1  0.33679319  0.64868884  0.54663722  1
  O  O559  1  0.33880400  0.64752311  0.79873125  1
  O  O560  1  0.33933015  0.98286196  0.04701030  1
  O  O561  1  0.33851315  0.98208661  0.29638566  1
  O  O562  1  0.33696868  0.98099646  0.54850201  1
  O  O563  1  0.33913882  0.98155613  0.79766914  1
  O  O564  1  0.83764477  0.31490701  0.04794317  1
  O  O565  1  0.83783046  0.31569188  0.29751341  1
  O  O566  1  0.83893556  0.31352486  0.54712762  1
  O  O567  1  0.83596984  0.31445293  0.79750607  1
  O  O568  1  0.83513187  0.64869215  0.04773219  1
  O  O569  1  0.83715188  0.64863745  0.29736944  1
  O  O570  1  0.83765539  0.65015605  0.54816839  1
  O  O571  1  0.83741026  0.64870258  0.79716743  1
  O  O572  1  0.83735508  0.98197222  0.04735903  1
  O  O573  1  0.83671849  0.98079526  0.29858956  1
  O  O574  1  0.83797433  0.98195627  0.54672311  1
  O  O575  1  0.83683952  0.98193189  0.79694295  1
  O  O576  1  0.41081997  0.14885408  0.17252166  1
  O  O577  1  0.41373571  0.14978015  0.42171569  1
  O  O578  1  0.41387716  0.14742461  0.67325816  1
  O  O579  1  0.41142482  0.14763315  0.92372567  1
  O  O580  1  0.41162937  0.48160410  0.17089688  1
  O  O581  1  0.41079359  0.48099133  0.42234238  1
  O  O582  1  0.41026711  0.48127439  0.67264369  1
  O  O583  1  0.41110690  0.48218250  0.92198054  1
  O  O584  1  0.41358831  0.81484028  0.17362000  1
  O  O585  1  0.41182865  0.81440595  0.42273381  1
  O  O586  1  0.41315653  0.81659016  0.67132161  1
  O  O587  1  0.41360262  0.81494664  0.92261486  1
  O  O588  1  0.91348288  0.14919880  0.17253639  1
  O  O589  1  0.91159570  0.14856733  0.42283093  1
  O  O590  1  0.91501724  0.14840852  0.67240780  1
  O  O591  1  0.91392793  0.14873135  0.92326473  1
  O  O592  1  0.91175295  0.48084063  0.17310948  1
  O  O593  1  0.91189368  0.48050484  0.42184830  1
  O  O594  1  0.91362568  0.48304468  0.67142457  1
  O  O595  1  0.91200998  0.48119563  0.92357533  1
  O  O596  1  0.91151437  0.81462275  0.17322539  1
  O  O597  1  0.91095745  0.81647332  0.42236113  1
  O  O598  1  0.91347020  0.81391163  0.67213101  1
  O  O599  1  0.91141849  0.81540006  0.92324445  1
  O  O600  1  0.08712112  0.18502279  0.07853611  1
  O  O601  1  0.08787890  0.18457263  0.32694457  1
  O  O602  1  0.08998200  0.18446717  0.57757587  1
  O  O603  1  0.08870553  0.18404941  0.82816017  1
  O  O604  1  0.08743806  0.51836750  0.07827285  1
  O  O605  1  0.08807001  0.51853662  0.32723858  1
  O  O606  1  0.08808032  0.51942214  0.57588193  1
  O  O607  1  0.08667773  0.51798869  0.82760727  1
  O  O608  1  0.08751335  0.85104460  0.07835361  1
  O  O609  1  0.08581096  0.85165288  0.32708161  1
  O  O610  1  0.08883860  0.85097404  0.57646172  1
  O  O611  1  0.08790431  0.85257908  0.82759247  1
  O  O612  1  0.58749465  0.18528642  0.07700347  1
  O  O613  1  0.58652537  0.18465931  0.32634856  1
  O  O614  1  0.58766691  0.18356379  0.57848444  1
  O  O615  1  0.58909133  0.18490179  0.82814637  1
  O  O616  1  0.58673915  0.51904768  0.07632378  1
  O  O617  1  0.58518013  0.51854359  0.32720146  1
  O  O618  1  0.58616286  0.51873530  0.57697169  1
  O  O619  1  0.58661465  0.51876736  0.82751790  1
  O  O620  1  0.58631820  0.85072396  0.07883172  1
  O  O621  1  0.58847526  0.85174637  0.32734869  1
  O  O622  1  0.58589882  0.85204926  0.57709463  1
  O  O623  1  0.58564539  0.85120677  0.82817315  1
  O  O624  1  0.33855245  0.18459753  0.04818570  1
  O  O625  1  0.33686013  0.18367306  0.29760249  1
  O  O626  1  0.33663144  0.18533764  0.54740280  1
  O  O627  1  0.33591494  0.18527677  0.79816357  1
  O  O628  1  0.33981261  0.51764452  0.04743676  1
  O  O629  1  0.33985985  0.51953645  0.29698692  1
  O  O630  1  0.33708151  0.51843549  0.54593331  1
  O  O631  1  0.33850133  0.51742797  0.79756967  1
  O  O632  1  0.34006048  0.85281251  0.04810423  1
  O  O633  1  0.33849637  0.85171676  0.29654927  1
  O  O634  1  0.33691768  0.85098907  0.54782968  1
  O  O635  1  0.33874699  0.85149716  0.79782979  1
  O  O636  1  0.83749752  0.18482341  0.04864478  1
  O  O637  1  0.83829197  0.18562028  0.29811932  1
  O  O638  1  0.83808214  0.18326225  0.54681546  1
  O  O639  1  0.83578457  0.18443271  0.79751349  1
  O  O640  1  0.83575664  0.51851593  0.04707595  1
  O  O641  1  0.83752098  0.51838782  0.29706639  1
  O  O642  1  0.83897087  0.52005129  0.54850462  1
  O  O643  1  0.83781282  0.51842070  0.79677294  1
  O  O644  1  0.83712928  0.85152088  0.04736717  1
  O  O645  1  0.83613150  0.85074751  0.29831259  1
  O  O646  1  0.83817937  0.85156359  0.54673160  1
  O  O647  1  0.83645047  0.85175122  0.79742304  1
  O  O648  1  0.16339536  0.14908316  0.20185124  1
  O  O649  1  0.16170944  0.14752965  0.45322946  1
  O  O650  1  0.16141643  0.14965894  0.70353453  1
  O  O651  1  0.16259154  0.14822600  0.95276030  1
  O  O652  1  0.16172547  0.48052735  0.20129637  1
  O  O653  1  0.16408016  0.48218111  0.45179047  1
  O  O654  1  0.16484521  0.48142165  0.70237607  1
  O  O655  1  0.16441487  0.48164986  0.95279503  1
  O  O656  1  0.16399376  0.81537178  0.20123991  1
  O  O657  1  0.16349695  0.81561493  0.45245664  1
  O  O658  1  0.16222870  0.81462967  0.70166158  1
  O  O659  1  0.16286113  0.81511380  0.95293198  1
  O  O660  1  0.66153576  0.14878777  0.20364682  1
  O  O661  1  0.66219228  0.14816617  0.45154961  1
  O  O662  1  0.66173147  0.14936006  0.70218973  1
  O  O663  1  0.66439071  0.14941642  0.95354434  1
  O  O664  1  0.66373563  0.48057510  0.20253385  1
  O  O665  1  0.66333332  0.48193776  0.45187093  1
  O  O666  1  0.66232846  0.48054840  0.70197074  1
  O  O667  1  0.66392468  0.48149705  0.95267061  1
  O  O668  1  0.66229728  0.81609926  0.20306173  1
  O  O669  1  0.66180182  0.81472424  0.45210862  1
  O  O670  1  0.66026306  0.81557023  0.70198799  1
  O  O671  1  0.66138749  0.81403899  0.95247238  1
