# generated using pymatgen
data_Na2MnFe(PO4)2
_symmetry_space_group_name_H-M   'P 1'
_cell_length_a   21.08245157
_cell_length_b   18.93425988
_cell_length_c   20.04169164
_cell_angle_alpha   89.99925193
_cell_angle_beta   90.00066093
_cell_angle_gamma   89.99932520
_symmetry_Int_Tables_number   1
_chemical_formula_structural   Na2MnFe(PO4)2
_chemical_formula_sum   'Na96 Mn48 Fe48 P96 O384'
_cell_volume   8000.25483155
_cell_formula_units_Z   48
loop_
 _symmetry_equiv_pos_site_id
 _symmetry_equiv_pos_as_xyz
  1  'x, y, z'
loop_
 _atom_site_type_symbol
 _atom_site_label
 _atom_site_symmetry_multiplicity
 _atom_site_fract_x
 _atom_site_fract_y
 _atom_site_fract_z
 _atom_site_occupancy
  Na  Na0  1  -0.00272554  -0.00082322  0.00148658  1
  Na  Na1  1  -0.00069397  0.00007918  0.24965130  1
  Na  Na2  1  -0.00069146  0.00011375  0.49901799  1
  Na  Na3  1  -0.00026181  0.00044588  0.75014412  1
  Na  Na4  1  0.00149884  0.33386934  0.00085861  1
  Na  Na5  1  0.00032795  0.33358230  0.25005824  1
  Na  Na6  1  -0.00210293  0.33262605  0.49903524  1
  Na  Na7  1  0.00119999  0.33355421  0.74937080  1
  Na  Na8  1  -0.00270219  0.66653775  0.00002656  1
  Na  Na9  1  -0.00360194  0.66649047  0.24970017  1
  Na  Na10  1  -0.00107103  0.66712690  0.50057149  1
  Na  Na11  1  -0.00017016  0.66729779  0.74949238  1
  Na  Na12  1  0.50119836  -0.00045604  -0.00004205  1
  Na  Na13  1  0.50073391  -0.00027207  0.24950095  1
  Na  Na14  1  0.49867243  -0.00070685  0.50079283  1
  Na  Na15  1  0.50125642  0.00015417  0.75041129  1
  Na  Na16  1  0.50098124  0.33346135  0.00143858  1
  Na  Na17  1  0.50011688  0.33317521  0.24881211  1
  Na  Na18  1  0.49950815  0.33358441  0.49998384  1
  Na  Na19  1  0.49953796  0.33311687  0.75037169  1
  Na  Na20  1  0.49863959  0.66695975  0.00024412  1
  Na  Na21  1  0.49851768  0.66710409  0.24966243  1
  Na  Na22  1  0.49834436  0.66660891  0.49961428  1
  Na  Na23  1  0.49855696  0.66589123  0.74984299  1
  Na  Na24  1  0.25216681  -0.00024858  0.12460665  1
  Na  Na25  1  0.25159648  -0.00048479  0.37430594  1
  Na  Na26  1  0.25268053  0.00039313  0.62433270  1
  Na  Na27  1  0.25305542  0.00062236  0.87581927  1
  Na  Na28  1  0.25033515  0.33312361  0.12416031  1
  Na  Na29  1  0.25048486  0.33306531  0.37500728  1
  Na  Na30  1  0.25086628  0.33335059  0.62548159  1
  Na  Na31  1  0.25115736  0.33375618  0.87515982  1
  Na  Na32  1  0.25234644  0.66825297  0.12590706  1
  Na  Na33  1  0.25168105  0.66707981  0.37443111  1
  Na  Na34  1  0.25128903  0.66742598  0.62488372  1
  Na  Na35  1  0.24904934  0.66664173  0.87465690  1
  Na  Na36  1  0.74973040  0.00039915  0.12509143  1
  Na  Na37  1  0.75068566  0.00062670  0.37513684  1
  Na  Na38  1  0.74761053  -0.00079538  0.62555916  1
  Na  Na39  1  0.74740193  -0.00062851  0.87543791  1
  Na  Na40  1  0.74807063  0.33265461  0.12449573  1
  Na  Na41  1  0.75061237  0.33372645  0.37612814  1
  Na  Na42  1  0.75058615  0.33434586  0.62585934  1
  Na  Na43  1  0.74727930  0.33246061  0.87361197  1
  Na  Na44  1  0.75148150  0.66729289  0.12515859  1
  Na  Na45  1  0.75126822  0.66739700  0.37358891  1
  Na  Na46  1  0.75206251  0.66722357  0.62437214  1
  Na  Na47  1  0.75321299  0.66804979  0.87657326  1
  Na  Na48  1  -0.00177086  0.16701302  0.00148139  1
  Na  Na49  1  -0.00092217  0.16608191  0.24933358  1
  Na  Na50  1  -0.00159214  0.16633480  0.49902608  1
  Na  Na51  1  -0.00131803  0.16688253  0.75022452  1
  Na  Na52  1  -0.00158924  0.50096275  0.00040626  1
  Na  Na53  1  -0.00289034  0.50087528  0.25087751  1
  Na  Na54  1  -0.00191801  0.50074681  0.50001055  1
  Na  Na55  1  0.00114089  0.49964518  0.74897341  1
  Na  Na56  1  -0.00103680  0.83330256  0.00032477  1
  Na  Na57  1  -0.00018061  0.83291625  0.24941945  1
  Na  Na58  1  -0.00041929  0.83317787  0.49962901  1
  Na  Na59  1  0.00053433  0.83283844  0.74975635  1
  Na  Na60  1  0.50065748  0.16670055  0.00034765  1
  Na  Na61  1  0.50174587  0.16581222  0.24913849  1
  Na  Na62  1  0.49821553  0.16725060  0.49981200  1
  Na  Na63  1  0.50025395  0.16603868  0.75079000  1
  Na  Na64  1  0.49900298  0.50085801  0.00031890  1
  Na  Na65  1  0.49793882  0.50086575  0.24978255  1
  Na  Na66  1  0.49738322  0.50113484  0.49962390  1
  Na  Na67  1  0.50173054  0.49874278  0.74998578  1
  Na  Na68  1  0.49922000  0.83398261  0.00076455  1
  Na  Na69  1  0.50024304  0.83309430  0.24925825  1
  Na  Na70  1  0.49954041  0.83344701  0.50043869  1
  Na  Na71  1  0.49939544  0.83333133  0.75032409  1
  Na  Na72  1  0.24998678  0.16720204  0.12439703  1
  Na  Na73  1  0.25134836  0.16620947  0.37495261  1
  Na  Na74  1  0.25289888  0.16614194  0.62462477  1
  Na  Na75  1  0.25310594  0.16552366  0.87562903  1
  Na  Na76  1  0.25214677  0.49966209  0.12567246  1
  Na  Na77  1  0.25305729  0.49975062  0.37443972  1
  Na  Na78  1  0.25045672  0.50042958  0.62507175  1
  Na  Na79  1  0.24898804  0.50067755  0.87455572  1
  Na  Na80  1  0.25234958  0.83295205  0.12497241  1
  Na  Na81  1  0.25077054  0.83321641  0.37406502  1
  Na  Na82  1  0.25014869  0.83360914  0.62525502  1
  Na  Na83  1  0.25131424  0.83308688  0.87553783  1
  Na  Na84  1  0.74773721  0.16672359  0.12472941  1
  Na  Na85  1  0.75059703  0.16585114  0.37596063  1
  Na  Na86  1  0.75041144  0.16571430  0.62629995  1
  Na  Na87  1  0.74904814  0.16585856  0.87448545  1
  Na  Na88  1  0.75251130  0.49934717  0.12429417  1
  Na  Na89  1  0.75318989  0.49915492  0.37523509  1
  Na  Na90  1  0.74980876  0.50036049  0.62507499  1
  Na  Na91  1  0.74942911  0.50027575  0.87486159  1
  Na  Na92  1  0.74899152  0.83308634  0.12564456  1
  Na  Na93  1  0.74859673  0.83356792  0.37374139  1
  Na  Na94  1  0.75066710  0.83237801  0.62433345  1
  Na  Na95  1  0.74949293  0.83301686  0.87617505  1
  Mn  Mn96  1  0.10847813  0.08368019  0.62304601  1
  Mn  Mn97  1  0.89204964  0.58298489  0.62760927  1
  Mn  Mn98  1  0.10767188  0.75053142  0.62227608  1
  Mn  Mn99  1  0.60759719  0.41739707  0.37274633  1
  Mn  Mn100  1  0.14264061  0.24991443  0.49759437  1
  Mn  Mn101  1  0.60807649  0.74911444  0.62262773  1
  Mn  Mn102  1  0.89137684  0.25019938  0.37686445  1
  Mn  Mn103  1  0.64209530  0.91613645  0.49733267  1
  Mn  Mn104  1  0.14302702  0.91667429  0.49741350  1
  Mn  Mn105  1  0.14241245  0.58357652  0.24785668  1
  Mn  Mn106  1  0.14290468  0.24924564  0.74811406  1
  Mn  Mn107  1  0.35811161  0.41649605  0.25242982  1
  Mn  Mn108  1  0.14330201  0.58355001  0.49726167  1
  Mn  Mn109  1  0.39252500  0.25051402  0.62753139  1
  Mn  Mn110  1  0.89129957  0.91652260  0.87759848  1
  Mn  Mn111  1  0.10750048  0.41750913  0.12331328  1
  Mn  Mn112  1  0.35854567  0.08332840  0.25184257  1
  Mn  Mn113  1  0.89146901  0.91743190  0.62744924  1
  Mn  Mn114  1  0.85685459  0.08223849  0.75272698  1
  Mn  Mn115  1  0.14284887  0.91674350  0.99836900  1
  Mn  Mn116  1  0.64251772  0.58303278  0.24792753  1
  Mn  Mn117  1  0.35797225  0.41657674  0.75283478  1
  Mn  Mn118  1  0.35758253  0.75035457  0.75260129  1
  Mn  Mn119  1  0.10782415  0.41583491  0.62191351  1
  Mn  Mn120  1  0.89192369  0.91607995  0.37650987  1
  Mn  Mn121  1  0.39262921  0.91631033  0.62768656  1
  Mn  Mn122  1  0.89092652  0.25019745  0.12769693  1
  Mn  Mn123  1  0.14308425  0.24980934  0.99751265  1
  Mn  Mn124  1  0.64147405  0.24966658  0.74731014  1
  Mn  Mn125  1  0.60757657  0.08309873  0.37326170  1
  Mn  Mn126  1  0.85758130  0.41724317  0.75293627  1
  Mn  Mn127  1  0.39333051  0.24973499  0.12735693  1
  Mn  Mn128  1  0.60822752  0.41766522  0.12275305  1
  Mn  Mn129  1  0.39140650  0.58305310  0.87781159  1
  Mn  Mn130  1  0.64264868  0.58326518  0.99786643  1
  Mn  Mn131  1  0.10751884  0.41745357  0.37305916  1
  Mn  Mn132  1  0.60786529  0.74932415  0.87296869  1
  Mn  Mn133  1  0.89204604  0.25067739  0.87762702  1
  Mn  Mn134  1  0.64250963  0.25007672  0.49799967  1
  Mn  Mn135  1  0.10797249  0.08278141  0.37244655  1
  Mn  Mn136  1  0.10702728  0.74984102  0.12327904  1
  Mn  Mn137  1  0.10704529  0.08290830  0.12285411  1
  Mn  Mn138  1  0.64237468  0.58446011  0.74812648  1
  Mn  Mn139  1  0.10823911  0.08323169  0.87338304  1
  Mn  Mn140  1  0.14278210  0.91743963  0.74855196  1
  Mn  Mn141  1  0.85776436  0.41579790  0.00144865  1
  Mn  Mn142  1  0.14199734  0.58367623  0.99855060  1
  Mn  Mn143  1  0.64230571  0.58357778  0.49742697  1
  Fe  Fe144  1  0.39254204  0.58415282  0.12633809  1
  Fe  Fe145  1  0.89353182  0.58284618  0.87605804  1
  Fe  Fe146  1  0.85716780  0.41592997  0.25177223  1
  Fe  Fe147  1  0.39354754  0.24980788  0.87712908  1
  Fe  Fe148  1  0.10732596  0.74998197  0.37293580  1
  Fe  Fe149  1  0.35908241  0.08308690  0.00221754  1
  Fe  Fe150  1  0.39403379  0.91631524  0.12684215  1
  Fe  Fe151  1  0.85724501  0.08324093  0.50260508  1
  Fe  Fe152  1  0.60655934  0.08347041  0.87365019  1
  Fe  Fe153  1  0.85767364  0.75049858  0.75195127  1
  Fe  Fe154  1  0.35799045  0.75071493  0.25238974  1
  Fe  Fe155  1  0.85713793  0.75047683  0.50097549  1
  Fe  Fe156  1  0.39280535  0.58304623  0.62688547  1
  Fe  Fe157  1  0.85718878  0.41628597  0.50257768  1
  Fe  Fe158  1  0.39303208  0.91661748  0.37616816  1
  Fe  Fe159  1  0.35775515  0.74999143  0.50138463  1
  Fe  Fe160  1  0.14351857  0.91696257  0.24792892  1
  Fe  Fe161  1  0.14215022  0.58350177  0.74846541  1
  Fe  Fe162  1  0.14266717  0.24933147  0.24885475  1
  Fe  Fe163  1  0.85619752  0.75062776  0.25227174  1
  Fe  Fe164  1  0.60674859  0.74980517  0.12353835  1
  Fe  Fe165  1  0.35818964  0.08328942  0.50162441  1
  Fe  Fe166  1  0.35782066  0.41707613  0.00145525  1
  Fe  Fe167  1  0.60675036  0.41673472  0.87386012  1
  Fe  Fe168  1  0.64218975  0.24957644  0.99765555  1
  Fe  Fe169  1  0.85578067  0.08305087  0.00133677  1
  Fe  Fe170  1  0.39237101  0.24983120  0.37610210  1
  Fe  Fe171  1  0.85584085  0.08342157  0.25122247  1
  Fe  Fe172  1  0.89161824  0.58346077  0.12698842  1
  Fe  Fe173  1  0.39353139  0.91688703  0.87725525  1
  Fe  Fe174  1  0.60700253  0.41665064  0.62293408  1
  Fe  Fe175  1  0.89231536  0.24970865  0.62661630  1
  Fe  Fe176  1  0.64269509  0.91644997  0.99859657  1
  Fe  Fe177  1  0.35760337  0.74985060  0.00191426  1
  Fe  Fe178  1  0.64224297  0.24991582  0.24952691  1
  Fe  Fe179  1  0.89242518  0.58391351  0.37684679  1
  Fe  Fe180  1  0.60672959  0.74978941  0.37320861  1
  Fe  Fe181  1  0.10694625  0.74985227  0.87380876  1
  Fe  Fe182  1  0.85726362  0.75122384  0.00223968  1
  Fe  Fe183  1  0.10816609  0.41724273  0.87370519  1
  Fe  Fe184  1  0.89110847  0.91646002  0.12742474  1
  Fe  Fe185  1  0.64203829  0.91542542  0.74886122  1
  Fe  Fe186  1  0.35900004  0.08323638  0.75225692  1
  Fe  Fe187  1  0.60811067  0.08230077  0.12296834  1
  Fe  Fe188  1  0.35811074  0.41659190  0.50192455  1
  Fe  Fe189  1  0.64206903  0.91685138  0.24837057  1
  Fe  Fe190  1  0.39263941  0.58367236  0.37706822  1
  Fe  Fe191  1  0.60670729  0.08382866  0.62314196  1
  P  P192  1  0.05437696  0.24984981  0.11133040  1
  P  P193  1  0.05341080  0.24979564  0.35900838  1
  P  P194  1  0.05211369  0.24945463  0.60930508  1
  P  P195  1  0.05350063  0.25038882  0.86022376  1
  P  P196  1  0.05124136  0.58393007  0.11042147  1
  P  P197  1  0.05209418  0.58460013  0.36016017  1
  P  P198  1  0.05462195  0.58340873  0.61047350  1
  P  P199  1  0.05310650  0.58386722  0.85981103  1
  P  P200  1  0.05266997  0.91637141  0.11132619  1
  P  P201  1  0.05416888  0.91561668  0.35895121  1
  P  P202  1  0.05326271  0.91727542  0.60950186  1
  P  P203  1  0.05293500  0.91604652  0.86055084  1
  P  P204  1  0.55633226  0.24917609  0.11086677  1
  P  P205  1  0.55228542  0.25015012  0.35964422  1
  P  P206  1  0.55334461  0.24996915  0.61004313  1
  P  P207  1  0.55352308  0.25005659  0.86164538  1
  P  P208  1  0.55225965  0.58466309  0.11030407  1
  P  P209  1  0.55177434  0.58417715  0.35995696  1
  P  P210  1  0.55232762  0.58264518  0.60970954  1
  P  P211  1  0.55284544  0.58282044  0.86021863  1
  P  P212  1  0.55492796  0.91608352  0.11093013  1
  P  P213  1  0.55275362  0.91593707  0.35953635  1
  P  P214  1  0.55483915  0.91691586  0.61136261  1
  P  P215  1  0.55419114  0.91677075  0.86121588  1
  P  P216  1  0.44773811  0.08225157  0.13858990  1
  P  P217  1  0.44629973  0.08290626  0.39003256  1
  P  P218  1  0.44633169  0.08330153  0.63991907  1
  P  P219  1  0.44663249  0.08306661  0.88968300  1
  P  P220  1  0.44564430  0.41762552  0.13869439  1
  P  P221  1  0.44609542  0.41631860  0.39015985  1
  P  P222  1  0.44662310  0.41755085  0.63913173  1
  P  P223  1  0.44737283  0.41579417  0.89086978  1
  P  P224  1  0.44569634  0.75035328  0.13916018  1
  P  P225  1  0.44618921  0.75074805  0.38903767  1
  P  P226  1  0.44561015  0.74901091  0.63902784  1
  P  P227  1  0.44617192  0.75074803  0.89080458  1
  P  P228  1  0.94331474  0.08248972  0.13951670  1
  P  P229  1  0.94419050  0.08311062  0.38892965  1
  P  P230  1  0.94537785  0.08407722  0.63929119  1
  P  P231  1  0.94575997  0.08329889  0.89150564  1
  P  P232  1  0.94546994  0.41720058  0.14075073  1
  P  P233  1  0.94420284  0.41730597  0.38945329  1
  P  P234  1  0.94516370  0.41555774  0.63901288  1
  P  P235  1  0.94858888  0.41749648  0.88984630  1
  P  P236  1  0.94350691  0.75056318  0.13953183  1
  P  P237  1  0.94578488  0.74976993  0.38914225  1
  P  P238  1  0.94457987  0.75046624  0.63953589  1
  P  P239  1  0.94571629  0.74924383  0.88938705  1
  P  P240  1  0.19697899  0.08283450  0.23470124  1
  P  P241  1  0.19872395  0.08321109  0.48475686  1
  P  P242  1  0.19933162  0.08322557  0.73507819  1
  P  P243  1  0.19888025  0.08287583  0.98548848  1
  P  P244  1  0.19670992  0.41601795  0.23513539  1
  P  P245  1  0.19871597  0.41696456  0.48480657  1
  P  P246  1  0.19533503  0.41718659  0.73597100  1
  P  P247  1  0.19774868  0.41723874  0.98487051  1
  P  P248  1  0.19684438  0.75098096  0.23609155  1
  P  P249  1  0.19783593  0.74999795  0.48401135  1
  P  P250  1  0.19504275  0.74973910  0.73624733  1
  P  P251  1  0.19738096  0.75015619  0.98515802  1
  P  P252  1  0.69617900  0.08315487  0.23519178  1
  P  P253  1  0.69677846  0.08341435  0.48646227  1
  P  P254  1  0.69356413  0.08198133  0.73600162  1
  P  P255  1  0.69509120  0.08278331  0.98576089  1
  P  P256  1  0.69796358  0.41651863  0.23544109  1
  P  P257  1  0.69678335  0.41693915  0.48616247  1
  P  P258  1  0.69428851  0.41716073  0.73543252  1
  P  P259  1  0.69608302  0.41602868  0.98401318  1
  P  P260  1  0.69506942  0.75025095  0.23566420  1
  P  P261  1  0.69720745  0.74952541  0.48358788  1
  P  P262  1  0.69806599  0.75029497  0.73518869  1
  P  P263  1  0.69651079  0.75056392  0.98697071  1
  P  P264  1  0.30598215  0.25009691  0.01372996  1
  P  P265  1  0.30301830  0.24971106  0.26515105  1
  P  P266  1  0.30530722  0.25012687  0.51373467  1
  P  P267  1  0.30494094  0.24926124  0.76611492  1
  P  P268  1  0.30375001  0.58365480  0.01571208  1
  P  P269  1  0.30573767  0.58471045  0.26430907  1
  P  P270  1  0.30606058  0.58365124  0.51428348  1
  P  P271  1  0.30301383  0.58340356  0.76405321  1
  P  P272  1  0.30636862  0.91645781  0.01459173  1
  P  P273  1  0.30508490  0.91603339  0.26389821  1
  P  P274  1  0.30557993  0.91621569  0.51339313  1
  P  P275  1  0.30480753  0.91746933  0.76608759  1
  P  P276  1  0.80137818  0.24911749  0.01445590  1
  P  P277  1  0.80133071  0.24958016  0.26525307  1
  P  P278  1  0.80393945  0.24982121  0.51568795  1
  P  P279  1  0.80379975  0.24976361  0.76429968  1
  P  P280  1  0.80560696  0.58386275  0.01403384  1
  P  P281  1  0.80515080  0.58353255  0.26419713  1
  P  P282  1  0.80482144  0.58380806  0.51347082  1
  P  P283  1  0.80403365  0.58438792  0.76600948  1
  P  P284  1  0.80232454  0.91695930  0.01564159  1
  P  P285  1  0.80242848  0.91676369  0.26358789  1
  P  P286  1  0.80322996  0.91631376  0.51453903  1
  P  P287  1  0.80134019  0.91578542  0.76544242  1
  O  O288  1  0.05910745  0.24933288  0.18800263  1
  O  O289  1  0.05676662  0.24958810  0.43603058  1
  O  O290  1  0.05663158  0.24934614  0.68597407  1
  O  O291  1  0.05675883  0.24954177  0.93707075  1
  O  O292  1  0.05564788  0.58410181  0.18706873  1
  O  O293  1  0.05623870  0.58401437  0.43686005  1
  O  O294  1  0.05895435  0.58352811  0.68721254  1
  O  O295  1  0.05596798  0.58394735  0.93660085  1
  O  O296  1  0.05853221  0.91658923  0.18788328  1
  O  O297  1  0.05727530  0.91641428  0.43577092  1
  O  O298  1  0.05688299  0.91732601  0.68627059  1
  O  O299  1  0.05622920  0.91668492  0.93735580  1
  O  O300  1  0.56025384  0.24990414  0.18769801  1
  O  O301  1  0.55625258  0.25016070  0.43633039  1
  O  O302  1  0.55570715  0.24987715  0.68685112  1
  O  O303  1  0.55786609  0.24988485  0.93838908  1
  O  O304  1  0.55614741  0.58392723  0.18695685  1
  O  O305  1  0.55582922  0.58368317  0.43660753  1
  O  O306  1  0.55616122  0.58349873  0.68639613  1
  O  O307  1  0.55635055  0.58396225  0.93696316  1
  O  O308  1  0.55919304  0.91648313  0.18768462  1
  O  O309  1  0.55622491  0.91646345  0.43630263  1
  O  O310  1  0.55855597  0.91570378  0.68817489  1
  O  O311  1  0.55884334  0.91588583  0.93795175  1
  O  O312  1  0.44318972  0.08294676  0.06192826  1
  O  O313  1  0.44404280  0.08302641  0.31316326  1
  O  O314  1  0.44155280  0.08322842  0.56320864  1
  O  O315  1  0.44274600  0.08302299  0.81292363  1
  O  O316  1  0.44175245  0.41696846  0.06201080  1
  O  O317  1  0.44359671  0.41606427  0.31330187  1
  O  O318  1  0.44193288  0.41693012  0.56248950  1
  O  O319  1  0.44396445  0.41640963  0.81407500  1
  O  O320  1  0.44144827  0.75023651  0.06248469  1
  O  O321  1  0.44218999  0.75083909  0.31226619  1
  O  O322  1  0.44175168  0.75000458  0.56226900  1
  O  O323  1  0.44320725  0.74986361  0.81398618  1
  O  O324  1  0.93872821  0.08331983  0.06280611  1
  O  O325  1  0.93938085  0.08308693  0.31213433  1
  O  O326  1  0.94109557  0.08298244  0.56248675  1
  O  O327  1  0.94249444  0.08304896  0.81467557  1
  O  O328  1  0.94276148  0.41591886  0.06396426  1
  O  O329  1  0.94014554  0.41601159  0.31261391  1
  O  O330  1  0.94086596  0.41641313  0.56221182  1
  O  O331  1  0.94466675  0.41658507  0.81317639  1
  O  O332  1  0.93988639  0.75119499  0.06264409  1
  O  O333  1  0.94066874  0.75085977  0.31244668  1
  O  O334  1  0.94030185  0.75058686  0.56277205  1
  O  O335  1  0.94141239  0.75078454  0.81265060  1
  O  O336  1  0.19386883  0.08282753  0.06208970  1
  O  O337  1  0.19421577  0.08261929  0.31152779  1
  O  O338  1  0.19482447  0.08328914  0.56142441  1
  O  O339  1  0.19492992  0.08320787  0.81175891  1
  O  O340  1  0.19366234  0.41725561  0.06157655  1
  O  O341  1  0.19354896  0.41709737  0.31194511  1
  O  O342  1  0.19455446  0.41690876  0.56151406  1
  O  O343  1  0.19111500  0.41683907  0.81277509  1
  O  O344  1  0.19328701  0.75032366  0.06189322  1
  O  O345  1  0.19178309  0.74992680  0.31270617  1
  O  O346  1  0.19372972  0.75010075  0.56075135  1
  O  O347  1  0.19076150  0.75009694  0.81301680  1
  O  O348  1  0.69122720  0.08278179  0.06257601  1
  O  O349  1  0.69308947  0.08278903  0.31185066  1
  O  O350  1  0.69150059  0.08346426  0.56312738  1
  O  O351  1  0.68939219  0.08321694  0.81284398  1
  O  O352  1  0.69349148  0.41727383  0.06100025  1
  O  O353  1  0.69425971  0.41753439  0.31208716  1
  O  O354  1  0.69129981  0.41734352  0.56285219  1
  O  O355  1  0.68959155  0.41684643  0.81217560  1
  O  O356  1  0.69141441  0.74951832  0.06357590  1
  O  O357  1  0.69007201  0.74959068  0.31234072  1
  O  O358  1  0.69339050  0.74917324  0.56034163  1
  O  O359  1  0.69424615  0.74949456  0.81190430  1
  O  O360  1  0.30721500  0.24978502  0.18845532  1
  O  O361  1  0.30899916  0.25013161  0.43695761  1
  O  O362  1  0.30772185  0.25025933  0.68926523  1
  O  O363  1  0.31007977  0.24991593  0.93697162  1
  O  O364  1  0.30968518  0.58417851  0.18755243  1
  O  O365  1  0.30991813  0.58372573  0.43736850  1
  O  O366  1  0.30820290  0.58318716  0.68741613  1
  O  O367  1  0.30585617  0.58366658  0.93883523  1
  O  O368  1  0.30997848  0.91651731  0.18722949  1
  O  O369  1  0.30916241  0.91612642  0.43657144  1
  O  O370  1  0.30753194  0.91659460  0.68930691  1
  O  O371  1  0.31013736  0.91675285  0.93780225  1
  O  O372  1  0.80421639  0.24974169  0.18807606  1
  O  O373  1  0.80625452  0.24984074  0.43949944  1
  O  O374  1  0.80824835  0.25003710  0.68753908  1
  O  O375  1  0.80534955  0.24986422  0.93782245  1
  O  O376  1  0.80823757  0.58348677  0.18731039  1
  O  O377  1  0.80840254  0.58384859  0.43669698  1
  O  O378  1  0.80667584  0.58311483  0.68911227  1
  O  O379  1  0.80973257  0.58299053  0.93732493  1
  O  O380  1  0.80656304  0.91641116  0.18690975  1
  O  O381  1  0.80602170  0.91648936  0.43778093  1
  O  O382  1  0.80508569  0.91659252  0.68876057  1
  O  O383  1  0.80558731  0.91662486  0.93893522  1
  O  O384  1  0.23596453  0.24992826  0.03805690  1
  O  O385  1  0.23289510  0.24946291  0.28940480  1
  O  O386  1  0.23551561  0.24993756  0.53884742  1
  O  O387  1  0.23530307  0.24962942  0.79132381  1
  O  O388  1  0.23428503  0.58391775  0.04174332  1
  O  O389  1  0.23568576  0.58367150  0.28854936  1
  O  O390  1  0.23604806  0.58389930  0.53859711  1
  O  O391  1  0.23274863  0.58352917  0.78781708  1
  O  O392  1  0.23632259  0.91639748  0.03902769  1
  O  O393  1  0.23474792  0.91642040  0.28752410  1
  O  O394  1  0.23579633  0.91656513  0.53844823  1
  O  O395  1  0.23519217  0.91693358  0.79146877  1
  O  O396  1  0.73129565  0.24945375  0.03882478  1
  O  O397  1  0.73152452  0.24960628  0.29065939  1
  O  O398  1  0.73425687  0.24994911  0.54177666  1
  O  O399  1  0.73361943  0.24915826  0.78796426  1
  O  O400  1  0.73552318  0.58334379  0.03838885  1
  O  O401  1  0.73524134  0.58357073  0.28906884  1
  O  O402  1  0.73502344  0.58366474  0.53853568  1
  O  O403  1  0.73443624  0.58423581  0.79136228  1
  O  O404  1  0.73220111  0.91686741  0.04023686  1
  O  O405  1  0.73217627  0.91684230  0.28787289  1
  O  O406  1  0.73361689  0.91596247  0.53997498  1
  O  O407  1  0.73141337  0.91601607  0.79034236  1
  O  O408  1  0.26668409  0.08318207  0.20940117  1
  O  O409  1  0.26882452  0.08298532  0.46038252  1
  O  O410  1  0.26950472  0.08327932  0.71094823  1
  O  O411  1  0.26931508  0.08284111  0.96220327  1
  O  O412  1  0.26647420  0.41621982  0.21019361  1
  O  O413  1  0.26880750  0.41689630  0.46059960  1
  O  O414  1  0.26543721  0.41659460  0.71190688  1
  O  O415  1  0.26794882  0.41728925  0.96063986  1
  O  O416  1  0.26731819  0.75099323  0.21268251  1
  O  O417  1  0.26810809  0.74988491  0.46013379  1
  O  O418  1  0.26510381  0.75049195  0.71204674  1
  O  O419  1  0.26764800  0.74986509  0.96118550  1
  O  O420  1  0.76618281  0.08322529  0.21019353  1
  O  O421  1  0.76711538  0.08340291  0.46298195  1
  O  O422  1  0.76371484  0.08255655  0.71222678  1
  O  O423  1  0.76535125  0.08257079  0.96151491  1
  O  O424  1  0.76791410  0.41638965  0.21052161  1
  O  O425  1  0.76725713  0.41645821  0.46312799  1
  O  O426  1  0.76457382  0.41751666  0.71209174  1
  O  O427  1  0.76571728  0.41614568  0.95872732  1
  O  O428  1  0.76565204  0.74994955  0.21261860  1
  O  O429  1  0.76730631  0.75032957  0.45929301  1
  O  O430  1  0.76798817  0.75000911  0.71038803  1
  O  O431  1  0.76701074  0.75091293  0.96359006  1
  O  O432  1  0.01351966  0.08286070  0.16316640  1
  O  O433  1  0.01461162  0.08293543  0.41233843  1
  O  O434  1  0.01528186  0.08364383  0.66379698  1
  O  O435  1  0.01547766  0.08308909  0.91662637  1
  O  O436  1  0.01508163  0.41715144  0.16613386  1
  O  O437  1  0.01438170  0.41682587  0.41367676  1
  O  O438  1  0.01517829  0.41630424  0.66299258  1
  O  O439  1  0.01854047  0.41758770  0.91476367  1
  O  O440  1  0.01356735  0.75013368  0.16377826  1
  O  O441  1  0.01616512  0.75020531  0.41277989  1
  O  O442  1  0.01472338  0.75024127  0.66322841  1
  O  O443  1  0.01598840  0.74965023  0.91359590  1
  O  O444  1  0.51804472  0.08225120  0.16243164  1
  O  O445  1  0.51586455  0.08297263  0.41578060  1
  O  O446  1  0.51663275  0.08333441  0.66358124  1
  O  O447  1  0.51701385  0.08319957  0.91375061  1
  O  O448  1  0.51565390  0.41725309  0.16331484  1
  O  O449  1  0.51575313  0.41712502  0.41565175  1
  O  O450  1  0.51683819  0.41639550  0.66312507  1
  O  O451  1  0.51738695  0.41689489  0.91560638  1
  O  O452  1  0.51606409  0.75040380  0.16307485  1
  O  O453  1  0.51647479  0.75037209  0.41336937  1
  O  O454  1  0.51549515  0.74931085  0.66371432  1
  O  O455  1  0.51591859  0.75030757  0.91581783  1
  O  O456  1  0.48622926  0.24991198  0.08698583  1
  O  O457  1  0.48218944  0.24964230  0.33510589  1
  O  O458  1  0.48381641  0.25036261  0.58456183  1
  O  O459  1  0.48331968  0.24952828  0.83733765  1
  O  O460  1  0.48220779  0.58449010  0.08582662  1
  O  O461  1  0.48155099  0.58384003  0.33583876  1
  O  O462  1  0.48235432  0.58341713  0.58507014  1
  O  O463  1  0.48311099  0.58255730  0.83524597  1
  O  O464  1  0.48454858  0.91623163  0.08722824  1
  O  O465  1  0.48272602  0.91647284  0.33490902  1
  O  O466  1  0.48496803  0.91654849  0.58691148  1
  O  O467  1  0.48380459  0.91651990  0.83752251  1
  O  O468  1  0.98402524  0.25018951  0.08775244  1
  O  O469  1  0.98371520  0.24982597  0.33450601  1
  O  O470  1  0.98206566  0.24961265  0.58497874  1
  O  O471  1  0.98379883  0.25030760  0.83506980  1
  O  O472  1  0.98109490  0.58393874  0.08638805  1
  O  O473  1  0.98192543  0.58413124  0.33598761  1
  O  O474  1  0.98446122  0.58357530  0.58675772  1
  O  O475  1  0.98321260  0.58364233  0.83444673  1
  O  O476  1  0.98204949  0.91622339  0.08855301  1
  O  O477  1  0.98428765  0.91633315  0.33425766  1
  O  O478  1  0.98351049  0.91692273  0.58466393  1
  O  O479  1  0.98322305  0.91633413  0.83538640  1
  O  O480  1  0.08792642  0.31496758  0.07841544  1
  O  O481  1  0.08775265  0.31489273  0.32692432  1
  O  O482  1  0.08589076  0.31454985  0.57636114  1
  O  O483  1  0.08757942  0.31563356  0.82828664  1
  O  O484  1  0.08480532  0.64890418  0.07727156  1
  O  O485  1  0.08559913  0.64974288  0.32723847  1
  O  O486  1  0.08804609  0.64844273  0.57725605  1
  O  O487  1  0.08705950  0.64910349  0.82733449  1
  O  O488  1  0.08568465  0.98132877  0.07741921  1
  O  O489  1  0.08871118  0.98038416  0.32618896  1
  O  O490  1  0.08717413  0.98235311  0.57684875  1
  O  O491  1  0.08709591  0.98111373  0.82792744  1
  O  O492  1  0.59028906  0.31401755  0.07763691  1
  O  O493  1  0.58610618  0.31522684  0.32679856  1
  O  O494  1  0.58774817  0.31500693  0.57790055  1
  O  O495  1  0.58657434  0.31532402  0.82855405  1
  O  O496  1  0.58599057  0.64973439  0.07761242  1
  O  O497  1  0.58528217  0.64926452  0.32719669  1
  O  O498  1  0.58648226  0.64750580  0.57672999  1
  O  O499  1  0.58652654  0.64801344  0.82723190  1
  O  O500  1  0.58850844  0.98091513  0.07743259  1
  O  O501  1  0.58703064  0.98084156  0.32679777  1
  O  O502  1  0.58811326  0.98242981  0.57883912  1
  O  O503  1  0.58740912  0.98198511  0.82834235  1
  O  O504  1  0.41428134  0.01723217  0.17160553  1
  O  O505  1  0.41214662  0.01764457  0.42211214  1
  O  O506  1  0.41297696  0.01837644  0.67341403  1
  O  O507  1  0.41343118  0.01790108  0.92292515  1
  O  O508  1  0.41210217  0.35259263  0.17193518  1
  O  O509  1  0.41232837  0.35099955  0.42251136  1
  O  O510  1  0.41271013  0.35285404  0.67256004  1
  O  O511  1  0.41401653  0.35051186  0.92345231  1
  O  O512  1  0.41208942  0.68549523  0.17249798  1
  O  O513  1  0.41235767  0.68578802  0.42202073  1
  O  O514  1  0.41192268  0.68373605  0.67157449  1
  O  O515  1  0.41156394  0.68594829  0.92339012  1
  O  O516  1  0.90991632  0.01731934  0.17258078  1
  O  O517  1  0.91086262  0.01796200  0.42220351  1
  O  O518  1  0.91150470  0.01918707  0.67270418  1
  O  O519  1  0.91111401  0.01838455  0.92381914  1
  O  O520  1  0.91102907  0.35224862  0.17358282  1
  O  O521  1  0.91024462  0.35265218  0.42267910  1
  O  O522  1  0.91193995  0.35027236  0.67190396  1
  O  O523  1  0.91467989  0.35256682  0.92307975  1
  O  O524  1  0.90959244  0.68543721  0.17203638  1
  O  O525  1  0.91243242  0.68462572  0.42221314  1
  O  O526  1  0.91092951  0.68549264  0.67275208  1
  O  O527  1  0.91238090  0.68377511  0.92173347  1
  O  O528  1  0.16315726  0.01745262  0.20232334  1
  O  O529  1  0.16484022  0.01826398  0.45186782  1
  O  O530  1  0.16565812  0.01816892  0.70214793  1
  O  O531  1  0.16549009  0.01781861  0.95232868  1
  O  O532  1  0.16285641  0.35072430  0.20314651  1
  O  O533  1  0.16464740  0.35199501  0.45223949  1
  O  O534  1  0.16187073  0.35195311  0.70286283  1
  O  O535  1  0.16386936  0.35233624  0.95188397  1
  O  O536  1  0.16372010  0.68592306  0.20232114  1
  O  O537  1  0.16405070  0.68500664  0.45099610  1
  O  O538  1  0.16198379  0.68443785  0.70313857  1
  O  O539  1  0.16336273  0.68515694  0.95248344  1
  O  O540  1  0.66222561  0.01814961  0.20216561  1
  O  O541  1  0.66356005  0.01841306  0.45290320  1
  O  O542  1  0.66033790  0.01658092  0.70349304  1
  O  O543  1  0.66137511  0.01763158  0.95307429  1
  O  O544  1  0.66375542  0.35144062  0.20341742  1
  O  O545  1  0.66348416  0.35189417  0.45290004  1
  O  O546  1  0.66100546  0.35202669  0.70201980  1
  O  O547  1  0.66175082  0.35082601  0.95231244  1
  O  O548  1  0.66186007  0.68535159  0.20176513  1
  O  O549  1  0.66366192  0.68444461  0.45053952  1
  O  O550  1  0.66423969  0.68532974  0.70200451  1
  O  O551  1  0.66379924  0.68561437  0.95279260  1
  O  O552  1  0.33918678  0.31552357  0.04651569  1
  O  O553  1  0.33693818  0.31459383  0.29812873  1
  O  O554  1  0.33882250  0.31540438  0.54668340  1
  O  O555  1  0.33951180  0.31409375  0.79868888  1
  O  O556  1  0.33844519  0.64873048  0.04769937  1
  O  O557  1  0.33889661  0.65015697  0.29715713  1
  O  O558  1  0.33982796  0.64878650  0.54704987  1
  O  O559  1  0.33640818  0.64835351  0.79744010  1
  O  O560  1  0.34033531  0.98135004  0.04774354  1
  O  O561  1  0.33878621  0.98086436  0.29734826  1
  O  O562  1  0.33963532  0.98127881  0.54600384  1
  O  O563  1  0.33912610  0.98266720  0.79808171  1
  O  O564  1  0.83528771  0.31409273  0.04749873  1
  O  O565  1  0.83552793  0.31451756  0.29734934  1
  O  O566  1  0.83837769  0.31492649  0.54826855  1
  O  O567  1  0.83666335  0.31507542  0.79768364  1
  O  O568  1  0.83892260  0.64918206  0.04688757  1
  O  O569  1  0.83897668  0.64884316  0.29677239  1
  O  O570  1  0.83843022  0.64918455  0.54594411  1
  O  O571  1  0.83841879  0.64961169  0.79759597  1
  O  O572  1  0.83613100  0.98211227  0.04815830  1
  O  O573  1  0.83595282  0.98178096  0.29650439  1
  O  O574  1  0.83708094  0.98142678  0.54727116  1
  O  O575  1  0.83510921  0.98075563  0.79849446  1
  O  O576  1  0.41451742  0.14725669  0.17213245  1
  O  O577  1  0.41185422  0.14793753  0.42215966  1
  O  O578  1  0.41295069  0.14831788  0.67326039  1
  O  O579  1  0.41317221  0.14799830  0.92300190  1
  O  O580  1  0.41214316  0.48287562  0.17121427  1
  O  O581  1  0.41135593  0.48127492  0.42214736  1
  O  O582  1  0.41375936  0.48295815  0.67235271  1
  O  O583  1  0.41262515  0.48049903  0.92342491  1
  O  O584  1  0.41245372  0.81556174  0.17249338  1
  O  O585  1  0.41296039  0.81593058  0.42222549  1
  O  O586  1  0.41187308  0.81387616  0.67230975  1
  O  O587  1  0.41229863  0.81598567  0.92299614  1
  O  O588  1  0.90962878  0.14746061  0.17306853  1
  O  O589  1  0.91087454  0.14798137  0.42221919  1
  O  O590  1  0.91177707  0.14934864  0.67186407  1
  O  O591  1  0.91136980  0.14832609  0.92385492  1
  O  O592  1  0.91115966  0.48239880  0.17250209  1
  O  O593  1  0.91096432  0.48284175  0.42191687  1
  O  O594  1  0.91141683  0.48051404  0.67229770  1
  O  O595  1  0.91453451  0.48264693  0.92196312  1
  O  O596  1  0.90985659  0.81551202  0.17293082  1
  O  O597  1  0.91215416  0.81461050  0.42276954  1
  O  O598  1  0.91104856  0.81539116  0.67304042  1
  O  O599  1  0.91171592  0.81379381  0.92333147  1
  O  O600  1  0.08749116  0.18482835  0.07763684  1
  O  O601  1  0.08763148  0.18476632  0.32652534  1
  O  O602  1  0.08589425  0.18442915  0.57637075  1
  O  O603  1  0.08741941  0.18517684  0.82755971  1
  O  O604  1  0.08494305  0.51889124  0.07754650  1
  O  O605  1  0.08585674  0.51954440  0.32721315  1
  O  O606  1  0.08793077  0.51831839  0.57721172  1
  O  O607  1  0.08753330  0.51894704  0.82734795  1
  O  O608  1  0.08581422  0.85132756  0.07776790  1
  O  O609  1  0.08792880  0.85023411  0.32675620  1
  O  O610  1  0.08738819  0.85221234  0.57694000  1
  O  O611  1  0.08686948  0.85075295  0.82847116  1
  O  O612  1  0.58938281  0.18379322  0.07791881  1
  O  O613  1  0.58659065  0.18524664  0.32705751  1
  O  O614  1  0.58717844  0.18460591  0.57778631  1
  O  O615  1  0.58714256  0.18509135  0.82852060  1
  O  O616  1  0.58615954  0.51963961  0.07741275  1
  O  O617  1  0.58551089  0.51915624  0.32691796  1
  O  O618  1  0.58574660  0.51731400  0.57704419  1
  O  O619  1  0.58708778  0.51776010  0.82828651  1
  O  O620  1  0.58811579  0.85085255  0.07777557  1
  O  O621  1  0.58664869  0.85090399  0.32691938  1
  O  O622  1  0.58858755  0.85207570  0.57798394  1
  O  O623  1  0.58769721  0.85190787  0.82745991  1
  O  O624  1  0.33967595  0.18504098  0.04687501  1
  O  O625  1  0.33718433  0.18479070  0.29782795  1
  O  O626  1  0.33921707  0.18491891  0.54629499  1
  O  O627  1  0.33932220  0.18406450  0.79793814  1
  O  O628  1  0.33833089  0.51855406  0.04759371  1
  O  O629  1  0.34008896  0.52007721  0.29744337  1
  O  O630  1  0.33960132  0.51842514  0.54723195  1
  O  O631  1  0.33628693  0.51841290  0.79760971  1
  O  O632  1  0.33997213  0.85118067  0.04737980  1
  O  O633  1  0.33848588  0.85100878  0.29730798  1
  O  O634  1  0.33897517  0.85088374  0.54628844  1
  O  O635  1  0.33946134  0.85272394  0.79871964  1
  O  O636  1  0.83484958  0.18399152  0.04730541  1
  O  O637  1  0.83529152  0.18444406  0.29719741  1
  O  O638  1  0.83826623  0.18463722  0.54824693  1
  O  O639  1  0.83739310  0.18484425  0.79732772  1
  O  O640  1  0.83950621  0.51899105  0.04728624  1
  O  O641  1  0.83914365  0.51860502  0.29689752  1
  O  O642  1  0.83865741  0.51878576  0.54643995  1
  O  O643  1  0.83855000  0.51957402  0.79874523  1
  O  O644  1  0.83648303  0.85214128  0.04857722  1
  O  O645  1  0.83582154  0.85166511  0.29690397  1
  O  O646  1  0.83740782  0.85106137  0.54651062  1
  O  O647  1  0.83526928  0.85067318  0.79788856  1
  O  O648  1  0.16265853  0.14793353  0.20266046  1
  O  O649  1  0.16490927  0.14824002  0.45193338  1
  O  O650  1  0.16568547  0.14832725  0.70206278  1
  O  O651  1  0.16552859  0.14788983  0.95219757  1
  O  O652  1  0.16280308  0.48120908  0.20240976  1
  O  O653  1  0.16510031  0.48207418  0.45184001  1
  O  O654  1  0.16203595  0.48240843  0.70306683  1
  O  O655  1  0.16386929  0.48236546  0.95220632  1
  O  O656  1  0.16364392  0.81615561  0.20283508  1
  O  O657  1  0.16399441  0.81493441  0.45106793  1
  O  O658  1  0.16149529  0.81485971  0.70310097  1
  O  O659  1  0.16370438  0.81514164  0.95216052  1
  O  O660  1  0.66217628  0.14827691  0.20281326  1
  O  O661  1  0.66355644  0.14839367  0.45296043  1
  O  O662  1  0.65972718  0.14672673  0.70233523  1
  O  O663  1  0.66162403  0.14781136  0.95249905  1
  O  O664  1  0.66432810  0.48158210  0.20212515  1
  O  O665  1  0.66403984  0.48195521  0.45214603  1
  O  O666  1  0.66075879  0.48212886  0.70213182  1
  O  O667  1  0.66161980  0.48093115  0.95163427  1
  O  O668  1  0.66188555  0.81541234  0.20248865  1
  O  O669  1  0.66268221  0.81432698  0.45107514  1
  O  O670  1  0.66408005  0.81537352  0.70277602  1
  O  O671  1  0.66318671  0.81569874  0.95393231  1
