# generated using pymatgen
data_Na2MnFe(PO4)2
_symmetry_space_group_name_H-M   'P 1'
_cell_length_a   21.09224246
_cell_length_b   18.94606962
_cell_length_c   20.05056597
_cell_angle_alpha   90.00027547
_cell_angle_beta   89.99875502
_cell_angle_gamma   89.99917348
_symmetry_Int_Tables_number   1
_chemical_formula_structural   Na2MnFe(PO4)2
_chemical_formula_sum   'Na96 Mn48 Fe48 P96 O384'
_cell_volume   8012.50880281
_cell_formula_units_Z   48
loop_
 _symmetry_equiv_pos_site_id
 _symmetry_equiv_pos_as_xyz
  1  'x, y, z'
loop_
 _atom_site_type_symbol
 _atom_site_label
 _atom_site_symmetry_multiplicity
 _atom_site_fract_x
 _atom_site_fract_y
 _atom_site_fract_z
 _atom_site_occupancy
  Na  Na0  1  -0.00103595  -0.00058357  0.00052081  1
  Na  Na1  1  -0.00027292  -0.00062147  0.25088559  1
  Na  Na2  1  -0.00052600  -0.00080634  0.49912041  1
  Na  Na3  1  -0.00105171  -0.00080623  0.74976716  1
  Na  Na4  1  -0.00296377  0.33215283  0.00045311  1
  Na  Na5  1  -0.00095423  0.33268105  0.24943000  1
  Na  Na6  1  0.00208720  0.33325834  0.50029849  1
  Na  Na7  1  0.00149592  0.33368534  0.74952894  1
  Na  Na8  1  0.00033109  0.66745691  -0.00036195  1
  Na  Na9  1  -0.00009930  0.66651635  0.24949875  1
  Na  Na10  1  -0.00087809  0.66604410  0.50101826  1
  Na  Na11  1  -0.00050724  0.66683437  0.74986149  1
  Na  Na12  1  0.49758289  -0.00147885  -0.00070016  1
  Na  Na13  1  0.49797589  -0.00068711  0.24956641  1
  Na  Na14  1  0.49831558  -0.00099526  0.50041285  1
  Na  Na15  1  0.50047642  -0.00007798  0.75011449  1
  Na  Na16  1  0.50192635  0.33402089  -0.00097317  1
  Na  Na17  1  0.49952637  0.33291666  0.24962511  1
  Na  Na18  1  0.49808019  0.33257977  0.50108362  1
  Na  Na19  1  0.49859647  0.33228241  0.75079566  1
  Na  Na20  1  0.50223409  0.66698878  -0.00081796  1
  Na  Na21  1  0.50237266  0.66736001  0.25021330  1
  Na  Na22  1  0.50047511  0.66657618  0.50089183  1
  Na  Na23  1  0.50156396  0.66699855  0.74978778  1
  Na  Na24  1  0.25004668  -0.00088215  0.12477991  1
  Na  Na25  1  0.24920630  -0.00106739  0.37465391  1
  Na  Na26  1  0.25094041  -0.00056191  0.62538603  1
  Na  Na27  1  0.25235334  -0.00015642  0.87438567  1
  Na  Na28  1  0.24926907  0.33224844  0.12410518  1
  Na  Na29  1  0.24962984  0.33320627  0.37602317  1
  Na  Na30  1  0.24952688  0.33294187  0.62493134  1
  Na  Na31  1  0.25086156  0.33363359  0.87457474  1
  Na  Na32  1  0.24749137  0.66630238  0.12428254  1
  Na  Na33  1  0.24962815  0.66727621  0.37582603  1
  Na  Na34  1  0.24952173  0.66730313  0.62578630  1
  Na  Na35  1  0.24800883  0.66695795  0.87568000  1
  Na  Na36  1  0.75276480  0.00034208  0.12481570  1
  Na  Na37  1  0.75233224  0.00070163  0.37539589  1
  Na  Na38  1  0.74975390  -0.00048013  0.62555758  1
  Na  Na39  1  0.75043485  -0.00049702  0.87460361  1
  Na  Na40  1  0.75109258  0.33328093  0.12509367  1
  Na  Na41  1  0.75165839  0.33352977  0.37509231  1
  Na  Na42  1  0.74961725  0.33274229  0.62501226  1
  Na  Na43  1  0.74941977  0.33244323  0.87498059  1
  Na  Na44  1  0.74865054  0.66580572  0.12498354  1
  Na  Na45  1  0.74861905  0.66609805  0.37471674  1
  Na  Na46  1  0.75009939  0.66688925  0.62516065  1
  Na  Na47  1  0.74913541  0.66607386  0.87430369  1
  Na  Na48  1  -0.00207920  0.16756016  0.00030978  1
  Na  Na49  1  -0.00163456  0.16728541  0.25082639  1
  Na  Na50  1  0.00033409  0.16693424  0.50035682  1
  Na  Na51  1  0.00029808  0.16680392  0.74832731  1
  Na  Na52  1  -0.00333753  0.50139470  0.00047879  1
  Na  Na53  1  -0.00109716  0.49996584  0.24871585  1
  Na  Na54  1  -0.00026589  0.50087990  0.50077753  1
  Na  Na55  1  -0.00033157  0.50039259  0.75026366  1
  Na  Na56  1  0.00090302  0.83354505  -0.00059307  1
  Na  Na57  1  0.00201817  0.83347319  0.25048583  1
  Na  Na58  1  0.00114870  0.83283674  0.49958989  1
  Na  Na59  1  -0.00066288  0.83380814  0.75058479  1
  Na  Na60  1  0.49988375  0.16694353  -0.00030702  1
  Na  Na61  1  0.49903491  0.16671645  0.24860838  1
  Na  Na62  1  0.49854064  0.16728200  0.50031569  1
  Na  Na63  1  0.50079153  0.16690252  0.75090130  1
  Na  Na64  1  0.50230454  0.49990836  -0.00086756  1
  Na  Na65  1  0.50206236  0.50044882  0.25041248  1
  Na  Na66  1  0.50049682  0.50061325  0.50050962  1
  Na  Na67  1  0.50233996  0.49966558  0.75051280  1
  Na  Na68  1  0.49988502  0.83261557  -0.00103832  1
  Na  Na69  1  0.49812524  0.83359048  0.25007863  1
  Na  Na70  1  0.49814706  0.83358033  0.50141850  1
  Na  Na71  1  0.49777690  0.83379721  0.74935167  1
  Na  Na72  1  0.25099081  0.16634172  0.12419505  1
  Na  Na73  1  0.24940438  0.16736917  0.37552579  1
  Na  Na74  1  0.24931947  0.16801806  0.62511631  1
  Na  Na75  1  0.25117070  0.16721080  0.87483783  1
  Na  Na76  1  0.24889224  0.50015175  0.12465268  1
  Na  Na77  1  0.24873177  0.50003514  0.37594622  1
  Na  Na78  1  0.24949968  0.50015534  0.62506377  1
  Na  Na79  1  0.24951685  0.50021749  0.87534019  1
  Na  Na80  1  0.24858046  0.83381040  0.12387816  1
  Na  Na81  1  0.24977523  0.83352718  0.37516326  1
  Na  Na82  1  0.25119348  0.83257837  0.62587015  1
  Na  Na83  1  0.24925184  0.83352062  0.87496360  1
  Na  Na84  1  0.75065032  0.16737035  0.12471639  1
  Na  Na85  1  0.75283057  0.16562151  0.37572085  1
  Na  Na86  1  0.74926117  0.16652399  0.62442700  1
  Na  Na87  1  0.74900857  0.16710564  0.87491144  1
  Na  Na88  1  0.75103291  0.50036261  0.12469864  1
  Na  Na89  1  0.74945500  0.50151357  0.37516848  1
  Na  Na90  1  0.74935916  0.50100394  0.62549170  1
  Na  Na91  1  0.75023144  0.50062641  0.87404719  1
  Na  Na92  1  0.75093925  0.83302846  0.12535792  1
  Na  Na93  1  0.74935933  0.83402593  0.37447804  1
  Na  Na94  1  0.75139668  0.83278625  0.62562663  1
  Na  Na95  1  0.75028998  0.83380119  0.87488951  1
  Mn  Mn96  1  0.14243400  0.91684372  0.74768775  1
  Mn  Mn97  1  0.64276653  0.24996946  0.24860597  1
  Mn  Mn98  1  0.35697572  0.74900205  0.25189056  1
  Mn  Mn99  1  0.10685230  0.41667228  0.87303384  1
  Mn  Mn100  1  0.60743321  0.08267215  0.87294546  1
  Mn  Mn101  1  0.64196523  0.91632040  0.49772690  1
  Mn  Mn102  1  0.35723617  0.08371388  0.25236835  1
  Mn  Mn103  1  0.60765299  0.41643629  0.37289467  1
  Mn  Mn104  1  0.39306923  0.58328288  0.87683531  1
  Mn  Mn105  1  0.85802645  0.41645208  0.25283465  1
  Mn  Mn106  1  0.39256613  0.58371477  0.12734119  1
  Mn  Mn107  1  0.39249595  0.25028222  0.12696237  1
  Mn  Mn108  1  0.64195140  0.25014043  0.49726971  1
  Mn  Mn109  1  0.35754360  0.41731331  0.50250724  1
  Mn  Mn110  1  0.85805759  0.75034584  0.25231605  1
  Mn  Mn111  1  0.39223168  0.58354386  0.37672057  1
  Mn  Mn112  1  0.10753429  0.41693289  0.37238401  1
  Mn  Mn113  1  0.10773193  0.08351383  0.87279242  1
  Mn  Mn114  1  0.85788959  0.74944807  0.00212540  1
  Mn  Mn115  1  0.10733601  0.08316192  0.12262828  1
  Mn  Mn116  1  0.60756586  0.08275383  0.37259042  1
  Mn  Mn117  1  0.60756273  0.75077524  0.62296117  1
  Mn  Mn118  1  0.89280695  0.91621404  0.37761503  1
  Mn  Mn119  1  0.85816552  0.08384128  0.00222418  1
  Mn  Mn120  1  0.14165269  0.24924408  0.99727538  1
  Mn  Mn121  1  0.39221860  0.58305883  0.62814885  1
  Mn  Mn122  1  0.10838312  0.74919927  0.37286171  1
  Mn  Mn123  1  0.35774052  0.08295417  0.50243450  1
  Mn  Mn124  1  0.35828815  0.08368543  0.75239970  1
  Mn  Mn125  1  0.85774909  0.75060530  0.50214797  1
  Mn  Mn126  1  0.10801474  0.08258380  0.62236517  1
  Mn  Mn127  1  0.10652624  0.41676763  0.12242409  1
  Mn  Mn128  1  0.85817138  0.41666297  0.50282427  1
  Mn  Mn129  1  0.14159451  0.58374289  0.49798361  1
  Mn  Mn130  1  0.85726670  0.08315555  0.75206822  1
  Mn  Mn131  1  0.89314954  0.25021553  0.62736534  1
  Mn  Mn132  1  0.85789569  0.41641376  0.75230156  1
  Mn  Mn133  1  0.10747217  0.08366732  0.37293662  1
  Mn  Mn134  1  0.60800577  0.75086373  0.12255460  1
  Mn  Mn135  1  0.64238714  0.91664588  0.99781234  1
  Mn  Mn136  1  0.35731009  0.41703187  0.25188350  1
  Mn  Mn137  1  0.60792584  0.08272045  0.12294377  1
  Mn  Mn138  1  0.35713194  0.74991699  0.00170764  1
  Mn  Mn139  1  0.60895320  0.41644013  0.12237620  1
  Mn  Mn140  1  0.35865875  0.41692579  0.00216382  1
  Mn  Mn141  1  0.64184033  0.91705225  0.24782973  1
  Mn  Mn142  1  0.60754646  0.41584977  0.62293041  1
  Mn  Mn143  1  0.14098078  0.58318140  0.99733152  1
  Fe  Fe144  1  0.89259488  0.91682469  0.87675817  1
  Fe  Fe145  1  0.60689362  0.08323002  0.62332352  1
  Fe  Fe146  1  0.39162271  0.91643151  0.37674225  1
  Fe  Fe147  1  0.89329523  0.25057516  0.37741976  1
  Fe  Fe148  1  0.89355228  0.91659037  0.12688336  1
  Fe  Fe149  1  0.85651569  0.41663664  0.00060053  1
  Fe  Fe150  1  0.89192095  0.24942925  0.12745398  1
  Fe  Fe151  1  0.14201490  0.58287764  0.74884427  1
  Fe  Fe152  1  0.64221721  0.24963659  0.74805359  1
  Fe  Fe153  1  0.64389659  0.58369983  0.74817999  1
  Fe  Fe154  1  0.14266799  0.91736807  0.99801033  1
  Fe  Fe155  1  0.39310519  0.91640088  0.87659768  1
  Fe  Fe156  1  0.64340728  0.25034537  0.99823328  1
  Fe  Fe157  1  0.10696959  0.75013737  0.62394272  1
  Fe  Fe158  1  0.35653743  0.74865178  0.75226213  1
  Fe  Fe159  1  0.10794281  0.41741506  0.62420103  1
  Fe  Fe160  1  0.89187239  0.25008033  0.87587499  1
  Fe  Fe161  1  0.64347237  0.58293738  0.99796157  1
  Fe  Fe162  1  0.89271676  0.58405771  0.62686749  1
  Fe  Fe163  1  0.89228435  0.58310066  0.37668271  1
  Fe  Fe164  1  0.64308095  0.58352920  0.49842288  1
  Fe  Fe165  1  0.85751668  0.08305243  0.50244186  1
  Fe  Fe166  1  0.89213160  0.58430466  0.12688292  1
  Fe  Fe167  1  0.14331223  0.24937578  0.49811747  1
  Fe  Fe168  1  0.14307357  0.25071245  0.74878131  1
  Fe  Fe169  1  0.60771753  0.75029528  0.87244509  1
  Fe  Fe170  1  0.85756300  0.75031299  0.75172993  1
  Fe  Fe171  1  0.35692975  0.41772989  0.75169592  1
  Fe  Fe172  1  0.89288402  0.91599097  0.62647067  1
  Fe  Fe173  1  0.35747478  0.08312123  0.00143874  1
  Fe  Fe174  1  0.35737893  0.74979986  0.50179816  1
  Fe  Fe175  1  0.14290760  0.91672845  0.24763314  1
  Fe  Fe176  1  0.39158654  0.24984472  0.37633564  1
  Fe  Fe177  1  0.60834492  0.41678353  0.87256141  1
  Fe  Fe178  1  0.10684352  0.75015577  0.12363861  1
  Fe  Fe179  1  0.39252053  0.91709034  0.62716672  1
  Fe  Fe180  1  0.14122598  0.58307850  0.24818373  1
  Fe  Fe181  1  0.85799044  0.08305867  0.25192683  1
  Fe  Fe182  1  0.39333747  0.24997404  0.87663878  1
  Fe  Fe183  1  0.89243628  0.58344363  0.87656626  1
  Fe  Fe184  1  0.14330912  0.91682908  0.49922183  1
  Fe  Fe185  1  0.39233536  0.24984310  0.62747943  1
  Fe  Fe186  1  0.14210858  0.24993094  0.24827187  1
  Fe  Fe187  1  0.10634952  0.75001957  0.87272760  1
  Fe  Fe188  1  0.64319999  0.58325072  0.24821583  1
  Fe  Fe189  1  0.60661102  0.75073364  0.37393224  1
  Fe  Fe190  1  0.64279240  0.91650748  0.74827385  1
  Fe  Fe191  1  0.39179286  0.91601823  0.12638228  1
  P  P192  1  0.05254049  0.24968103  0.11107445  1
  P  P193  1  0.05379720  0.24998246  0.36059663  1
  P  P194  1  0.05619253  0.25082458  0.61072506  1
  P  P195  1  0.05191189  0.24988940  0.85935173  1
  P  P196  1  0.05258602  0.58411361  0.11095820  1
  P  P197  1  0.05206453  0.58310048  0.35931939  1
  P  P198  1  0.05370184  0.58389193  0.61206684  1
  P  P199  1  0.05210104  0.58387030  0.85966823  1
  P  P200  1  0.05426641  0.91623356  0.11063277  1
  P  P201  1  0.05577622  0.91663762  0.36084588  1
  P  P202  1  0.05287577  0.91544661  0.60968973  1
  P  P203  1  0.05325542  0.91654927  0.86115493  1
  P  P204  1  0.55462173  0.24975256  0.10906715  1
  P  P205  1  0.55136239  0.24958384  0.35992013  1
  P  P206  1  0.55316042  0.24905709  0.61140749  1
  P  P207  1  0.55480118  0.25063292  0.86094084  1
  P  P208  1  0.55564647  0.58349900  0.10994074  1
  P  P209  1  0.55539661  0.58461013  0.36106246  1
  P  P210  1  0.55555505  0.58346719  0.61094174  1
  P  P211  1  0.55642480  0.58349689  0.86045136  1
  P  P212  1  0.55158947  0.91674191  0.10949869  1
  P  P213  1  0.55141056  0.91576315  0.36033626  1
  P  P214  1  0.55327612  0.91734452  0.61155361  1
  P  P215  1  0.55307697  0.91553468  0.85927244  1
  P  P216  1  0.44501517  0.08228648  0.13847267  1
  P  P217  1  0.44604639  0.08320218  0.38985235  1
  P  P218  1  0.44739648  0.08348890  0.64028619  1
  P  P219  1  0.44587703  0.08318509  0.89007360  1
  P  P220  1  0.44763291  0.41715968  0.14017085  1
  P  P221  1  0.44648486  0.41638649  0.39016395  1
  P  P222  1  0.44580715  0.41620336  0.64127905  1
  P  P223  1  0.44722550  0.41653913  0.88841350  1
  P  P224  1  0.44643678  0.75039093  0.13971766  1
  P  P225  1  0.44657154  0.75031340  0.39072784  1
  P  P226  1  0.44437021  0.75029442  0.63984633  1
  P  P227  1  0.44668366  0.74994017  0.88827326  1
  P  P228  1  0.94588064  0.08304163  0.14073388  1
  P  P229  1  0.94483736  0.08411840  0.38983694  1
  P  P230  1  0.94568234  0.08216079  0.63861219  1
  P  P231  1  0.94643326  0.08358809  0.88953107  1
  P  P232  1  0.94396213  0.41675580  0.13818516  1
  P  P233  1  0.94660450  0.41689889  0.39018517  1
  P  P234  1  0.94815814  0.41736846  0.64005822  1
  P  P235  1  0.94547394  0.41663715  0.89029753  1
  P  P236  1  0.94759543  0.75066459  0.13971306  1
  P  P237  1  0.94708813  0.74896603  0.39015829  1
  P  P238  1  0.94681145  0.75041394  0.64044514  1
  P  P239  1  0.94598634  0.75003636  0.88849576  1
  P  P240  1  0.19621151  0.08363053  0.23492992  1
  P  P241  1  0.19668413  0.08291927  0.48534312  1
  P  P242  1  0.19711526  0.08411112  0.73509278  1
  P  P243  1  0.19788613  0.08229385  0.98470303  1
  P  P244  1  0.19580020  0.41627010  0.23475993  1
  P  P245  1  0.19489035  0.41607794  0.48658114  1
  P  P246  1  0.19693521  0.41694454  0.73516873  1
  P  P247  1  0.19647564  0.41619460  0.98459857  1
  P  P248  1  0.19547103  0.74990741  0.23424530  1
  P  P249  1  0.19648115  0.75113425  0.48686622  1
  P  P250  1  0.19522194  0.74933080  0.73610279  1
  P  P251  1  0.19357417  0.75124501  0.98533172  1
  P  P252  1  0.69836190  0.08333974  0.23500938  1
  P  P253  1  0.69659167  0.08301440  0.48603277  1
  P  P254  1  0.69535175  0.08297439  0.73455967  1
  P  P255  1  0.69704539  0.08369883  0.98496251  1
  P  P256  1  0.69707171  0.41729471  0.23522631  1
  P  P257  1  0.69687582  0.41745324  0.48516604  1
  P  P258  1  0.69565202  0.41652385  0.73608985  1
  P  P259  1  0.69741646  0.41678695  0.98422843  1
  P  P260  1  0.69541357  0.74974438  0.23630348  1
  P  P261  1  0.69599834  0.74956411  0.48454644  1
  P  P262  1  0.69670191  0.75041741  0.73620562  1
  P  P263  1  0.69628361  0.74949956  0.98407232  1
  P  P264  1  0.30486374  0.24935826  0.01332960  1
  P  P265  1  0.30206905  0.25035506  0.26538469  1
  P  P266  1  0.30422749  0.24991226  0.51477168  1
  P  P267  1  0.30445892  0.25126221  0.76437315  1
  P  P268  1  0.30299437  0.58369643  0.01492011  1
  P  P269  1  0.30081002  0.58325860  0.26498281  1
  P  P270  1  0.30323262  0.58435753  0.51539153  1
  P  P271  1  0.30173582  0.58336869  0.76519789  1
  P  P272  1  0.30410144  0.91696269  0.01375385  1
  P  P273  1  0.30335583  0.91604698  0.26412847  1
  P  P274  1  0.30426564  0.91576875  0.51470439  1
  P  P275  1  0.30556481  0.91545767  0.76446460  1
  P  P276  1  0.80418252  0.25099187  0.01391157  1
  P  P277  1  0.80552074  0.24890086  0.26502717  1
  P  P278  1  0.80480312  0.24941472  0.51429431  1
  P  P279  1  0.80228938  0.24962733  0.76498310  1
  P  P280  1  0.80406569  0.58274337  0.01379165  1
  P  P281  1  0.80414332  0.58380755  0.26458506  1
  P  P282  1  0.80417498  0.58373505  0.51481852  1
  P  P283  1  0.80481222  0.58439041  0.76397040  1
  P  P284  1  0.80545528  0.91628024  0.01460656  1
  P  P285  1  0.80483992  0.91723418  0.26399565  1
  P  P286  1  0.80399937  0.91715153  0.51590199  1
  P  P287  1  0.80420368  0.91579704  0.76420598  1
  O  O288  1  0.05791549  0.24970446  0.18767700  1
  O  O289  1  0.05907646  0.24953892  0.43724278  1
  O  O290  1  0.06032608  0.25010529  0.68751053  1
  O  O291  1  0.05548648  0.24968821  0.93609400  1
  O  O292  1  0.05749657  0.58309528  0.18758487  1
  O  O293  1  0.05612345  0.58333045  0.43605584  1
  O  O294  1  0.05836987  0.58346918  0.68869270  1
  O  O295  1  0.05535698  0.58333954  0.93638631  1
  O  O296  1  0.05899898  0.91713160  0.18733996  1
  O  O297  1  0.06015088  0.91664804  0.43755895  1
  O  O298  1  0.05646866  0.91648362  0.68647974  1
  O  O299  1  0.05809017  0.91756178  0.93774311  1
  O  O300  1  0.55781871  0.24975591  0.18583705  1
  O  O301  1  0.55535585  0.24974329  0.43665250  1
  O  O302  1  0.55823124  0.24980973  0.68803995  1
  O  O303  1  0.55991780  0.25034191  0.93756378  1
  O  O304  1  0.55985369  0.58336147  0.18672670  1
  O  O305  1  0.55912614  0.58351580  0.43784109  1
  O  O306  1  0.56035481  0.58374557  0.68767450  1
  O  O307  1  0.56023566  0.58326882  0.93723454  1
  O  O308  1  0.55566636  0.91694567  0.18616790  1
  O  O309  1  0.55540608  0.91639410  0.43701731  1
  O  O310  1  0.55853933  0.91634296  0.68810244  1
  O  O311  1  0.55677525  0.91588259  0.93594075  1
  O  O312  1  0.44116743  0.08288542  0.06173046  1
  O  O313  1  0.44317006  0.08332846  0.31306382  1
  O  O314  1  0.44374229  0.08343025  0.56354626  1
  O  O315  1  0.44356990  0.08355015  0.81347887  1
  O  O316  1  0.44458266  0.41742068  0.06334906  1
  O  O317  1  0.44359890  0.41724325  0.31340232  1
  O  O318  1  0.44266595  0.41730567  0.56449862  1
  O  O319  1  0.44159063  0.41743855  0.81185927  1
  O  O320  1  0.44323276  0.74933470  0.06296519  1
  O  O321  1  0.44293116  0.74944566  0.31400677  1
  O  O322  1  0.44040757  0.74936809  0.56309740  1
  O  O323  1  0.44143210  0.74876583  0.81167892  1
  O  O324  1  0.94326071  0.08344095  0.06399376  1
  O  O325  1  0.94133309  0.08312512  0.31306383  1
  O  O326  1  0.94182489  0.08288080  0.56189536  1
  O  O327  1  0.94368891  0.08348482  0.81272850  1
  O  O328  1  0.94007447  0.41673892  0.06148535  1
  O  O329  1  0.94381063  0.41665675  0.31338313  1
  O  O330  1  0.94449892  0.41660298  0.56342526  1
  O  O331  1  0.94345863  0.41654406  0.81341333  1
  O  O332  1  0.94425962  0.75047024  0.06302406  1
  O  O333  1  0.94399458  0.75001228  0.31344843  1
  O  O334  1  0.94348570  0.75017781  0.56377188  1
  O  O335  1  0.94145160  0.75017447  0.81185769  1
  O  O336  1  0.19377187  0.08279904  0.06135143  1
  O  O337  1  0.19329867  0.08370409  0.31167062  1
  O  O338  1  0.19423963  0.08288901  0.56213960  1
  O  O339  1  0.19405853  0.08332646  0.81188348  1
  O  O340  1  0.19244072  0.41609819  0.06131000  1
  O  O341  1  0.19339168  0.41642424  0.31159843  1
  O  O342  1  0.19096038  0.41710073  0.56330527  1
  O  O343  1  0.19330278  0.41689847  0.81183986  1
  O  O344  1  0.18946103  0.75026522  0.06206426  1
  O  O345  1  0.19343630  0.74984442  0.31110680  1
  O  O346  1  0.19158475  0.75044599  0.56349447  1
  O  O347  1  0.19010501  0.75017628  0.81279143  1
  O  O348  1  0.69415255  0.08297421  0.06170835  1
  O  O349  1  0.69423060  0.08293973  0.31173791  1
  O  O350  1  0.69093665  0.08299056  0.56263344  1
  O  O351  1  0.69259484  0.08282712  0.81139096  1
  O  O352  1  0.69472499  0.41675479  0.06096979  1
  O  O353  1  0.69379348  0.41670950  0.31196900  1
  O  O354  1  0.69362600  0.41646103  0.56194225  1
  O  O355  1  0.69215930  0.41625872  0.81284132  1
  O  O356  1  0.69350852  0.75048811  0.06089416  1
  O  O357  1  0.69104097  0.75093833  0.31295479  1
  O  O358  1  0.69322276  0.75064941  0.56135403  1
  O  O359  1  0.69215838  0.75077902  0.81283312  1
  O  O360  1  0.30642744  0.25007382  0.18870198  1
  O  O361  1  0.30893937  0.24996764  0.43808578  1
  O  O362  1  0.30886771  0.25011028  0.68762481  1
  O  O363  1  0.30956769  0.25039915  0.93660356  1
  O  O364  1  0.30519307  0.58343357  0.18835737  1
  O  O365  1  0.30648524  0.58374832  0.43865879  1
  O  O366  1  0.30550987  0.58351255  0.68857972  1
  O  O367  1  0.30707072  0.58394361  0.93820423  1
  O  O368  1  0.30809171  0.91599043  0.18746164  1
  O  O369  1  0.30847977  0.91638404  0.43793979  1
  O  O370  1  0.30950285  0.91654371  0.68766811  1
  O  O371  1  0.30911374  0.91592374  0.93707285  1
  O  O372  1  0.80901014  0.24978821  0.18814183  1
  O  O373  1  0.80925318  0.25038073  0.43760073  1
  O  O374  1  0.80682799  0.24978917  0.68834814  1
  O  O375  1  0.80866701  0.24980216  0.93722193  1
  O  O376  1  0.80905930  0.58421345  0.18783948  1
  O  O377  1  0.80890696  0.58364085  0.43813276  1
  O  O378  1  0.80958306  0.58386483  0.68727496  1
  O  O379  1  0.80875273  0.58391295  0.93709141  1
  O  O380  1  0.80933977  0.91612191  0.18728945  1
  O  O381  1  0.80719649  0.91627515  0.43911746  1
  O  O382  1  0.80910581  0.91614457  0.68758925  1
  O  O383  1  0.80968457  0.91631533  0.93779211  1
  O  O384  1  0.23476723  0.24935763  0.03727488  1
  O  O385  1  0.23188148  0.25028630  0.28945084  1
  O  O386  1  0.23377845  0.24995668  0.53803736  1
  O  O387  1  0.23398615  0.25086413  0.78800185  1
  O  O388  1  0.23300159  0.58346555  0.03896865  1
  O  O389  1  0.23072647  0.58350806  0.28941435  1
  O  O390  1  0.23349389  0.58387079  0.54033506  1
  O  O391  1  0.23164815  0.58341124  0.78983765  1
  O  O392  1  0.23367185  0.91643989  0.03721169  1
  O  O393  1  0.23290295  0.91610351  0.28750172  1
  O  O394  1  0.23402713  0.91642981  0.53886591  1
  O  O395  1  0.23536585  0.91616035  0.78833053  1
  O  O396  1  0.73380556  0.25042692  0.03768444  1
  O  O397  1  0.73566036  0.24960759  0.28975319  1
  O  O398  1  0.73473588  0.24962593  0.53827791  1
  O  O399  1  0.73201815  0.24945517  0.78866690  1
  O  O400  1  0.73365601  0.58319543  0.03731836  1
  O  O401  1  0.73374077  0.58370527  0.28783652  1
  O  O402  1  0.73382313  0.58392774  0.53837374  1
  O  O403  1  0.73432803  0.58369261  0.78720690  1
  O  O404  1  0.73537026  0.91644031  0.03855571  1
  O  O405  1  0.73489109  0.91728021  0.28836331  1
  O  O406  1  0.73421982  0.91629798  0.54067539  1
  O  O407  1  0.73370978  0.91660376  0.78762513  1
  O  O408  1  0.26579319  0.08331249  0.20952513  1
  O  O409  1  0.26608077  0.08302817  0.45950974  1
  O  O410  1  0.26670147  0.08380631  0.70992651  1
  O  O411  1  0.26786137  0.08289321  0.96013092  1
  O  O412  1  0.26519912  0.41614125  0.20873838  1
  O  O413  1  0.26480202  0.41651648  0.46218937  1
  O  O414  1  0.26698658  0.41679500  0.71047424  1
  O  O415  1  0.26629363  0.41662839  0.96009894  1
  O  O416  1  0.26493368  0.74994331  0.20835313  1
  O  O417  1  0.26665319  0.75064687  0.46269598  1
  O  O418  1  0.26572714  0.74976135  0.71299679  1
  O  O419  1  0.26370456  0.75054296  0.96137747  1
  O  O420  1  0.76835541  0.08348792  0.21056106  1
  O  O421  1  0.76706757  0.08297972  0.46302326  1
  O  O422  1  0.76512118  0.08322263  0.70959386  1
  O  O423  1  0.76660036  0.08347396  0.95955964  1
  O  O424  1  0.76670747  0.41716468  0.21012467  1
  O  O425  1  0.76651168  0.41745269  0.46006196  1
  O  O426  1  0.76553682  0.41678130  0.71118257  1
  O  O427  1  0.76732087  0.41681528  0.95902688  1
  O  O428  1  0.76535376  0.74950901  0.21181122  1
  O  O429  1  0.76565168  0.75018969  0.45936726  1
  O  O430  1  0.76697967  0.75000545  0.71217317  1
  O  O431  1  0.76603354  0.74980849  0.95913201  1
  O  O432  1  0.01547686  0.08310968  0.16622443  1
  O  O433  1  0.01485802  0.08338656  0.41414845  1
  O  O434  1  0.01565619  0.08266493  0.66304463  1
  O  O435  1  0.01586778  0.08345897  0.91549773  1
  O  O436  1  0.01381911  0.41640554  0.16291804  1
  O  O437  1  0.01609941  0.41709946  0.41571624  1
  O  O438  1  0.01816320  0.41734598  0.66472709  1
  O  O439  1  0.01485507  0.41681896  0.91636638  1
  O  O440  1  0.01746623  0.75036540  0.16478105  1
  O  O441  1  0.01670256  0.74914727  0.41539996  1
  O  O442  1  0.01684570  0.75042137  0.66519777  1
  O  O443  1  0.01625240  0.75001762  0.91249234  1
  O  O444  1  0.51483811  0.08301061  0.16328270  1
  O  O445  1  0.51551684  0.08289950  0.41564833  1
  O  O446  1  0.51726870  0.08333903  0.66527754  1
  O  O447  1  0.51561627  0.08278506  0.91551103  1
  O  O448  1  0.51724080  0.41660792  0.16526667  1
  O  O449  1  0.51601190  0.41656858  0.41586863  1
  O  O450  1  0.51561159  0.41613035  0.66593291  1
  O  O451  1  0.51776844  0.41692955  0.91153462  1
  O  O452  1  0.51607493  0.75070734  0.16480961  1
  O  O453  1  0.51652594  0.75016580  0.41557162  1
  O  O454  1  0.51457625  0.75015610  0.66361545  1
  O  O455  1  0.51710134  0.74975714  0.91167604  1
  O  O456  1  0.48483511  0.25025536  0.08431665  1
  O  O457  1  0.48137647  0.24974611  0.33529075  1
  O  O458  1  0.48271484  0.24982319  0.58805188  1
  O  O459  1  0.48418068  0.24964640  0.83792291  1
  O  O460  1  0.48569510  0.58362809  0.08562543  1
  O  O461  1  0.48542310  0.58392013  0.33648685  1
  O  O462  1  0.48527011  0.58344692  0.58772151  1
  O  O463  1  0.48636863  0.58352064  0.83612325  1
  O  O464  1  0.48163619  0.91595598  0.08493246  1
  O  O465  1  0.48129449  0.91617146  0.33596927  1
  O  O466  1  0.48280402  0.91668148  0.58824818  1
  O  O467  1  0.48288231  0.91660398  0.83516331  1
  O  O468  1  0.98198036  0.24957196  0.08811128  1
  O  O469  1  0.98332658  0.25006064  0.33750408  1
  O  O470  1  0.98604263  0.24992251  0.58688808  1
  O  O471  1  0.98185952  0.25027144  0.83472356  1
  O  O472  1  0.98220677  0.58434958  0.08727149  1
  O  O473  1  0.98201408  0.58321338  0.33501794  1
  O  O474  1  0.98335738  0.58400605  0.58815404  1
  O  O475  1  0.98199814  0.58348669  0.83524099  1
  O  O476  1  0.98385827  0.91685665  0.08711266  1
  O  O477  1  0.98557831  0.91647919  0.33726141  1
  O  O478  1  0.98287512  0.91570352  0.58514475  1
  O  O479  1  0.98291417  0.91653497  0.83742696  1
  O  O480  1  0.08546777  0.31457747  0.07725154  1
  O  O481  1  0.08687470  0.31499397  0.32708010  1
  O  O482  1  0.08917310  0.31621925  0.57802498  1
  O  O483  1  0.08620878  0.31489298  0.82701561  1
  O  O484  1  0.08598800  0.64922027  0.07814045  1
  O  O485  1  0.08625540  0.64789665  0.32659374  1
  O  O486  1  0.08675522  0.64924263  0.57893075  1
  O  O487  1  0.08607117  0.64879875  0.82709371  1
  O  O488  1  0.08787344  0.98097248  0.07681873  1
  O  O489  1  0.08902429  0.98165768  0.32747093  1
  O  O490  1  0.08713086  0.98014638  0.57663511  1
  O  O491  1  0.08649959  0.98135707  0.82725740  1
  O  O492  1  0.58910704  0.31458040  0.07652543  1
  O  O493  1  0.58547582  0.31456054  0.32739525  1
  O  O494  1  0.58656992  0.31389687  0.57770522  1
  O  O495  1  0.58753113  0.31571990  0.82721364  1
  O  O496  1  0.58955579  0.64839712  0.07699038  1
  O  O497  1  0.58865727  0.65014842  0.32865867  1
  O  O498  1  0.58897671  0.64840994  0.57758371  1
  O  O499  1  0.59006492  0.64862590  0.82751171  1
  O  O500  1  0.58510515  0.98185308  0.07657736  1
  O  O501  1  0.58531011  0.98064529  0.32720430  1
  O  O502  1  0.58599053  0.98260379  0.57817957  1
  O  O503  1  0.58743941  0.98037075  0.82661209  1
  O  O504  1  0.41153611  0.01696130  0.17102034  1
  O  O505  1  0.41163009  0.01805873  0.42188141  1
  O  O506  1  0.41333642  0.01848112  0.67268058  1
  O  O507  1  0.41143629  0.01800876  0.92199192  1
  O  O508  1  0.41314253  0.35212705  0.17211680  1
  O  O509  1  0.41229003  0.35115892  0.42201282  1
  O  O510  1  0.41155775  0.35113692  0.67323148  1
  O  O511  1  0.41437432  0.35125756  0.92165445  1
  O  O512  1  0.41280627  0.68538116  0.17289433  1
  O  O513  1  0.41245402  0.68543665  0.42370590  1
  O  O514  1  0.41085147  0.68543350  0.67355058  1
  O  O515  1  0.41341209  0.68524500  0.92229181  1
  O  O516  1  0.91178112  0.01777305  0.17283247  1
  O  O517  1  0.91070865  0.01938522  0.42301683  1
  O  O518  1  0.91237404  0.01684153  0.67129038  1
  O  O519  1  0.91206960  0.01859949  0.92172712  1
  O  O520  1  0.91028670  0.35173413  0.17116228  1
  O  O521  1  0.91264752  0.35173582  0.42258068  1
  O  O522  1  0.91440586  0.35232043  0.67300621  1
  O  O523  1  0.91093031  0.35155248  0.92210139  1
  O  O524  1  0.91330077  0.68578152  0.17219047  1
  O  O525  1  0.91299895  0.68382978  0.42216420  1
  O  O526  1  0.91269555  0.68550865  0.67322797  1
  O  O527  1  0.91285533  0.68478138  0.92167433  1
  O  O528  1  0.16215703  0.01841320  0.20269514  1
  O  O529  1  0.16248465  0.01778977  0.45338150  1
  O  O530  1  0.16298118  0.01902353  0.70255732  1
  O  O531  1  0.16436606  0.01706206  0.95202664  1
  O  O532  1  0.16136341  0.35112493  0.20279988  1
  O  O533  1  0.16159375  0.35070716  0.45396597  1
  O  O534  1  0.16290654  0.35198825  0.70249603  1
  O  O535  1  0.16278214  0.35111737  0.95184021  1
  O  O536  1  0.16079747  0.68494423  0.20223854  1
  O  O537  1  0.16289220  0.68620673  0.45337943  1
  O  O538  1  0.16207730  0.68419773  0.70296926  1
  O  O539  1  0.15945394  0.68660795  0.95190910  1
  O  O540  1  0.66450067  0.01841248  0.20198710  1
  O  O541  1  0.66365148  0.01788073  0.45243742  1
  O  O542  1  0.66138598  0.01777977  0.70219211  1
  O  O543  1  0.66289249  0.01868101  0.95240180  1
  O  O544  1  0.66326274  0.35210538  0.20273297  1
  O  O545  1  0.66287561  0.35244489  0.45240075  1
  O  O546  1  0.66210596  0.35134323  0.70324121  1
  O  O547  1  0.66319841  0.35178360  0.95182296  1
  O  O548  1  0.66181195  0.68447616  0.20378435  1
  O  O549  1  0.66204894  0.68424039  0.45277534  1
  O  O550  1  0.66320253  0.68540548  0.70313274  1
  O  O551  1  0.66230122  0.68430433  0.95203383  1
  O  O552  1  0.33823696  0.31426004  0.04689818  1
  O  O553  1  0.33587109  0.31530564  0.29827762  1
  O  O554  1  0.33764212  0.31473871  0.54827414  1
  O  O555  1  0.33773887  0.31650180  0.79720148  1
  O  O556  1  0.33639340  0.64891787  0.04772966  1
  O  O557  1  0.33472727  0.64821248  0.29785860  1
  O  O558  1  0.33699815  0.64949349  0.54776957  1
  O  O559  1  0.33558705  0.64836600  0.79804242  1
  O  O560  1  0.33717016  0.98219454  0.04682630  1
  O  O561  1  0.33664287  0.98100703  0.29761117  1
  O  O562  1  0.33805143  0.98066604  0.54805287  1
  O  O563  1  0.33953332  0.98015966  0.79763653  1
  O  O564  1  0.83708763  0.31639240  0.04672055  1
  O  O565  1  0.83976479  0.31368487  0.29805506  1
  O  O566  1  0.83825823  0.31436379  0.54784763  1
  O  O567  1  0.83595633  0.31461218  0.79800843  1
  O  O568  1  0.83749300  0.64749334  0.04779574  1
  O  O569  1  0.83747443  0.64857041  0.29825977  1
  O  O570  1  0.83768279  0.64871186  0.54813716  1
  O  O571  1  0.83767884  0.64950756  0.79742393  1
  O  O572  1  0.83940890  0.98109692  0.04751166  1
  O  O573  1  0.83852211  0.98237335  0.29662525  1
  O  O574  1  0.83790848  0.98226871  0.54820582  1
  O  O575  1  0.83780872  0.98064301  0.79772560  1
  O  O576  1  0.41105007  0.14719157  0.17150833  1
  O  O577  1  0.41189663  0.14833703  0.42207134  1
  O  O578  1  0.41359240  0.14857464  0.67290322  1
  O  O579  1  0.41178044  0.14822815  0.92249581  1
  O  O580  1  0.41377006  0.48221373  0.17280087  1
  O  O581  1  0.41230163  0.48146500  0.42266776  1
  O  O582  1  0.41179389  0.48113812  0.67433801  1
  O  O583  1  0.41416295  0.48144234  0.92233834  1
  O  O584  1  0.41202599  0.81549195  0.17156452  1
  O  O585  1  0.41243706  0.81542136  0.42303369  1
  O  O586  1  0.41074138  0.81538261  0.67242113  1
  O  O587  1  0.41355987  0.81531194  0.92115389  1
  O  O588  1  0.91135426  0.14792624  0.17306362  1
  O  O589  1  0.91151872  0.14943474  0.42247666  1
  O  O590  1  0.91188487  0.14700687  0.67182960  1
  O  O591  1  0.91228344  0.14886355  0.92151790  1
  O  O592  1  0.91070372  0.48214155  0.17100598  1
  O  O593  1  0.91238049  0.48214075  0.42211678  1
  O  O594  1  0.91403775  0.48231715  0.67237565  1
  O  O595  1  0.91079900  0.48174802  0.92201542  1
  O  O596  1  0.91402865  0.81584448  0.17240260  1
  O  O597  1  0.91304607  0.81395927  0.42288553  1
  O  O598  1  0.91282101  0.81548344  0.67307297  1
  O  O599  1  0.91271251  0.81496260  0.92187337  1
  O  O600  1  0.08557643  0.18464734  0.07741956  1
  O  O601  1  0.08696570  0.18507700  0.32686371  1
  O  O602  1  0.09010374  0.18604621  0.57728804  1
  O  O603  1  0.08598628  0.18503970  0.82659915  1
  O  O604  1  0.08543685  0.51909552  0.07707769  1
  O  O605  1  0.08581194  0.51812786  0.32641824  1
  O  O606  1  0.08698246  0.51902332  0.57855234  1
  O  O607  1  0.08618304  0.51892333  0.82695047  1
  O  O608  1  0.08726733  0.85100119  0.07760071  1
  O  O609  1  0.08929398  0.85173047  0.32761888  1
  O  O610  1  0.08683941  0.85019440  0.57764817  1
  O  O611  1  0.08650429  0.85138811  0.82807284  1
  O  O612  1  0.58856788  0.18468217  0.07653867  1
  O  O613  1  0.58515358  0.18450020  0.32728505  1
  O  O614  1  0.58600386  0.18382188  0.57810470  1
  O  O615  1  0.58820368  0.18567797  0.82743071  1
  O  O616  1  0.58948512  0.51855450  0.07682860  1
  O  O617  1  0.58969007  0.52007253  0.32759367  1
  O  O618  1  0.58894724  0.51847300  0.57770925  1
  O  O619  1  0.59018480  0.51848897  0.82750488  1
  O  O620  1  0.58592151  0.85199466  0.07682177  1
  O  O621  1  0.58502473  0.85056892  0.32780284  1
  O  O622  1  0.58651113  0.85249654  0.57774674  1
  O  O623  1  0.58653599  0.85048264  0.82617468  1
  O  O624  1  0.33815585  0.18400955  0.04598953  1
  O  O625  1  0.33586360  0.18539927  0.29845329  1
  O  O626  1  0.33741144  0.18482767  0.54819357  1
  O  O627  1  0.33812036  0.18652556  0.79788111  1
  O  O628  1  0.33691812  0.51872534  0.04751834  1
  O  O629  1  0.33455822  0.51824270  0.29781796  1
  O  O630  1  0.33741275  0.51942003  0.54804708  1
  O  O631  1  0.33563236  0.51823601  0.79771991  1
  O  O632  1  0.33750394  0.85213962  0.04755382  1
  O  O633  1  0.33660801  0.85110688  0.29767015  1
  O  O634  1  0.33769263  0.85075942  0.54766276  1
  O  O635  1  0.33865162  0.85008939  0.79726600  1
  O  O636  1  0.83793725  0.18639595  0.04776065  1
  O  O637  1  0.83913172  0.18369106  0.29737764  1
  O  O638  1  0.83828232  0.18422542  0.54704219  1
  O  O639  1  0.83604264  0.18477888  0.79805429  1
  O  O640  1  0.83713026  0.51748983  0.04659327  1
  O  O641  1  0.83740982  0.51877511  0.29796158  1
  O  O642  1  0.83764051  0.51890201  0.54842623  1
  O  O643  1  0.83824859  0.51950168  0.79747628  1
  O  O644  1  0.83893759  0.85121791  0.04770412  1
  O  O645  1  0.83830599  0.85229275  0.29753508  1
  O  O646  1  0.83853239  0.85236676  0.54856998  1
  O  O647  1  0.83726410  0.85068889  0.79764724  1
  O  O648  1  0.16228727  0.14881313  0.20250078  1
  O  O649  1  0.16231065  0.14807803  0.45332613  1
  O  O650  1  0.16306244  0.14926860  0.70323607  1
  O  O651  1  0.16375641  0.14718394  0.95189926  1
  O  O652  1  0.16145182  0.48151096  0.20280507  1
  O  O653  1  0.16109504  0.48093317  0.45334964  1
  O  O654  1  0.16297889  0.48205953  0.70250240  1
  O  O655  1  0.16229007  0.48121358  0.95220409  1
  O  O656  1  0.16107647  0.81503651  0.20217080  1
  O  O657  1  0.16334044  0.81625643  0.45375580  1
  O  O658  1  0.16192140  0.81421096  0.70225583  1
  O  O659  1  0.16042807  0.81663937  0.95253278  1
  O  O660  1  0.66450266  0.14847191  0.20264165  1
  O  O661  1  0.66356237  0.14801061  0.45236719  1
  O  O662  1  0.66105337  0.14797500  0.70223919  1
  O  O663  1  0.66294453  0.14881817  0.95290092  1
  O  O664  1  0.66319485  0.48245775  0.20292956  1
  O  O665  1  0.66283840  0.48273969  0.45336763  1
  O  O666  1  0.66196938  0.48172389  0.70364771  1
  O  O667  1  0.66333413  0.48176676  0.95169980  1
  O  O668  1  0.66212008  0.81476094  0.20267183  1
  O  O669  1  0.66129760  0.81422674  0.45181047  1
  O  O670  1  0.66350497  0.81550408  0.70274300  1
  O  O671  1  0.66186074  0.81432421  0.95133499  1
