# generated using pymatgen
data_Na2MnFe(PO4)2
_symmetry_space_group_name_H-M   'P 1'
_cell_length_a   21.08128771
_cell_length_b   18.93277056
_cell_length_c   20.04073383
_cell_angle_alpha   90.00006079
_cell_angle_beta   89.99949407
_cell_angle_gamma   90.00081675
_symmetry_Int_Tables_number   1
_chemical_formula_structural   Na2MnFe(PO4)2
_chemical_formula_sum   'Na96 Mn48 Fe48 P96 O384'
_cell_volume   7998.80164477
_cell_formula_units_Z   48
loop_
 _symmetry_equiv_pos_site_id
 _symmetry_equiv_pos_as_xyz
  1  'x, y, z'
loop_
 _atom_site_type_symbol
 _atom_site_label
 _atom_site_symmetry_multiplicity
 _atom_site_fract_x
 _atom_site_fract_y
 _atom_site_fract_z
 _atom_site_occupancy
  Na  Na0  1  -0.00114142  -0.00025553  -0.00011346  1
  Na  Na1  1  -0.00196556  0.00005175  0.24929067  1
  Na  Na2  1  -0.00182902  0.00027989  0.49989159  1
  Na  Na3  1  0.00019072  0.00038682  0.75039024  1
  Na  Na4  1  0.00008383  0.33342588  -0.00011297  1
  Na  Na5  1  -0.00013804  0.33407070  0.24937462  1
  Na  Na6  1  0.00074001  0.33340850  0.50052493  1
  Na  Na7  1  0.00180298  0.33372763  0.75015902  1
  Na  Na8  1  0.00159543  0.66694079  -0.00110066  1
  Na  Na9  1  -0.00212612  0.66541966  0.25066629  1
  Na  Na10  1  0.00027289  0.66663860  0.50045792  1
  Na  Na11  1  0.00086740  0.66630424  0.75042256  1
  Na  Na12  1  0.49904339  -0.00031756  -0.00001657  1
  Na  Na13  1  0.50230404  0.00119980  0.24978289  1
  Na  Na14  1  0.50176240  0.00022672  0.50129212  1
  Na  Na15  1  0.49940867  -0.00031955  0.74896667  1
  Na  Na16  1  0.49942849  0.33311809  0.00047046  1
  Na  Na17  1  0.50067210  0.33295714  0.24989805  1
  Na  Na18  1  0.50161511  0.33337955  0.49860318  1
  Na  Na19  1  0.50065670  0.33351495  0.75098141  1
  Na  Na20  1  0.49731078  0.66618288  0.00030943  1
  Na  Na21  1  0.49949489  0.66631526  0.24984153  1
  Na  Na22  1  0.50149806  0.66681910  0.49949592  1
  Na  Na23  1  0.49825593  0.66594781  0.75026120  1
  Na  Na24  1  0.24867124  -0.00091803  0.12441416  1
  Na  Na25  1  0.24951368  0.00039410  0.37579639  1
  Na  Na26  1  0.24898842  0.00010206  0.62482016  1
  Na  Na27  1  0.24970188  0.00026617  0.87487275  1
  Na  Na28  1  0.25314703  0.33454342  0.12581792  1
  Na  Na29  1  0.24956684  0.33297336  0.37523222  1
  Na  Na30  1  0.24936173  0.33353565  0.62487796  1
  Na  Na31  1  0.24898535  0.33260583  0.87442106  1
  Na  Na32  1  0.25086288  0.66668217  0.12476265  1
  Na  Na33  1  0.25014465  0.66601714  0.37431100  1
  Na  Na34  1  0.24923471  0.66614420  0.62608189  1
  Na  Na35  1  0.24936048  0.66598899  0.87422939  1
  Na  Na36  1  0.75147265  0.00070649  0.12534150  1
  Na  Na37  1  0.75060020  0.00030998  0.37369782  1
  Na  Na38  1  0.74998367  -0.00033813  0.62530997  1
  Na  Na39  1  0.75189721  0.00059305  0.87564813  1
  Na  Na40  1  0.74863707  0.33306729  0.12453532  1
  Na  Na41  1  0.74708118  0.33223386  0.37505548  1
  Na  Na42  1  0.74868698  0.33301075  0.62524447  1
  Na  Na43  1  0.74966413  0.33325999  0.87453019  1
  Na  Na44  1  0.75192772  0.66651776  0.12467561  1
  Na  Na45  1  0.75123728  0.66689765  0.37523728  1
  Na  Na46  1  0.74955813  0.66648164  0.62475883  1
  Na  Na47  1  0.75089437  0.66708180  0.87599290  1
  Na  Na48  1  -0.00213611  0.16725371  -0.00075982  1
  Na  Na49  1  -0.00256925  0.16677619  0.24997914  1
  Na  Na50  1  -0.00218977  0.16682326  0.50007029  1
  Na  Na51  1  -0.00094344  0.16639098  0.74999812  1
  Na  Na52  1  0.00035358  0.50029151  -0.00012995  1
  Na  Na53  1  -0.00130572  0.50054897  0.24960855  1
  Na  Na54  1  0.00205538  0.49984777  0.50086010  1
  Na  Na55  1  0.00421103  0.49885036  0.75062645  1
  Na  Na56  1  0.00148582  0.83328105  -0.00062813  1
  Na  Na57  1  -0.00054454  0.83370853  0.24984527  1
  Na  Na58  1  -0.00148779  0.83413612  0.49992419  1
  Na  Na59  1  0.00058010  0.83357966  0.75067886  1
  Na  Na60  1  0.49908743  0.16724876  0.00033378  1
  Na  Na61  1  0.50199665  0.16604133  0.24984221  1
  Na  Na62  1  0.50062634  0.16706215  0.50002703  1
  Na  Na63  1  0.49922986  0.16697305  0.75066673  1
  Na  Na64  1  0.49722540  0.50042384  0.00046552  1
  Na  Na65  1  0.49923156  0.49987178  0.24989302  1
  Na  Na66  1  0.50143350  0.49924915  0.49891374  1
  Na  Na67  1  0.49807429  0.50044480  0.75009406  1
  Na  Na68  1  0.49860147  0.83382358  -0.00007482  1
  Na  Na69  1  0.50143853  0.83297277  0.24990397  1
  Na  Na70  1  0.50260718  0.83345300  0.50045833  1
  Na  Na71  1  0.50154360  0.83273308  0.74957875  1
  Na  Na72  1  0.25236676  0.16590848  0.12560910  1
  Na  Na73  1  0.25151393  0.16620455  0.37489937  1
  Na  Na74  1  0.24987768  0.16664137  0.62479134  1
  Na  Na75  1  0.24963753  0.16684621  0.87428721  1
  Na  Na76  1  0.25112063  0.49988299  0.12517267  1
  Na  Na77  1  0.24960345  0.49984530  0.37493592  1
  Na  Na78  1  0.24764649  0.50047673  0.62570228  1
  Na  Na79  1  0.24935593  0.50026550  0.87399883  1
  Na  Na80  1  0.24911609  0.83391625  0.12415060  1
  Na  Na81  1  0.24864137  0.83397802  0.37560561  1
  Na  Na82  1  0.24986372  0.83342386  0.62535984  1
  Na  Na83  1  0.24895572  0.83421048  0.87528047  1
  Na  Na84  1  0.75074811  0.16623244  0.12523868  1
  Na  Na85  1  0.74890395  0.16703999  0.37428616  1
  Na  Na86  1  0.75202789  0.16569392  0.62570323  1
  Na  Na87  1  0.75156057  0.16660193  0.87509772  1
  Na  Na88  1  0.75142998  0.49960774  0.12511074  1
  Na  Na89  1  0.75013822  0.49993073  0.37499964  1
  Na  Na90  1  0.74771677  0.50106183  0.62469283  1
  Na  Na91  1  0.75129728  0.49927937  0.87571977  1
  Na  Na92  1  0.75108903  0.83246385  0.12406964  1
  Na  Na93  1  0.74965952  0.83352789  0.37484849  1
  Na  Na94  1  0.74853447  0.83387721  0.62488270  1
  Na  Na95  1  0.74943873  0.83326138  0.87539570  1
  Mn  Mn96  1  0.10782386  0.08379801  0.87303222  1
  Mn  Mn97  1  0.10735699  0.74975072  0.37254430  1
  Mn  Mn98  1  0.14158836  0.91654333  0.49810427  1
  Mn  Mn99  1  0.39264236  0.91705015  0.37709216  1
  Mn  Mn100  1  0.35863603  0.08286951  0.25239677  1
  Mn  Mn101  1  0.35796859  0.75062866  0.25218184  1
  Mn  Mn102  1  0.35763471  0.75064640  0.75190594  1
  Mn  Mn103  1  0.89241966  0.58319213  0.62771001  1
  Mn  Mn104  1  0.64303263  0.58328490  0.24699876  1
  Mn  Mn105  1  0.60852936  0.08388229  0.62262529  1
  Mn  Mn106  1  0.89256788  0.25096733  0.87713208  1
  Mn  Mn107  1  0.60869139  0.75028693  0.37217656  1
  Mn  Mn108  1  0.89116713  0.25134505  0.37743334  1
  Mn  Mn109  1  0.89269702  0.91604553  0.87694159  1
  Mn  Mn110  1  0.14196914  0.25010012  0.49772375  1
  Mn  Mn111  1  0.10792701  0.41639416  0.12270726  1
  Mn  Mn112  1  0.64114532  0.58393966  0.74839471  1
  Mn  Mn113  1  0.64298970  0.91636732  0.24687130  1
  Mn  Mn114  1  0.60814306  0.41633998  0.37222418  1
  Mn  Mn115  1  0.14232599  0.24935982  0.24734095  1
  Mn  Mn116  1  0.85738684  0.41609852  0.50282236  1
  Mn  Mn117  1  0.35806920  0.75016086  0.50270520  1
  Mn  Mn118  1  0.39315684  0.91638953  0.62723799  1
  Mn  Mn119  1  0.89362706  0.58302715  0.87655081  1
  Mn  Mn120  1  0.64204212  0.58266742  0.99810476  1
  Mn  Mn121  1  0.10729861  0.75058820  0.62266403  1
  Mn  Mn122  1  0.60763524  0.08279954  0.87331593  1
  Mn  Mn123  1  0.85820865  0.41740007  0.75189572  1
  Mn  Mn124  1  0.10717807  0.08413425  0.37285435  1
  Mn  Mn125  1  0.39225469  0.58375956  0.37799632  1
  Mn  Mn126  1  0.35706673  0.41623332  0.75131598  1
  Mn  Mn127  1  0.39337448  0.24912258  0.37719619  1
  Mn  Mn128  1  0.64233805  0.24952285  0.74764763  1
  Mn  Mn129  1  0.60680649  0.74985624  0.87310230  1
  Mn  Mn130  1  0.10754158  0.74992588  0.12283183  1
  Mn  Mn131  1  0.89173731  0.91624503  0.37720412  1
  Mn  Mn132  1  0.85885700  0.74972672  0.00247868  1
  Mn  Mn133  1  0.10674743  0.08398476  0.12296346  1
  Mn  Mn134  1  0.39205563  0.91689382  0.12770664  1
  Mn  Mn135  1  0.35706345  0.08303769  0.75161784  1
  Mn  Mn136  1  0.60723659  0.41738159  0.87360621  1
  Mn  Mn137  1  0.85739158  0.41674791  0.25257831  1
  Mn  Mn138  1  0.85717093  0.75040988  0.50294627  1
  Mn  Mn139  1  0.14267434  0.24998464  0.99890987  1
  Mn  Mn140  1  0.39131840  0.24966124  0.87765925  1
  Mn  Mn141  1  0.64245396  0.91709489  0.99769792  1
  Mn  Mn142  1  0.14217553  0.58375932  0.24754897  1
  Mn  Mn143  1  0.35745129  0.41653436  0.50268673  1
  Fe  Fe144  1  0.35805290  0.08331777  0.50205004  1
  Fe  Fe145  1  0.10856814  0.74982672  0.87296897  1
  Fe  Fe146  1  0.60784228  0.08345188  0.12231995  1
  Fe  Fe147  1  0.85772015  0.75009541  0.25116962  1
  Fe  Fe148  1  0.35733832  0.08316865  0.00194269  1
  Fe  Fe149  1  0.39182087  0.91633508  0.87623566  1
  Fe  Fe150  1  0.89164158  0.91695735  0.62741763  1
  Fe  Fe151  1  0.85733831  0.08397853  0.00231647  1
  Fe  Fe152  1  0.60712631  0.41708344  0.62381294  1
  Fe  Fe153  1  0.14328801  0.58340062  0.99863350  1
  Fe  Fe154  1  0.85798918  0.41620102  0.00188140  1
  Fe  Fe155  1  0.35767221  0.41650208  0.25187558  1
  Fe  Fe156  1  0.14186591  0.91699394  0.24828119  1
  Fe  Fe157  1  0.39245748  0.58292784  0.12642304  1
  Fe  Fe158  1  0.39093680  0.58370788  0.87723351  1
  Fe  Fe159  1  0.85668482  0.08349103  0.50160895  1
  Fe  Fe160  1  0.64267093  0.24991433  0.24702923  1
  Fe  Fe161  1  0.10851562  0.41663723  0.87408208  1
  Fe  Fe162  1  0.60836022  0.08308795  0.37379611  1
  Fe  Fe163  1  0.14327650  0.58360092  0.74781213  1
  Fe  Fe164  1  0.35714134  0.41641884  0.00182747  1
  Fe  Fe165  1  0.60653419  0.41705635  0.12279570  1
  Fe  Fe166  1  0.89307151  0.58347871  0.12640134  1
  Fe  Fe167  1  0.39380090  0.25022475  0.12663848  1
  Fe  Fe168  1  0.89243792  0.25011732  0.62669037  1
  Fe  Fe169  1  0.89295080  0.58276170  0.37736553  1
  Fe  Fe170  1  0.89137095  0.25051787  0.12676307  1
  Fe  Fe171  1  0.60794092  0.74872162  0.62377896  1
  Fe  Fe172  1  0.64227955  0.58334022  0.49822701  1
  Fe  Fe173  1  0.10744194  0.41573285  0.62300595  1
  Fe  Fe174  1  0.85700431  0.75016428  0.75142090  1
  Fe  Fe175  1  0.14258323  0.58365931  0.49838549  1
  Fe  Fe176  1  0.64342751  0.91733098  0.49816955  1
  Fe  Fe177  1  0.64282999  0.91654209  0.74898557  1
  Fe  Fe178  1  0.14270442  0.91665026  0.99833227  1
  Fe  Fe179  1  0.85756379  0.08259607  0.75146021  1
  Fe  Fe180  1  0.10589600  0.08357573  0.62299779  1
  Fe  Fe181  1  0.14201182  0.24930446  0.74726747  1
  Fe  Fe182  1  0.10717798  0.41659133  0.37309362  1
  Fe  Fe183  1  0.35645882  0.75025303  0.00165286  1
  Fe  Fe184  1  0.64311096  0.25003669  0.99882709  1
  Fe  Fe185  1  0.85615449  0.08342516  0.25144553  1
  Fe  Fe186  1  0.39308041  0.25069121  0.62598880  1
  Fe  Fe187  1  0.89296151  0.91625372  0.12658793  1
  Fe  Fe188  1  0.64274831  0.24937173  0.49906928  1
  Fe  Fe189  1  0.60749560  0.74942085  0.12295147  1
  Fe  Fe190  1  0.14236207  0.91733167  0.74770437  1
  Fe  Fe191  1  0.39286925  0.58269773  0.62560046  1
  P  P192  1  0.05107298  0.24976916  0.10994311  1
  P  P193  1  0.05276427  0.25088205  0.35973041  1
  P  P194  1  0.05294902  0.24908697  0.61118122  1
  P  P195  1  0.05452895  0.25070436  0.85967534  1
  P  P196  1  0.05296608  0.58335099  0.10931485  1
  P  P197  1  0.05348983  0.58235681  0.36112664  1
  P  P198  1  0.05536474  0.58291994  0.61081477  1
  P  P199  1  0.05680516  0.58316277  0.86093834  1
  P  P200  1  0.05357239  0.91706210  0.11032315  1
  P  P201  1  0.05336465  0.91720128  0.35920031  1
  P  P202  1  0.05220253  0.91790648  0.61118638  1
  P  P203  1  0.05581642  0.91628134  0.86060614  1
  P  P204  1  0.55460093  0.25029234  0.11054549  1
  P  P205  1  0.55627704  0.24852110  0.36026406  1
  P  P206  1  0.55296478  0.25094208  0.60973027  1
  P  P207  1  0.55433848  0.24984739  0.86157010  1
  P  P208  1  0.55206472  0.58296222  0.11015460  1
  P  P209  1  0.55476397  0.58334949  0.36020107  1
  P  P210  1  0.55268750  0.58296718  0.60970379  1
  P  P211  1  0.55073694  0.58336655  0.86060362  1
  P  P212  1  0.55369123  0.91654848  0.10978897  1
  P  P213  1  0.55537074  0.91789252  0.36092809  1
  P  P214  1  0.55625504  0.91582596  0.61101707  1
  P  P215  1  0.55219480  0.91677441  0.85948369  1
  P  P216  1  0.44713214  0.08412528  0.13876617  1
  P  P217  1  0.44833805  0.08297090  0.39094949  1
  P  P218  1  0.44596284  0.08455603  0.63889944  1
  P  P219  1  0.44550253  0.08226690  0.89048035  1
  P  P220  1  0.44565309  0.41629211  0.13913833  1
  P  P221  1  0.44573837  0.41628776  0.38889358  1
  P  P222  1  0.44774234  0.41634949  0.63939467  1
  P  P223  1  0.44502315  0.41707948  0.89064660  1
  P  P224  1  0.44637430  0.74946054  0.13871709  1
  P  P225  1  0.44734755  0.75063736  0.39040153  1
  P  P226  1  0.44828178  0.74899274  0.63974632  1
  P  P227  1  0.44499333  0.75040802  0.89040304  1
  P  P228  1  0.94383535  0.08357197  0.13911487  1
  P  P229  1  0.94393459  0.08372290  0.38955164  1
  P  P230  1  0.94487321  0.08328098  0.63926751  1
  P  P231  1  0.94472241  0.08318483  0.88947556  1
  P  P232  1  0.94523699  0.41678221  0.13871669  1
  P  P233  1  0.94753591  0.41760663  0.39053468  1
  P  P234  1  0.94821709  0.41618349  0.64014545  1
  P  P235  1  0.94813268  0.41696768  0.89039117  1
  P  P236  1  0.94648947  0.74988475  0.14023819  1
  P  P237  1  0.94514063  0.74903707  0.38919857  1
  P  P238  1  0.94570940  0.75091516  0.64101323  1
  P  P239  1  0.94754132  0.74980991  0.88852159  1
  P  P240  1  0.19665656  0.08255037  0.23487533  1
  P  P241  1  0.19649742  0.08365383  0.48615697  1
  P  P242  1  0.19509766  0.08332409  0.73414845  1
  P  P243  1  0.19769588  0.08322506  0.98546958  1
  P  P244  1  0.19682256  0.41659242  0.23590627  1
  P  P245  1  0.19451750  0.41735184  0.48547575  1
  P  P246  1  0.19428367  0.41617178  0.73567345  1
  P  P247  1  0.19778218  0.41713230  0.98497778  1
  P  P248  1  0.19659063  0.75089811  0.23470615  1
  P  P249  1  0.19650658  0.74906464  0.48510213  1
  P  P250  1  0.19537323  0.75059380  0.73620243  1
  P  P251  1  0.19689822  0.74971785  0.98478401  1
  P  P252  1  0.69571079  0.08389464  0.23520865  1
  P  P253  1  0.69758926  0.08337016  0.48474090  1
  P  P254  1  0.69794790  0.08247349  0.73565169  1
  P  P255  1  0.69698189  0.08431614  0.98623097  1
  P  P256  1  0.69586121  0.41619632  0.23389068  1
  P  P257  1  0.69493687  0.41652840  0.48642448  1
  P  P258  1  0.69588462  0.41713597  0.73465682  1
  P  P259  1  0.69674615  0.41592824  0.98636525  1
  P  P260  1  0.69793364  0.74963030  0.23379756  1
  P  P261  1  0.69521726  0.74999915  0.48630507  1
  P  P262  1  0.69695098  0.75053511  0.73504718  1
  P  P263  1  0.69574998  0.74953662  0.98599695  1
  P  P264  1  0.30413885  0.24994092  0.01579264  1
  P  P265  1  0.30527425  0.25052857  0.26400243  1
  P  P266  1  0.30420114  0.24935688  0.51551974  1
  P  P267  1  0.30288948  0.25000733  0.76322643  1
  P  P268  1  0.30378379  0.58342103  0.01403354  1
  P  P269  1  0.30510393  0.58254527  0.26380532  1
  P  P270  1  0.30230255  0.58309032  0.51602430  1
  P  P271  1  0.30421236  0.58314558  0.76371380  1
  P  P272  1  0.30341366  0.91663122  0.01350976  1
  P  P273  1  0.30176544  0.91682236  0.26536840  1
  P  P274  1  0.30346930  0.91747131  0.51535304  1
  P  P275  1  0.30246594  0.91691929  0.76527497  1
  P  P276  1  0.80314374  0.25037738  0.01529816  1
  P  P277  1  0.80270156  0.24972208  0.26377982  1
  P  P278  1  0.80235852  0.24933002  0.51556532  1
  P  P279  1  0.80495816  0.24967374  0.76381568  1
  P  P280  1  0.80464457  0.58228523  0.01530513  1
  P  P281  1  0.80563772  0.58418139  0.26460052  1
  P  P282  1  0.80303529  0.58290948  0.51420214  1
  P  P283  1  0.80303302  0.58435156  0.76526690  1
  P  P284  1  0.80446959  0.91717366  0.01546520  1
  P  P285  1  0.80488808  0.91624141  0.26319783  1
  P  P286  1  0.80278887  0.91759727  0.51541137  1
  P  P287  1  0.80347012  0.91613199  0.76407480  1
  O  O288  1  0.05544542  0.24956108  0.18660279  1
  O  O289  1  0.05603949  0.24972534  0.43652776  1
  O  O290  1  0.05742663  0.24897555  0.68785614  1
  O  O291  1  0.05749692  0.24974888  0.93647701  1
  O  O292  1  0.05650911  0.58327517  0.18607983  1
  O  O293  1  0.05817622  0.58344609  0.43778595  1
  O  O294  1  0.05955678  0.58378853  0.68761681  1
  O  O295  1  0.06040352  0.58336992  0.93777032  1
  O  O296  1  0.05812289  0.91712170  0.18701358  1
  O  O297  1  0.05643331  0.91721528  0.43607134  1
  O  O298  1  0.05732168  0.91729929  0.68782810  1
  O  O299  1  0.05993525  0.91703235  0.93746540  1
  O  O300  1  0.55880018  0.24990215  0.18732717  1
  O  O301  1  0.56025019  0.24929720  0.43705793  1
  O  O302  1  0.55624851  0.24973162  0.68652216  1
  O  O303  1  0.55899947  0.24975073  0.93828965  1
  O  O304  1  0.55604004  0.58298375  0.18681761  1
  O  O305  1  0.55932428  0.58330130  0.43698373  1
  O  O306  1  0.55539398  0.58319513  0.68648516  1
  O  O307  1  0.55524313  0.58320361  0.93721211  1
  O  O308  1  0.55700288  0.91672610  0.18658680  1
  O  O309  1  0.55954473  0.91744584  0.43771726  1
  O  O310  1  0.56006882  0.91692715  0.68782942  1
  O  O311  1  0.55633413  0.91700447  0.93618718  1
  O  O312  1  0.44151550  0.08319131  0.06217031  1
  O  O313  1  0.44449588  0.08295995  0.31413849  1
  O  O314  1  0.44205638  0.08365615  0.56217970  1
  O  O315  1  0.44253997  0.08306186  0.81364618  1
  O  O316  1  0.44094680  0.41641138  0.06242058  1
  O  O317  1  0.44154999  0.41629058  0.31212009  1
  O  O318  1  0.44456743  0.41619036  0.56267447  1
  O  O319  1  0.44213105  0.41623902  0.81383945  1
  O  O320  1  0.44085633  0.75033055  0.06209404  1
  O  O321  1  0.44376138  0.75059659  0.31358630  1
  O  O322  1  0.44480874  0.75006973  0.56305960  1
  O  O323  1  0.44272922  0.75046126  0.81355197  1
  O  O324  1  0.94068503  0.08384094  0.06220516  1
  O  O325  1  0.93943216  0.08370775  0.31277718  1
  O  O326  1  0.94036804  0.08317964  0.56252308  1
  O  O327  1  0.94066607  0.08281343  0.81266783  1
  O  O328  1  0.94159238  0.41628228  0.06194126  1
  O  O329  1  0.94346994  0.41688101  0.31380388  1
  O  O330  1  0.94401441  0.41672995  0.56347325  1
  O  O331  1  0.94423146  0.41693653  0.81369390  1
  O  O332  1  0.94470025  0.75009571  0.06333761  1
  O  O333  1  0.94132240  0.74990891  0.31245527  1
  O  O334  1  0.94260805  0.75036155  0.56414474  1
  O  O335  1  0.94198404  0.75005407  0.81196556  1
  O  O336  1  0.19357624  0.08367287  0.06211227  1
  O  O337  1  0.19335604  0.08370619  0.31164790  1
  O  O338  1  0.19078175  0.08376688  0.56274427  1
  O  O339  1  0.19283022  0.08371070  0.81097980  1
  O  O340  1  0.19428091  0.41665607  0.06175053  1
  O  O341  1  0.19171337  0.41649830  0.31256240  1
  O  O342  1  0.19029497  0.41612744  0.56232877  1
  O  O343  1  0.19142966  0.41594384  0.81249964  1
  O  O344  1  0.19351549  0.74964579  0.06152021  1
  O  O345  1  0.19337119  0.74986783  0.31147867  1
  O  O346  1  0.19337521  0.74985041  0.56191642  1
  O  O347  1  0.19227497  0.75042714  0.81298787  1
  O  O348  1  0.69199304  0.08349700  0.06292480  1
  O  O349  1  0.69170516  0.08321593  0.31188915  1
  O  O350  1  0.69449809  0.08345875  0.56157179  1
  O  O351  1  0.69428027  0.08321648  0.81231191  1
  O  O352  1  0.69131434  0.41715899  0.06296424  1
  O  O353  1  0.69309800  0.41699060  0.31072872  1
  O  O354  1  0.69094727  0.41694047  0.56318010  1
  O  O355  1  0.69284338  0.41713581  0.81149375  1
  O  O356  1  0.69095652  0.74911057  0.06271546  1
  O  O357  1  0.69413223  0.74967958  0.31058248  1
  O  O358  1  0.69142325  0.74924550  0.56306433  1
  O  O359  1  0.69332045  0.74964596  0.81181566  1
  O  O360  1  0.30988852  0.24998065  0.18727560  1
  O  O361  1  0.30759383  0.24982619  0.43871224  1
  O  O362  1  0.30840915  0.25049446  0.68666964  1
  O  O363  1  0.30578916  0.24980786  0.93887360  1
  O  O364  1  0.30937807  0.58312631  0.18697507  1
  O  O365  1  0.30624600  0.58290363  0.43924951  1
  O  O366  1  0.30952759  0.58305464  0.68708121  1
  O  O367  1  0.30741283  0.58332356  0.93720665  1
  O  O368  1  0.30591624  0.91682866  0.18859517  1
  O  O369  1  0.30662523  0.91702019  0.43859688  1
  O  O370  1  0.30704058  0.91665546  0.68861186  1
  O  O371  1  0.30773858  0.91686674  0.93687171  1
  O  O372  1  0.80746282  0.25059822  0.18714184  1
  O  O373  1  0.80542515  0.25064177  0.43879690  1
  O  O374  1  0.80910560  0.25059394  0.68703821  1
  O  O375  1  0.80658284  0.25080223  0.93854194  1
  O  O376  1  0.80973167  0.58323297  0.18783482  1
  O  O377  1  0.80825219  0.58253806  0.43755348  1
  O  O378  1  0.80608284  0.58347670  0.68847034  1
  O  O379  1  0.80802863  0.58300366  0.93853159  1
  O  O380  1  0.80869262  0.91596781  0.18648909  1
  O  O381  1  0.80624705  0.91658158  0.43866303  1
  O  O382  1  0.80751434  0.91626779  0.68734430  1
  O  O383  1  0.80721696  0.91612587  0.93862747  1
  O  O384  1  0.23468683  0.25012498  0.04196556  1
  O  O385  1  0.23525271  0.24971952  0.28821597  1
  O  O386  1  0.23425372  0.25015478  0.53993512  1
  O  O387  1  0.23245132  0.24952442  0.78652774  1
  O  O388  1  0.23349838  0.58348186  0.03846642  1
  O  O389  1  0.23505292  0.58287090  0.28789254  1
  O  O390  1  0.23222151  0.58313894  0.54026604  1
  O  O391  1  0.23359214  0.58304493  0.78655421  1
  O  O392  1  0.23302578  0.91642662  0.03753040  1
  O  O393  1  0.23181134  0.91712058  0.28992158  1
  O  O394  1  0.23369498  0.91685285  0.54038630  1
  O  O395  1  0.23222986  0.91741780  0.78899891  1
  O  O396  1  0.73310670  0.24985361  0.04005025  1
  O  O397  1  0.73236794  0.24990132  0.28743575  1
  O  O398  1  0.73232157  0.24929566  0.54037552  1
  O  O399  1  0.73499851  0.24993211  0.78822407  1
  O  O400  1  0.73480212  0.58297826  0.04013902  1
  O  O401  1  0.73551906  0.58323313  0.28861351  1
  O  O402  1  0.73258924  0.58347255  0.53759446  1
  O  O403  1  0.73348168  0.58370775  0.79085487  1
  O  O404  1  0.73475228  0.91672802  0.04059116  1
  O  O405  1  0.73501258  0.91656413  0.28792005  1
  O  O406  1  0.73264856  0.91712214  0.53971629  1
  O  O407  1  0.73336515  0.91649078  0.78879858  1
  O  O408  1  0.26642509  0.08253825  0.20992109  1
  O  O409  1  0.26696843  0.08356380  0.46284137  1
  O  O410  1  0.26478681  0.08315999  0.70889954  1
  O  O411  1  0.26775000  0.08355319  0.96087766  1
  O  O412  1  0.26716327  0.41694349  0.21229741  1
  O  O413  1  0.26465452  0.41629095  0.46163989  1
  O  O414  1  0.26418091  0.41673815  0.71065249  1
  O  O415  1  0.26778264  0.41656019  0.96021225  1
  O  O416  1  0.26619432  0.75057484  0.20934936  1
  O  O417  1  0.26608962  0.74971058  0.45969551  1
  O  O418  1  0.26518416  0.75036735  0.71108994  1
  O  O419  1  0.26696797  0.74988568  0.96007347  1
  O  O420  1  0.76610940  0.08333757  0.21145615  1
  O  O421  1  0.76750088  0.08352186  0.45964316  1
  O  O422  1  0.76794608  0.08252439  0.71093228  1
  O  O423  1  0.76737906  0.08396901  0.96270722  1
  O  O424  1  0.76568744  0.41637692  0.20924822  1
  O  O425  1  0.76483551  0.41603126  0.46156945  1
  O  O426  1  0.76562613  0.41721155  0.70958456  1
  O  O427  1  0.76717044  0.41609699  0.96277485  1
  O  O428  1  0.76808295  0.74973500  0.20972313  1
  O  O429  1  0.76515406  0.75036126  0.46168156  1
  O  O430  1  0.76688422  0.75026276  0.71013272  1
  O  O431  1  0.76597411  0.74991511  0.96241065  1
  O  O432  1  0.01371410  0.08362658  0.16398460  1
  O  O433  1  0.01405541  0.08364674  0.41341342  1
  O  O434  1  0.01516177  0.08331527  0.66332022  1
  O  O435  1  0.01483982  0.08349409  0.91346816  1
  O  O436  1  0.01512854  0.41709255  0.16350818  1
  O  O437  1  0.01749687  0.41693295  0.41508243  1
  O  O438  1  0.01840740  0.41620450  0.66426445  1
  O  O439  1  0.01832671  0.41702111  0.91458331  1
  O  O440  1  0.01592568  0.74955442  0.16626252  1
  O  O441  1  0.01500811  0.74992008  0.41391840  1
  O  O442  1  0.01552945  0.75016326  0.66568508  1
  O  O443  1  0.01798095  0.74980875  0.91188943  1
  O  O444  1  0.51769362  0.08394090  0.16186702  1
  O  O445  1  0.51844088  0.08361933  0.41526254  1
  O  O446  1  0.51597906  0.08381654  0.66343516  1
  O  O447  1  0.51522713  0.08334551  0.91562412  1
  O  O448  1  0.51613663  0.41626201  0.16277778  1
  O  O449  1  0.51585769  0.41631176  0.41259560  1
  O  O450  1  0.51752376  0.41677932  0.66489861  1
  O  O451  1  0.51473548  0.41684168  0.91584221  1
  O  O452  1  0.51680942  0.74941557  0.16230290  1
  O  O453  1  0.51715209  0.75039368  0.41490655  1
  O  O454  1  0.51823053  0.74895468  0.66472522  1
  O  O455  1  0.51459482  0.75009148  0.91600977  1
  O  O456  1  0.48417605  0.25046663  0.08682865  1
  O  O457  1  0.48619741  0.24925956  0.33616460  1
  O  O458  1  0.48312496  0.25055779  0.58458178  1
  O  O459  1  0.48417726  0.24993118  0.83772727  1
  O  O460  1  0.48183856  0.58283783  0.08588046  1
  O  O461  1  0.48469303  0.58332399  0.33641374  1
  O  O462  1  0.48277465  0.58289949  0.58421758  1
  O  O463  1  0.48054837  0.58354119  0.83655589  1
  O  O464  1  0.48388268  0.91687371  0.08497550  1
  O  O465  1  0.48556217  0.91718619  0.33608784  1
  O  O466  1  0.48616976  0.91677138  0.58685216  1
  O  O467  1  0.48206472  0.91617273  0.83517363  1
  O  O468  1  0.98098833  0.25008628  0.08570632  1
  O  O469  1  0.98300863  0.25081346  0.33479270  1
  O  O470  1  0.98265521  0.24966934  0.58703992  1
  O  O471  1  0.98472797  0.25019385  0.83476749  1
  O  O472  1  0.98290189  0.58367030  0.08488558  1
  O  O473  1  0.98328092  0.58256944  0.33707485  1
  O  O474  1  0.98521369  0.58355550  0.58686879  1
  O  O475  1  0.98680260  0.58277330  0.83636206  1
  O  O476  1  0.98319411  0.91655726  0.08664122  1
  O  O477  1  0.98351525  0.91694908  0.33465507  1
  O  O478  1  0.98184704  0.91750370  0.58742411  1
  O  O479  1  0.98565992  0.91683286  0.83674987  1
  O  O480  1  0.08523505  0.31475718  0.07738907  1
  O  O481  1  0.08684512  0.31617233  0.32774535  1
  O  O482  1  0.08680564  0.31403371  0.57823154  1
  O  O483  1  0.08846427  0.31602543  0.82772260  1
  O  O484  1  0.08724596  0.64821200  0.07668407  1
  O  O485  1  0.08684978  0.64728354  0.32736989  1
  O  O486  1  0.08911396  0.64774353  0.57729843  1
  O  O487  1  0.09027772  0.64829550  0.82775749  1
  O  O488  1  0.08673124  0.98215263  0.07681997  1
  O  O489  1  0.08723543  0.98228079  0.32656744  1
  O  O490  1  0.08536898  0.98305591  0.57785266  1
  O  O491  1  0.08941151  0.98126414  0.82731253  1
  O  O492  1  0.58800288  0.31548601  0.07750169  1
  O  O493  1  0.59022570  0.31324804  0.32677926  1
  O  O494  1  0.58701677  0.31609730  0.57761929  1
  O  O495  1  0.58780465  0.31493533  0.82854826  1
  O  O496  1  0.58571541  0.64797774  0.07721873  1
  O  O497  1  0.58823430  0.64839834  0.32701008  1
  O  O498  1  0.58709282  0.64795922  0.57729268  1
  O  O499  1  0.58443453  0.64841805  0.82763906  1
  O  O500  1  0.58778372  0.98169186  0.07728325  1
  O  O501  1  0.58879011  0.98328539  0.32832721  1
  O  O502  1  0.59040008  0.98058444  0.57761244  1
  O  O503  1  0.58589070  0.98190240  0.82658694  1
  O  O504  1  0.41411820  0.01914398  0.17278765  1
  O  O505  1  0.41466118  0.01790982  0.42379764  1
  O  O506  1  0.41203380  0.01967690  0.67207469  1
  O  O507  1  0.41192726  0.01671362  0.92258592  1
  O  O508  1  0.41249754  0.35110569  0.17249931  1
  O  O509  1  0.41252240  0.35119318  0.42206409  1
  O  O510  1  0.41384120  0.35120950  0.67215043  1
  O  O511  1  0.41074122  0.35215651  0.92339495  1
  O  O512  1  0.41304162  0.68427892  0.17167039  1
  O  O513  1  0.41333211  0.68555908  0.42294891  1
  O  O514  1  0.41404745  0.68386234  0.67171923  1
  O  O515  1  0.41027934  0.68546915  0.92248511  1
  O  O516  1  0.91012182  0.01823904  0.17162229  1
  O  O517  1  0.91029289  0.01875692  0.42282387  1
  O  O518  1  0.91144066  0.01825147  0.67283675  1
  O  O519  1  0.91120708  0.01824050  0.92265424  1
  O  O520  1  0.91161714  0.35175349  0.17197499  1
  O  O521  1  0.91339602  0.35262334  0.42333390  1
  O  O522  1  0.91448592  0.35113660  0.67278027  1
  O  O523  1  0.91421841  0.35195273  0.92324939  1
  O  O524  1  0.91180831  0.68483094  0.17204903  1
  O  O525  1  0.91188436  0.68361428  0.42193527  1
  O  O526  1  0.91121708  0.68606633  0.67360797  1
  O  O527  1  0.91440782  0.68475718  0.92202157  1
  O  O528  1  0.16245018  0.01736923  0.20282799  1
  O  O529  1  0.16304856  0.01866645  0.45285204  1
  O  O530  1  0.16070823  0.01812061  0.70208990  1
  O  O531  1  0.16385729  0.01819291  0.95275670  1
  O  O532  1  0.16376581  0.35148447  0.20228499  1
  O  O533  1  0.16027586  0.35279444  0.45200278  1
  O  O534  1  0.16066692  0.35099584  0.70262283  1
  O  O535  1  0.16336582  0.35223868  0.95238229  1
  O  O536  1  0.16247481  0.68585310  0.20201196  1
  O  O537  1  0.16275358  0.68363139  0.45289575  1
  O  O538  1  0.16150240  0.68552489  0.70360685  1
  O  O539  1  0.16311639  0.68459345  0.95207076  1
  O  O540  1  0.66213646  0.01913140  0.20150558  1
  O  O541  1  0.66366096  0.01824193  0.45215196  1
  O  O542  1  0.66399517  0.01750788  0.70318106  1
  O  O543  1  0.66379550  0.01926683  0.95259586  1
  O  O544  1  0.66159761  0.35113074  0.20180602  1
  O  O545  1  0.66120856  0.35117087  0.45399567  1
  O  O546  1  0.66156396  0.35214223  0.70224021  1
  O  O547  1  0.66361648  0.35059994  0.95342539  1
  O  O548  1  0.66408204  0.68461585  0.20093375  1
  O  O549  1  0.66181931  0.68498557  0.45294512  1
  O  O550  1  0.66272077  0.68561770  0.70207992  1
  O  O551  1  0.66252164  0.68448092  0.95256054  1
  O  O552  1  0.33877152  0.31509964  0.04755387  1
  O  O553  1  0.33837172  0.31588435  0.29694887  1
  O  O554  1  0.33846796  0.31425224  0.54841918  1
  O  O555  1  0.33584192  0.31503797  0.79703969  1
  O  O556  1  0.33741406  0.64857362  0.04690505  1
  O  O557  1  0.33857603  0.64767503  0.29697836  1
  O  O558  1  0.33645199  0.64799989  0.54873062  1
  O  O559  1  0.33714724  0.64822947  0.79742683  1
  O  O560  1  0.33666507  0.98168590  0.04705026  1
  O  O561  1  0.33599821  0.98175894  0.29797773  1
  O  O562  1  0.33736889  0.98267254  0.54766233  1
  O  O563  1  0.33650003  0.98175240  0.79820409  1
  O  O564  1  0.83691942  0.31538412  0.04829618  1
  O  O565  1  0.83582263  0.31469981  0.29767467  1
  O  O566  1  0.83656035  0.31402962  0.54880587  1
  O  O567  1  0.83852186  0.31471420  0.79711929  1
  O  O568  1  0.83918708  0.64711065  0.04798675  1
  O  O569  1  0.83879916  0.64960260  0.29733199  1
  O  O570  1  0.83656355  0.64783976  0.54746109  1
  O  O571  1  0.83705414  0.64973825  0.79722412  1
  O  O572  1  0.83846523  0.98242939  0.04742561  1
  O  O573  1  0.83842522  0.98154037  0.29589763  1
  O  O574  1  0.83637173  0.98292450  0.54781813  1
  O  O575  1  0.83744014  0.98105715  0.79693193  1
  O  O576  1  0.41429353  0.14938029  0.17208889  1
  O  O577  1  0.41393159  0.14779712  0.42352606  1
  O  O578  1  0.41272978  0.15001105  0.67153713  1
  O  O579  1  0.41066320  0.14689798  0.92316823  1
  O  O580  1  0.41218953  0.48134578  0.17238997  1
  O  O581  1  0.41224646  0.48121123  0.42222446  1
  O  O582  1  0.41333455  0.48142008  0.67156649  1
  O  O583  1  0.41076836  0.48223372  0.92271909  1
  O  O584  1  0.41347314  0.81462262  0.17256447  1
  O  O585  1  0.41363173  0.81576028  0.42301143  1
  O  O586  1  0.41442491  0.81402135  0.67280452  1
  O  O587  1  0.41084561  0.81564575  0.92260842  1
  O  O588  1  0.90974824  0.14852046  0.17199688  1
  O  O589  1  0.91030903  0.14869547  0.42278148  1
  O  O590  1  0.91140256  0.14840731  0.67238622  1
  O  O591  1  0.91089824  0.14822893  0.92227796  1
  O  O592  1  0.91163064  0.48215018  0.17121789  1
  O  O593  1  0.91388559  0.48271106  0.42331257  1
  O  O594  1  0.91488584  0.48138158  0.67327415  1
  O  O595  1  0.91405899  0.48178873  0.92316096  1
  O  O596  1  0.91212788  0.81502855  0.17236431  1
  O  O597  1  0.91108137  0.81389254  0.42233552  1
  O  O598  1  0.91189927  0.81621563  0.67331168  1
  O  O599  1  0.91433915  0.81472861  0.92226245  1
  O  O600  1  0.08462699  0.18477940  0.07679591  1
  O  O601  1  0.08667250  0.18581718  0.32691211  1
  O  O602  1  0.08578991  0.18384660  0.57761156  1
  O  O603  1  0.08878038  0.18584485  0.82676260  1
  O  O604  1  0.08701848  0.51837182  0.07661697  1
  O  O605  1  0.08679683  0.51709256  0.32808168  1
  O  O606  1  0.08871190  0.51760709  0.57813481  1
  O  O607  1  0.09070306  0.51804392  0.82837248  1
  O  O608  1  0.08743716  0.85220764  0.07707587  1
  O  O609  1  0.08763057  0.85224364  0.32670398  1
  O  O610  1  0.08557980  0.85284372  0.57770293  1
  O  O611  1  0.08919530  0.85112268  0.82770771  1
  O  O612  1  0.58807306  0.18538063  0.07702713  1
  O  O613  1  0.58948329  0.18311945  0.32753396  1
  O  O614  1  0.58742480  0.18606104  0.57685814  1
  O  O615  1  0.58762975  0.18477236  0.82813789  1
  O  O616  1  0.58556567  0.51772922  0.07721110  1
  O  O617  1  0.58818662  0.51828766  0.32706776  1
  O  O618  1  0.58690378  0.51787881  0.57733922  1
  O  O619  1  0.58435054  0.51839977  0.82757849  1
  O  O620  1  0.58738786  0.85120430  0.07749477  1
  O  O621  1  0.58951293  0.85309173  0.32777518  1
  O  O622  1  0.58935500  0.85034018  0.57851912  1
  O  O623  1  0.58666546  0.85190686  0.82699240  1
  O  O624  1  0.33883682  0.18494068  0.04776456  1
  O  O625  1  0.33914206  0.18552717  0.29710999  1
  O  O626  1  0.33804479  0.18423715  0.54801268  1
  O  O627  1  0.33629856  0.18506393  0.79669835  1
  O  O628  1  0.33734253  0.51834178  0.04712753  1
  O  O629  1  0.33849262  0.51736656  0.29670789  1
  O  O630  1  0.33614515  0.51804165  0.54894825  1
  O  O631  1  0.33726369  0.51818421  0.79743195  1
  O  O632  1  0.33658412  0.85139131  0.04674925  1
  O  O633  1  0.33557629  0.85172737  0.29801512  1
  O  O634  1  0.33766885  0.85245037  0.54802072  1
  O  O635  1  0.33601417  0.85185749  0.79842367  1
  O  O636  1  0.83733899  0.18542675  0.04784268  1
  O  O637  1  0.83591760  0.18452501  0.29670550  1
  O  O638  1  0.83654407  0.18412315  0.54746352  1
  O  O639  1  0.83839337  0.18429582  0.79626260  1
  O  O640  1  0.83840493  0.51705013  0.04768349  1
  O  O641  1  0.83964275  0.51942268  0.29816657  1
  O  O642  1  0.83592347  0.51784480  0.54801957  1
  O  O643  1  0.83772099  0.51945501  0.79756755  1
  O  O644  1  0.83916674  0.85237919  0.04797314  1
  O  O645  1  0.83819339  0.85104410  0.29639640  1
  O  O646  1  0.83693616  0.85297626  0.54874675  1
  O  O647  1  0.83682407  0.85083223  0.79710975  1
  O  O648  1  0.16269073  0.14755457  0.20186908  1
  O  O649  1  0.16350097  0.14874966  0.45238560  1
  O  O650  1  0.16076954  0.14823559  0.70155587  1
  O  O651  1  0.16384813  0.14830698  0.95263470  1
  O  O652  1  0.16336099  0.48154273  0.20246415  1
  O  O653  1  0.16156985  0.48296094  0.45282964  1
  O  O654  1  0.16015710  0.48120371  0.70319139  1
  O  O655  1  0.16395919  0.48224666  0.95243743  1
  O  O656  1  0.16254500  0.81623349  0.20277893  1
  O  O657  1  0.16179537  0.81392673  0.45287981  1
  O  O658  1  0.16169814  0.81587885  0.70351584  1
  O  O659  1  0.16264408  0.81469969  0.95227556  1
  O  O660  1  0.66251023  0.14905846  0.20197051  1
  O  O661  1  0.66335280  0.14835319  0.45237597  1
  O  O662  1  0.66424258  0.14749600  0.70246644  1
  O  O663  1  0.66389844  0.14951111  0.95315176  1
  O  O664  1  0.66167928  0.48110708  0.20103394  1
  O  O665  1  0.66155538  0.48166008  0.45317933  1
  O  O666  1  0.66144976  0.48209923  0.70234999  1
  O  O667  1  0.66347569  0.48085761  0.95246135  1
  O  O668  1  0.66383105  0.81448429  0.20102494  1
  O  O669  1  0.66180942  0.81554403  0.45384639  1
  O  O670  1  0.66290119  0.81564823  0.70283451  1
  O  O671  1  0.66229679  0.81467771  0.95299001  1
