# generated using pymatgen
data_Na2MnFe(PO4)2
_symmetry_space_group_name_H-M   'P 1'
_cell_length_a   21.08026329
_cell_length_b   18.93178337
_cell_length_c   20.03999369
_cell_angle_alpha   90.00062975
_cell_angle_beta   90.00088913
_cell_angle_gamma   90.00134678
_symmetry_Int_Tables_number   1
_chemical_formula_structural   Na2MnFe(PO4)2
_chemical_formula_sum   'Na96 Mn48 Fe48 P96 O384'
_cell_volume   7997.70051660
_cell_formula_units_Z   48
loop_
 _symmetry_equiv_pos_site_id
 _symmetry_equiv_pos_as_xyz
  1  'x, y, z'
loop_
 _atom_site_type_symbol
 _atom_site_label
 _atom_site_symmetry_multiplicity
 _atom_site_fract_x
 _atom_site_fract_y
 _atom_site_fract_z
 _atom_site_occupancy
  Na  Na0  1  -0.00066931  -0.00005151  -0.00087119  1
  Na  Na1  1  -0.00143507  -0.00041305  0.25039279  1
  Na  Na2  1  -0.00216064  -0.00083688  0.50092173  1
  Na  Na3  1  -0.00035099  0.00059561  0.74923544  1
  Na  Na4  1  -0.00248393  0.33239022  -0.00054165  1
  Na  Na5  1  -0.00252387  0.33239373  0.25103293  1
  Na  Na6  1  -0.00043133  0.33296235  0.49979016  1
  Na  Na7  1  -0.00201556  0.33180941  0.74967549  1
  Na  Na8  1  0.00031896  0.66729643  -0.00128879  1
  Na  Na9  1  0.00094457  0.66766492  0.24902307  1
  Na  Na10  1  -0.00273317  0.66603739  0.50084586  1
  Na  Na11  1  -0.00159269  0.66706837  0.75099510  1
  Na  Na12  1  0.50040999  -0.00075078  -0.00100577  1
  Na  Na13  1  0.49969756  -0.00035893  0.25013046  1
  Na  Na14  1  0.49915465  -0.00034273  0.50150786  1
  Na  Na15  1  0.50172605  0.00015827  0.74994479  1
  Na  Na16  1  0.50191578  0.33402652  0.00001909  1
  Na  Na17  1  0.50089672  0.33224053  0.25005420  1
  Na  Na18  1  0.50041524  0.33225642  0.50098388  1
  Na  Na19  1  0.50052424  0.33320638  0.74978339  1
  Na  Na20  1  0.50005471  0.66717429  0.00073149  1
  Na  Na21  1  0.50021381  0.66734308  0.24932058  1
  Na  Na22  1  0.49802856  0.66669963  0.49944041  1
  Na  Na23  1  0.49781855  0.66653030  0.75014559  1
  Na  Na24  1  0.25116568  0.00002079  0.12544472  1
  Na  Na25  1  0.25138947  0.00060058  0.37540667  1
  Na  Na26  1  0.24818220  -0.00067969  0.62469030  1
  Na  Na27  1  0.24921430  -0.00034350  0.87431568  1
  Na  Na28  1  0.25139228  0.33360042  0.12565901  1
  Na  Na29  1  0.25102888  0.33275105  0.37577623  1
  Na  Na30  1  0.25066439  0.33252098  0.62417518  1
  Na  Na31  1  0.25050724  0.33322135  0.87454191  1
  Na  Na32  1  0.24995841  0.66739141  0.12568360  1
  Na  Na33  1  0.24919360  0.66759556  0.37516714  1
  Na  Na34  1  0.25080656  0.66745647  0.62486898  1
  Na  Na35  1  0.25075307  0.66698707  0.87457362  1
  Na  Na36  1  0.75073878  0.00012816  0.12601905  1
  Na  Na37  1  0.75087823  0.00037772  0.37625697  1
  Na  Na38  1  0.75156534  0.00053161  0.62389177  1
  Na  Na39  1  0.75069867  -0.00063418  0.87409641  1
  Na  Na40  1  0.75052155  0.33347976  0.12380118  1
  Na  Na41  1  0.75052471  0.33292573  0.37525766  1
  Na  Na42  1  0.75048181  0.33276423  0.62532094  1
  Na  Na43  1  0.74937951  0.33232428  0.87514874  1
  Na  Na44  1  0.74953428  0.66698654  0.12499773  1
  Na  Na45  1  0.75044283  0.66626168  0.37543464  1
  Na  Na46  1  0.75282188  0.66795208  0.62544580  1
  Na  Na47  1  0.75060646  0.66735405  0.87378847  1
  Na  Na48  1  -0.00302363  0.16726943  -0.00096228  1
  Na  Na49  1  -0.00198991  0.16732312  0.25026287  1
  Na  Na50  1  -0.00133984  0.16723019  0.50073967  1
  Na  Na51  1  -0.00050280  0.16622532  0.74915310  1
  Na  Na52  1  0.00159008  0.49888288  -0.00102274  1
  Na  Na53  1  -0.00234908  0.50099095  0.24997394  1
  Na  Na54  1  -0.00287942  0.50036115  0.49970056  1
  Na  Na55  1  -0.00208931  0.50064172  0.75129821  1
  Na  Na56  1  -0.00057630  0.83326854  -0.00068368  1
  Na  Na57  1  0.00052992  0.83299927  0.24998966  1
  Na  Na58  1  -0.00024259  0.83372684  0.50122138  1
  Na  Na59  1  -0.00280944  0.83491163  0.74933584  1
  Na  Na60  1  0.50077687  0.16725422  0.00040388  1
  Na  Na61  1  0.50191460  0.16605140  0.25046393  1
  Na  Na62  1  0.50014415  0.16717589  0.50111308  1
  Na  Na63  1  0.50182739  0.16644061  0.74904467  1
  Na  Na64  1  0.50096427  0.49959750  0.00012591  1
  Na  Na65  1  0.50235409  0.49902865  0.24950819  1
  Na  Na66  1  0.49879393  0.50034240  0.49989326  1
  Na  Na67  1  0.49817552  0.50005931  0.75032704  1
  Na  Na68  1  0.50004742  0.83308402  -0.00081835  1
  Na  Na69  1  0.49723507  0.83463044  0.24958471  1
  Na  Na70  1  0.49804162  0.83429304  0.50070682  1
  Na  Na71  1  0.50027491  0.83344025  0.75068843  1
  Na  Na72  1  0.25106808  0.16681679  0.12540663  1
  Na  Na73  1  0.25124251  0.16618469  0.37634726  1
  Na  Na74  1  0.24879229  0.16700256  0.62463615  1
  Na  Na75  1  0.24862605  0.16746604  0.87410285  1
  Na  Na76  1  0.24920733  0.50015348  0.12526797  1
  Na  Na77  1  0.24981452  0.49987896  0.37548972  1
  Na  Na78  1  0.25137823  0.49916220  0.62485038  1
  Na  Na79  1  0.25077750  0.49996705  0.87394305  1
  Na  Na80  1  0.25193165  0.83263791  0.12607232  1
  Na  Na81  1  0.24964872  0.83404639  0.37467223  1
  Na  Na82  1  0.25024458  0.83382123  0.62404761  1
  Na  Na83  1  0.25096877  0.83327053  0.87548030  1
  Na  Na84  1  0.75046323  0.16698500  0.12590016  1
  Na  Na85  1  0.74924561  0.16694092  0.37520494  1
  Na  Na86  1  0.74970255  0.16701608  0.62451177  1
  Na  Na87  1  0.75299427  0.16542109  0.87435224  1
  Na  Na88  1  0.74899216  0.50058223  0.12458930  1
  Na  Na89  1  0.75077545  0.49961242  0.37581576  1
  Na  Na90  1  0.75193400  0.49911764  0.62528809  1
  Na  Na91  1  0.74976488  0.49973244  0.87464444  1
  Na  Na92  1  0.74920922  0.83369330  0.12477331  1
  Na  Na93  1  0.75274919  0.83232066  0.37567132  1
  Na  Na94  1  0.75267665  0.83326993  0.62519969  1
  Na  Na95  1  0.74968461  0.83399213  0.87356449  1
  Mn  Mn96  1  0.60749572  0.75019217  0.12290475  1
  Mn  Mn97  1  0.35709485  0.75057442  0.50208315  1
  Mn  Mn98  1  0.64237798  0.58339164  0.49842355  1
  Mn  Mn99  1  0.64250077  0.58349112  0.74690772  1
  Mn  Mn100  1  0.89179829  0.91639106  0.12709308  1
  Mn  Mn101  1  0.64209585  0.58455822  0.99707715  1
  Mn  Mn102  1  0.14191495  0.24999895  0.24844158  1
  Mn  Mn103  1  0.85746069  0.08365739  0.25309511  1
  Mn  Mn104  1  0.60857080  0.08267484  0.12251005  1
  Mn  Mn105  1  0.10679093  0.74997838  0.62327276  1
  Mn  Mn106  1  0.10738416  0.41646511  0.12281533  1
  Mn  Mn107  1  0.60738029  0.41692165  0.62332198  1
  Mn  Mn108  1  0.14116430  0.58316597  0.24797718  1
  Mn  Mn109  1  0.10745924  0.08353682  0.12281601  1
  Mn  Mn110  1  0.10699972  0.41648550  0.62334473  1
  Mn  Mn111  1  0.39225151  0.58334327  0.12761327  1
  Mn  Mn112  1  0.85855335  0.74912263  0.25221538  1
  Mn  Mn113  1  0.85795614  0.41634474  0.50288129  1
  Mn  Mn114  1  0.10805307  0.41587076  0.87246451  1
  Mn  Mn115  1  0.10698703  0.08308221  0.37325433  1
  Mn  Mn116  1  0.35722276  0.08335235  0.75181433  1
  Mn  Mn117  1  0.10775750  0.75075133  0.87265297  1
  Mn  Mn118  1  0.14259479  0.91648218  0.99787521  1
  Mn  Mn119  1  0.60841950  0.41620232  0.37254463  1
  Mn  Mn120  1  0.10677887  0.08326380  0.87290547  1
  Mn  Mn121  1  0.35829201  0.08361691  0.00183343  1
  Mn  Mn122  1  0.14232922  0.91720134  0.24820958  1
  Mn  Mn123  1  0.39232128  0.58297437  0.37687055  1
  Mn  Mn124  1  0.14108322  0.58343855  0.49803677  1
  Mn  Mn125  1  0.35788272  0.41603682  0.50219828  1
  Mn  Mn126  1  0.89217374  0.58356909  0.87790208  1
  Mn  Mn127  1  0.39265383  0.24985395  0.87650036  1
  Mn  Mn128  1  0.14169552  0.25076107  0.99817580  1
  Mn  Mn129  1  0.35871282  0.41699195  0.25252006  1
  Mn  Mn130  1  0.35897865  0.08329790  0.25309555  1
  Mn  Mn131  1  0.64284653  0.91652308  0.49806540  1
  Mn  Mn132  1  0.64332734  0.24901332  0.99734340  1
  Mn  Mn133  1  0.60791714  0.75085085  0.37326837  1
  Mn  Mn134  1  0.89249799  0.58298433  0.12674603  1
  Mn  Mn135  1  0.64196908  0.91612977  0.24862865  1
  Mn  Mn136  1  0.85742364  0.41707966  0.00246441  1
  Mn  Mn137  1  0.10654172  0.41722684  0.37268848  1
  Mn  Mn138  1  0.14270995  0.58327160  0.74698292  1
  Mn  Mn139  1  0.60742744  0.75000097  0.62289890  1
  Mn  Mn140  1  0.39305259  0.24948878  0.12728620  1
  Mn  Mn141  1  0.39225808  0.58311687  0.87771011  1
  Mn  Mn142  1  0.39282335  0.91704918  0.87668463  1
  Mn  Mn143  1  0.60948337  0.08351265  0.87214724  1
  Fe  Fe144  1  0.89163812  0.58395411  0.37670794  1
  Fe  Fe145  1  0.35670658  0.74967293  0.25214488  1
  Fe  Fe146  1  0.64329231  0.25083761  0.24862925  1
  Fe  Fe147  1  0.85742918  0.08220753  0.00205054  1
  Fe  Fe148  1  0.35755024  0.08336619  0.50252052  1
  Fe  Fe149  1  0.89222970  0.24958057  0.87608023  1
  Fe  Fe150  1  0.60772570  0.08307414  0.62322332  1
  Fe  Fe151  1  0.10646382  0.08360315  0.62307885  1
  Fe  Fe152  1  0.64386853  0.91714166  0.74761923  1
  Fe  Fe153  1  0.10614933  0.74999699  0.37397837  1
  Fe  Fe154  1  0.14346411  0.58324003  0.99864692  1
  Fe  Fe155  1  0.39239831  0.91754987  0.37729102  1
  Fe  Fe156  1  0.64295280  0.58302162  0.24900086  1
  Fe  Fe157  1  0.85666647  0.41694696  0.25094260  1
  Fe  Fe158  1  0.39288051  0.91700895  0.12609147  1
  Fe  Fe159  1  0.85728518  0.08339985  0.75101752  1
  Fe  Fe160  1  0.89193919  0.91726792  0.87687420  1
  Fe  Fe161  1  0.89246981  0.24991110  0.62702240  1
  Fe  Fe162  1  0.89158960  0.24968276  0.37756931  1
  Fe  Fe163  1  0.35791775  0.41687611  0.00179740  1
  Fe  Fe164  1  0.60826926  0.41670863  0.12343237  1
  Fe  Fe165  1  0.64289001  0.91653741  0.99826096  1
  Fe  Fe166  1  0.85706271  0.75033319  0.75236188  1
  Fe  Fe167  1  0.60739514  0.41716276  0.87271808  1
  Fe  Fe168  1  0.60697127  0.08276282  0.37452936  1
  Fe  Fe169  1  0.85700278  0.08330269  0.50201580  1
  Fe  Fe170  1  0.39159285  0.58343596  0.62642401  1
  Fe  Fe171  1  0.35762270  0.74969033  0.00194492  1
  Fe  Fe172  1  0.89195443  0.58297202  0.62758759  1
  Fe  Fe173  1  0.64381011  0.24932869  0.74828649  1
  Fe  Fe174  1  0.14193609  0.24981019  0.74763341  1
  Fe  Fe175  1  0.14199875  0.91686260  0.74811421  1
  Fe  Fe176  1  0.85844291  0.75043586  0.50196008  1
  Fe  Fe177  1  0.39372153  0.24907975  0.37706506  1
  Fe  Fe178  1  0.35730227  0.75026159  0.75159235  1
  Fe  Fe179  1  0.89261324  0.91647850  0.37725937  1
  Fe  Fe180  1  0.85705872  0.41601974  0.75207156  1
  Fe  Fe181  1  0.35744559  0.41634982  0.75169252  1
  Fe  Fe182  1  0.39226239  0.91702225  0.62743090  1
  Fe  Fe183  1  0.60749267  0.74953006  0.87288963  1
  Fe  Fe184  1  0.89311269  0.91710828  0.62711800  1
  Fe  Fe185  1  0.89185747  0.25010110  0.12723944  1
  Fe  Fe186  1  0.14286105  0.24946288  0.49813287  1
  Fe  Fe187  1  0.39306864  0.24969170  0.62719062  1
  Fe  Fe188  1  0.10796046  0.75014077  0.12258987  1
  Fe  Fe189  1  0.64293595  0.24982850  0.49855348  1
  Fe  Fe190  1  0.14240062  0.91731697  0.49815419  1
  Fe  Fe191  1  0.85668236  0.75052311  0.00148111  1
  P  P192  1  0.05106227  0.25000963  0.10998057  1
  P  P193  1  0.05236223  0.24960447  0.36152426  1
  P  P194  1  0.05370939  0.24936117  0.61050222  1
  P  P195  1  0.05226005  0.24960266  0.85902636  1
  P  P196  1  0.05399578  0.58394710  0.10865631  1
  P  P197  1  0.05097861  0.58444061  0.36034737  1
  P  P198  1  0.05103218  0.58307820  0.61055499  1
  P  P199  1  0.05499592  0.58357431  0.86093223  1
  P  P200  1  0.05323083  0.91620930  0.10977478  1
  P  P201  1  0.05286944  0.91619656  0.36175314  1
  P  P202  1  0.05400925  0.91759388  0.61093211  1
  P  P203  1  0.05216822  0.91672862  0.85904376  1
  P  P204  1  0.55576537  0.25061094  0.11115922  1
  P  P205  1  0.55464651  0.24848003  0.36132511  1
  P  P206  1  0.55500152  0.24914755  0.61116517  1
  P  P207  1  0.55482798  0.25069304  0.85900950  1
  P  P208  1  0.55499149  0.58278537  0.11118646  1
  P  P209  1  0.55407034  0.58362110  0.35931868  1
  P  P210  1  0.55127327  0.58361585  0.61009485  1
  P  P211  1  0.55364943  0.58366030  0.85976421  1
  P  P212  1  0.55295833  0.91632690  0.10909179  1
  P  P213  1  0.55191310  0.91759228  0.36081395  1
  P  P214  1  0.55371209  0.91715606  0.61154983  1
  P  P215  1  0.55627027  0.91572912  0.86009092  1
  P  P216  1  0.44738603  0.08241227  0.13993625  1
  P  P217  1  0.44730417  0.08342931  0.39142331  1
  P  P218  1  0.44660552  0.08339618  0.63909605  1
  P  P219  1  0.44785114  0.08359767  0.88955927  1
  P  P220  1  0.44752047  0.41651493  0.13914896  1
  P  P221  1  0.44744498  0.41528939  0.39018458  1
  P  P222  1  0.44569772  0.41606671  0.64052464  1
  P  P223  1  0.44643193  0.41623418  0.88951932  1
  P  P224  1  0.44446253  0.75092969  0.13936050  1
  P  P225  1  0.44530252  0.75096045  0.38886107  1
  P  P226  1  0.44541848  0.75065193  0.64061653  1
  P  P227  1  0.44616754  0.75018122  0.88947169  1
  P  P228  1  0.94498709  0.08365275  0.13915774  1
  P  P229  1  0.94538734  0.08331943  0.39114941  1
  P  P230  1  0.94538468  0.08365722  0.63891580  1
  P  P231  1  0.94388157  0.08316224  0.88854117  1
  P  P232  1  0.94570745  0.41610031  0.14066038  1
  P  P233  1  0.94413518  0.41669575  0.38865229  1
  P  P234  1  0.94550841  0.41608247  0.64085480  1
  P  P235  1  0.94519152  0.41548650  0.88875877  1
  P  P236  1  0.94701224  0.74994236  0.13841540  1
  P  P237  1  0.94686125  0.75015953  0.39067095  1
  P  P238  1  0.94437037  0.75031849  0.63990771  1
  P  P239  1  0.94432884  0.75152006  0.88931339  1
  P  P240  1  0.19706707  0.08350198  0.23533764  1
  P  P241  1  0.19604418  0.08329973  0.48665120  1
  P  P242  1  0.19501612  0.08326961  0.73419417  1
  P  P243  1  0.19680053  0.08362686  0.98466209  1
  P  P244  1  0.19674059  0.41636723  0.23526185  1
  P  P245  1  0.19594041  0.41545201  0.48525356  1
  P  P246  1  0.19789929  0.41573146  0.73456533  1
  P  P247  1  0.19803794  0.41746232  0.98487753  1
  P  P248  1  0.19522491  0.75037976  0.23597959  1
  P  P249  1  0.19502307  0.75134926  0.48467894  1
  P  P250  1  0.19767934  0.75108479  0.73483855  1
  P  P251  1  0.19707686  0.74933865  0.98611512  1
  P  P252  1  0.69525625  0.08375850  0.23702655  1
  P  P253  1  0.69594637  0.08388047  0.48609975  1
  P  P254  1  0.69773966  0.08314064  0.73406101  1
  P  P255  1  0.69873365  0.08235141  0.98486587  1
  P  P256  1  0.69732212  0.41649767  0.23466049  1
  P  P257  1  0.69663665  0.41573870  0.48562092  1
  P  P258  1  0.69687521  0.41580336  0.73612358  1
  P  P259  1  0.69503702  0.41675903  0.98498986  1
  P  P260  1  0.69695191  0.74943737  0.23530660  1
  P  P261  1  0.69855481  0.75022555  0.48558312  1
  P  P262  1  0.69692425  0.75089809  0.73576675  1
  P  P263  1  0.69700470  0.75114457  0.98390073  1
  P  P264  1  0.30361209  0.25105945  0.01485116  1
  P  P265  1  0.30450484  0.24987204  0.26651993  1
  P  P266  1  0.30475912  0.24860524  0.51461752  1
  P  P267  1  0.30313414  0.25015392  0.76335824  1
  P  P268  1  0.30288854  0.58308569  0.01500389  1
  P  P269  1  0.30283764  0.58415846  0.26534761  1
  P  P270  1  0.30327951  0.58347825  0.51543834  1
  P  P271  1  0.30506286  0.58348301  0.76358276  1
  P  P272  1  0.30433179  0.91607413  0.01542601  1
  P  P273  1  0.30542519  0.91602706  0.26477898  1
  P  P274  1  0.30409313  0.91797383  0.51450159  1
  P  P275  1  0.30309011  0.91636508  0.76363554  1
  P  P276  1  0.80549726  0.24876967  0.01422315  1
  P  P277  1  0.80370170  0.25108023  0.26461077  1
  P  P278  1  0.80403849  0.24897400  0.51476853  1
  P  P279  1  0.80430574  0.24956517  0.76380420  1
  P  P280  1  0.80303160  0.58470355  0.01482654  1
  P  P281  1  0.80267839  0.58235098  0.26517254  1
  P  P282  1  0.80525274  0.58420735  0.51495900  1
  P  P283  1  0.80483612  0.58296707  0.76397252  1
  P  P284  1  0.80315084  0.91625786  0.01361822  1
  P  P285  1  0.80392207  0.91633571  0.26624040  1
  P  P286  1  0.80588608  0.91675523  0.51452191  1
  P  P287  1  0.80471335  0.91746995  0.76358074  1
  O  O288  1  0.05518838  0.25002905  0.18669317  1
  O  O289  1  0.05798646  0.24950961  0.43814680  1
  O  O290  1  0.05851257  0.24990450  0.68722504  1
  O  O291  1  0.05615630  0.24991646  0.93574813  1
  O  O292  1  0.05623377  0.58349074  0.18554841  1
  O  O293  1  0.05463303  0.58344661  0.43705193  1
  O  O294  1  0.05552160  0.58328180  0.68725661  1
  O  O295  1  0.05991682  0.58340811  0.93763720  1
  O  O296  1  0.05629264  0.91670750  0.18659525  1
  O  O297  1  0.05759651  0.91725980  0.43844571  1
  O  O298  1  0.05862979  0.91690641  0.68761519  1
  O  O299  1  0.05664004  0.91643260  0.93573239  1
  O  O300  1  0.55975986  0.25008488  0.18797555  1
  O  O301  1  0.55904127  0.24974392  0.43807388  1
  O  O302  1  0.56032103  0.24967559  0.68780835  1
  O  O303  1  0.55764745  0.24958898  0.93583990  1
  O  O304  1  0.55946711  0.58335554  0.18791605  1
  O  O305  1  0.55686019  0.58370898  0.43618503  1
  O  O306  1  0.55572363  0.58360463  0.68677310  1
  O  O307  1  0.55644341  0.58397940  0.93657622  1
  O  O308  1  0.55673870  0.91631824  0.18584179  1
  O  O309  1  0.55603624  0.91659507  0.43750126  1
  O  O310  1  0.55932888  0.91668882  0.68816397  1
  O  O311  1  0.56019671  0.91652290  0.93688743  1
  O  O312  1  0.44432898  0.08327060  0.06316403  1
  O  O313  1  0.44445896  0.08345048  0.31464249  1
  O  O314  1  0.44188358  0.08335697  0.56245689  1
  O  O315  1  0.44408592  0.08353131  0.81278468  1
  O  O316  1  0.44248702  0.41693515  0.06245442  1
  O  O317  1  0.44485492  0.41580232  0.31336505  1
  O  O318  1  0.44312849  0.41588474  0.56369956  1
  O  O319  1  0.44101674  0.41609050  0.81283885  1
  O  O320  1  0.44073636  0.74959196  0.06249022  1
  O  O321  1  0.44147396  0.75022622  0.31210484  1
  O  O322  1  0.44250335  0.75077370  0.56377530  1
  O  O323  1  0.44103600  0.75039948  0.81280101  1
  O  O324  1  0.94125157  0.08260140  0.06231203  1
  O  O325  1  0.94285585  0.08357983  0.31434995  1
  O  O326  1  0.94092238  0.08367758  0.56225974  1
  O  O327  1  0.94047220  0.08309933  0.81169932  1
  O  O328  1  0.94304867  0.41697408  0.06382280  1
  O  O329  1  0.94032257  0.41662547  0.31190323  1
  O  O330  1  0.94322607  0.41593064  0.56405243  1
  O  O331  1  0.94087752  0.41612067  0.81201105  1
  O  O332  1  0.94154683  0.75013819  0.06181950  1
  O  O333  1  0.94415468  0.75018075  0.31385155  1
  O  O334  1  0.94135736  0.75037436  0.56306859  1
  O  O335  1  0.93998651  0.75075867  0.81248583  1
  O  O336  1  0.19378248  0.08361406  0.06146073  1
  O  O337  1  0.19328363  0.08334569  0.31214894  1
  O  O338  1  0.19086032  0.08328958  0.56326887  1
  O  O339  1  0.19219154  0.08332444  0.81100400  1
  O  O340  1  0.19403144  0.41646364  0.06157450  1
  O  O341  1  0.19281893  0.41626370  0.31204337  1
  O  O342  1  0.19282339  0.41599786  0.56202177  1
  O  O343  1  0.19414375  0.41623054  0.81128753  1
  O  O344  1  0.19236526  0.75024052  0.06281914  1
  O  O345  1  0.18990322  0.75043423  0.31265380  1
  O  O346  1  0.19208896  0.75051175  0.56148714  1
  O  O347  1  0.19410929  0.75068503  0.81158357  1
  O  O348  1  0.69503620  0.08308148  0.06161616  1
  O  O349  1  0.69121282  0.08282747  0.31378904  1
  O  O350  1  0.69132066  0.08306719  0.56280981  1
  O  O351  1  0.69478790  0.08309947  0.81077287  1
  O  O352  1  0.69124833  0.41693887  0.06180334  1
  O  O353  1  0.69424534  0.41621551  0.31144774  1
  O  O354  1  0.69337182  0.41628744  0.56241608  1
  O  O355  1  0.69206120  0.41661044  0.81278276  1
  O  O356  1  0.69317707  0.75040713  0.06064476  1
  O  O357  1  0.69392900  0.75020545  0.31208538  1
  O  O358  1  0.69430366  0.75054125  0.56228146  1
  O  O359  1  0.69189922  0.75000468  0.81234803  1
  O  O360  1  0.30802543  0.24976492  0.18971484  1
  O  O361  1  0.30986929  0.24905254  0.43799565  1
  O  O362  1  0.30835491  0.24935342  0.68672068  1
  O  O363  1  0.30652947  0.25026351  0.93804915  1
  O  O364  1  0.30616545  0.58345519  0.18857725  1
  O  O365  1  0.30649202  0.58359001  0.43867221  1
  O  O366  1  0.30867961  0.58344441  0.68678438  1
  O  O367  1  0.30620975  0.58327072  0.93822390  1
  O  O368  1  0.30943280  0.91711992  0.18806989  1
  O  O369  1  0.30887014  0.91769053  0.43778788  1
  O  O370  1  0.30795527  0.91716364  0.68693699  1
  O  O371  1  0.30714463  0.91681468  0.93855525  1
  O  O372  1  0.80798560  0.25020663  0.18786757  1
  O  O373  1  0.80828879  0.24943902  0.43800269  1
  O  O374  1  0.80840977  0.24982826  0.68705406  1
  O  O375  1  0.80894954  0.24968780  0.93739620  1
  O  O376  1  0.80632405  0.58344530  0.18846504  1
  O  O377  1  0.80885134  0.58361526  0.43810694  1
  O  O378  1  0.80854133  0.58291432  0.68712050  1
  O  O379  1  0.80608522  0.58372605  0.93805464  1
  O  O380  1  0.80666828  0.91636805  0.18937748  1
  O  O381  1  0.80956102  0.91657095  0.43772452  1
  O  O382  1  0.80920623  0.91748219  0.68684841  1
  O  O383  1  0.80723807  0.91643120  0.93692998  1
  O  O384  1  0.23405190  0.25055091  0.04050398  1
  O  O385  1  0.23463918  0.24964987  0.29120224  1
  O  O386  1  0.23417922  0.24927926  0.53777806  1
  O  O387  1  0.23268146  0.24983449  0.78684468  1
  O  O388  1  0.23307186  0.58341020  0.04026913  1
  O  O389  1  0.23315681  0.58386845  0.29050192  1
  O  O390  1  0.23345810  0.58341260  0.54036871  1
  O  O391  1  0.23519012  0.58355812  0.78834736  1
  O  O392  1  0.23468392  0.91630616  0.04076920  1
  O  O393  1  0.23535405  0.91709901  0.28905228  1
  O  O394  1  0.23356179  0.91705578  0.53774943  1
  O  O395  1  0.23275828  0.91686253  0.78748220  1
  O  O396  1  0.73553572  0.24977398  0.03870427  1
  O  O397  1  0.73334669  0.25036493  0.28854588  1
  O  O398  1  0.73368342  0.24955382  0.53849603  1
  O  O399  1  0.73399974  0.24898282  0.78796444  1
  O  O400  1  0.73339040  0.58440570  0.03991393  1
  O  O401  1  0.73264196  0.58264903  0.28992436  1
  O  O402  1  0.73534009  0.58352054  0.53974850  1
  O  O403  1  0.73489842  0.58327375  0.78847642  1
  O  O404  1  0.73309269  0.91658956  0.03842468  1
  O  O405  1  0.73429134  0.91618831  0.29158706  1
  O  O406  1  0.73584496  0.91695392  0.53887336  1
  O  O407  1  0.73426006  0.91722477  0.78714255  1
  O  O408  1  0.26693397  0.08338433  0.21089784  1
  O  O409  1  0.26647746  0.08331805  0.46312409  1
  O  O410  1  0.26478936  0.08321065  0.70907935  1
  O  O411  1  0.26634936  0.08354272  0.95906014  1
  O  O412  1  0.26658122  0.41673004  0.21069942  1
  O  O413  1  0.26574279  0.41595054  0.46034030  1
  O  O414  1  0.26792968  0.41604697  0.70998240  1
  O  O415  1  0.26802031  0.41701568  0.96005501  1
  O  O416  1  0.26577087  0.75012872  0.21289847  1
  O  O417  1  0.26482172  0.75100766  0.45983990  1
  O  O418  1  0.26763376  0.75054524  0.71001325  1
  O  O419  1  0.26742526  0.74987811  0.96222978  1
  O  O420  1  0.76520610  0.08368740  0.21259091  1
  O  O421  1  0.76641286  0.08337388  0.46268358  1
  O  O422  1  0.76785812  0.08346185  0.70938647  1
  O  O423  1  0.76862430  0.08227167  0.95998151  1
  O  O424  1  0.76723990  0.41676267  0.20952400  1
  O  O425  1  0.76632306  0.41589567  0.46071915  1
  O  O426  1  0.76720571  0.41590846  0.71231505  1
  O  O427  1  0.76513645  0.41644243  0.96100762  1
  O  O428  1  0.76659913  0.75006195  0.20996106  1
  O  O429  1  0.76870054  0.75010175  0.46145325  1
  O  O430  1  0.76748908  0.75077945  0.71260192  1
  O  O431  1  0.76704374  0.75048876  0.95934202  1
  O  O432  1  0.01470283  0.08344605  0.16425082  1
  O  O433  1  0.01499684  0.08331951  0.41666168  1
  O  O434  1  0.01580872  0.08356612  0.66258595  1
  O  O435  1  0.01382172  0.08325578  0.91321164  1
  O  O436  1  0.01523704  0.41662116  0.16627213  1
  O  O437  1  0.01395724  0.41650571  0.41364112  1
  O  O438  1  0.01505597  0.41614170  0.66664467  1
  O  O439  1  0.01518585  0.41549903  0.91301594  1
  O  O440  1  0.01735899  0.75003786  0.16198813  1
  O  O441  1  0.01664728  0.74994314  0.41622052  1
  O  O442  1  0.01428488  0.75075335  0.66482365  1
  O  O443  1  0.01452966  0.75054865  0.91291003  1
  O  O444  1  0.51701253  0.08256897  0.16524456  1
  O  O445  1  0.51721677  0.08321834  0.41661143  1
  O  O446  1  0.51700889  0.08333416  0.66290225  1
  O  O447  1  0.51765264  0.08338471  0.91426881  1
  O  O448  1  0.51781485  0.41605958  0.16296358  1
  O  O449  1  0.51697248  0.41599948  0.41584695  1
  O  O450  1  0.51548272  0.41627859  0.66570771  1
  O  O451  1  0.51698790  0.41682344  0.91247146  1
  O  O452  1  0.51453991  0.75068990  0.16352719  1
  O  O453  1  0.51511701  0.75063093  0.41390900  1
  O  O454  1  0.51521458  0.75057232  0.66570436  1
  O  O455  1  0.51664541  0.75022544  0.91277814  1
  O  O456  1  0.48587531  0.25041960  0.08657553  1
  O  O457  1  0.48434998  0.24888554  0.33733652  1
  O  O458  1  0.48435205  0.24975738  0.58832852  1
  O  O459  1  0.48514599  0.24988358  0.83378761  1
  O  O460  1  0.48497277  0.58351507  0.08691289  1
  O  O461  1  0.48444034  0.58323538  0.33398851  1
  O  O462  1  0.48109467  0.58351559  0.58601358  1
  O  O463  1  0.48392631  0.58327532  0.83478476  1
  O  O464  1  0.48291341  0.91613559  0.08464477  1
  O  O465  1  0.48188064  0.91772823  0.33633220  1
  O  O466  1  0.48312850  0.91695340  0.58856698  1
  O  O467  1  0.48610255  0.91673130  0.83609939  1
  O  O468  1  0.98098633  0.25011757  0.08559472  1
  O  O469  1  0.98176297  0.24950255  0.33856442  1
  O  O470  1  0.98307890  0.24980929  0.58741814  1
  O  O471  1  0.98201733  0.24907761  0.83500193  1
  O  O472  1  0.98442416  0.58321907  0.08299852  1
  O  O473  1  0.98100320  0.58453499  0.33542492  1
  O  O474  1  0.98080832  0.58301871  0.58667907  1
  O  O475  1  0.98468254  0.58410882  0.83770731  1
  O  O476  1  0.98358001  0.91625430  0.08450631  1
  O  O477  1  0.98257266  0.91657609  0.33776286  1
  O  O478  1  0.98334688  0.91696830  0.58795986  1
  O  O479  1  0.98188581  0.91751465  0.83528481  1
  O  O480  1  0.08475343  0.31516838  0.07706690  1
  O  O481  1  0.08526388  0.31467279  0.32782267  1
  O  O482  1  0.08714510  0.31420599  0.57690561  1
  O  O483  1  0.08595245  0.31457930  0.82587229  1
  O  O484  1  0.08825430  0.64914423  0.07665356  1
  O  O485  1  0.08503108  0.64959809  0.32815717  1
  O  O486  1  0.08454075  0.64820158  0.57762297  1
  O  O487  1  0.08836840  0.64861023  0.82762274  1
  O  O488  1  0.08711522  0.98137952  0.07721100  1
  O  O489  1  0.08630074  0.98103726  0.32800396  1
  O  O490  1  0.08686031  0.98279429  0.57738322  1
  O  O491  1  0.08637607  0.98153527  0.82622161  1
  O  O492  1  0.58947109  0.31564298  0.07843623  1
  O  O493  1  0.58846368  0.31311985  0.32739417  1
  O  O494  1  0.58839714  0.31397660  0.57734855  1
  O  O495  1  0.58866219  0.31613528  0.82703782  1
  O  O496  1  0.58857194  0.64787272  0.07791530  1
  O  O497  1  0.58831594  0.64865068  0.32695980  1
  O  O498  1  0.58491168  0.64869138  0.57716192  1
  O  O499  1  0.58743735  0.64892616  0.82723059  1
  O  O500  1  0.58702759  0.98128837  0.07624427  1
  O  O501  1  0.58577301  0.98283049  0.32851867  1
  O  O502  1  0.58680337  0.98229669  0.57815865  1
  O  O503  1  0.59052587  0.98038056  0.82671227  1
  O  O504  1  0.41337006  0.01708706  0.17195351  1
  O  O505  1  0.41277334  0.01855873  0.42390794  1
  O  O506  1  0.41322492  0.01837722  0.67250795  1
  O  O507  1  0.41372120  0.01855586  0.92193753  1
  O  O508  1  0.41396620  0.35158539  0.17235720  1
  O  O509  1  0.41363046  0.34997451  0.42242215  1
  O  O510  1  0.41175584  0.35077976  0.67297347  1
  O  O511  1  0.41359843  0.35107710  0.92310572  1
  O  O512  1  0.41054064  0.68622855  0.17293749  1
  O  O513  1  0.41134077  0.68603723  0.42187737  1
  O  O514  1  0.41119489  0.68553954  0.67286193  1
  O  O515  1  0.41288477  0.68513018  0.92299473  1
  O  O516  1  0.91101077  0.01878430  0.17224877  1
  O  O517  1  0.91109152  0.01816674  0.42328138  1
  O  O518  1  0.91199998  0.01863823  0.67235115  1
  O  O519  1  0.91024463  0.01794980  0.92160073  1
  O  O520  1  0.91127219  0.35101616  0.17268656  1
  O  O521  1  0.91039537  0.35165030  0.42178020  1
  O  O522  1  0.91107739  0.35080004  0.67277752  1
  O  O523  1  0.91153471  0.35025351  0.92121882  1
  O  O524  1  0.91394782  0.68472775  0.17191040  1
  O  O525  1  0.91224920  0.68523442  0.42283840  1
  O  O526  1  0.91069828  0.68519859  0.67273346  1
  O  O527  1  0.91023828  0.68696179  0.92284112  1
  O  O528  1  0.16309512  0.01845695  0.20271513  1
  O  O529  1  0.16288723  0.01812405  0.45315259  1
  O  O530  1  0.16072748  0.01819651  0.70184129  1
  O  O531  1  0.16252389  0.01847744  0.95240125  1
  O  O532  1  0.16307502  0.35120884  0.20245159  1
  O  O533  1  0.16223920  0.35003048  0.45306339  1
  O  O534  1  0.16397668  0.35065465  0.70209345  1
  O  O535  1  0.16383086  0.35253963  0.95188558  1
  O  O536  1  0.16179290  0.68550057  0.20234164  1
  O  O537  1  0.16058473  0.68645340  0.45204898  1
  O  O538  1  0.16352905  0.68609501  0.70208375  1
  O  O539  1  0.16399116  0.68410613  0.95304142  1
  O  O540  1  0.66189151  0.01866098  0.20359407  1
  O  O541  1  0.66232782  0.01906621  0.45246951  1
  O  O542  1  0.66383832  0.01805638  0.70126222  1
  O  O543  1  0.66461360  0.01746562  0.95241976  1
  O  O544  1  0.66341842  0.35134744  0.20201171  1
  O  O545  1  0.66283506  0.35046074  0.45328347  1
  O  O546  1  0.66372609  0.35055909  0.70312178  1
  O  O547  1  0.66127117  0.35180890  0.95201396  1
  O  O548  1  0.66311391  0.68414508  0.20312698  1
  O  O549  1  0.66461976  0.68523129  0.45305126  1
  O  O550  1  0.66389104  0.68589343  0.70188534  1
  O  O551  1  0.66271220  0.68639038  0.95072497  1
  O  O552  1  0.33766317  0.31641774  0.04686706  1
  O  O553  1  0.33873758  0.31486728  0.29899861  1
  O  O554  1  0.33839779  0.31343584  0.54819322  1
  O  O555  1  0.33640052  0.31531441  0.79652552  1
  O  O556  1  0.33708838  0.64807721  0.04745395  1
  O  O557  1  0.33681345  0.64944223  0.29746447  1
  O  O558  1  0.33746833  0.64850774  0.54793872  1
  O  O559  1  0.33866146  0.64871728  0.79641090  1
  O  O560  1  0.33884049  0.98099180  0.04796067  1
  O  O561  1  0.33975406  0.98052297  0.29847902  1
  O  O562  1  0.33715742  0.98302563  0.54817224  1
  O  O563  1  0.33665849  0.98128222  0.79711965  1
  O  O564  1  0.83963753  0.31349715  0.04748274  1
  O  O565  1  0.83676835  0.31641210  0.29745900  1
  O  O566  1  0.83783846  0.31373639  0.54820828  1
  O  O567  1  0.83754165  0.31450825  0.79747526  1
  O  O568  1  0.83698091  0.65000161  0.04686834  1
  O  O569  1  0.83683180  0.64723393  0.29828426  1
  O  O570  1  0.83892962  0.64943781  0.54745292  1
  O  O571  1  0.83861748  0.64815204  0.79656445  1
  O  O572  1  0.83702873  0.98111576  0.04680230  1
  O  O573  1  0.83820882  0.98133714  0.29859077  1
  O  O574  1  0.83964076  0.98190899  0.54740662  1
  O  O575  1  0.83771373  0.98273986  0.79683961  1
  O  O576  1  0.41337149  0.14735252  0.17282902  1
  O  O577  1  0.41329222  0.14857073  0.42396756  1
  O  O578  1  0.41341659  0.14863388  0.67233483  1
  O  O579  1  0.41403546  0.14869907  0.92214870  1
  O  O580  1  0.41443030  0.48165093  0.17271198  1
  O  O581  1  0.41269149  0.48021476  0.42222752  1
  O  O582  1  0.41137702  0.48109263  0.67274447  1
  O  O583  1  0.41293003  0.48112616  0.92314854  1
  O  O584  1  0.41089231  0.81629986  0.17164186  1
  O  O585  1  0.41167979  0.81626521  0.42155554  1
  O  O586  1  0.41131254  0.81579130  0.67317021  1
  O  O587  1  0.41270376  0.81514274  0.92277468  1
  O  O588  1  0.91112054  0.14894614  0.17155185  1
  O  O589  1  0.91078897  0.14824102  0.42353048  1
  O  O590  1  0.91200216  0.14869451  0.67230084  1
  O  O591  1  0.91001367  0.14818436  0.92127374  1
  O  O592  1  0.91097190  0.48099799  0.17302231  1
  O  O593  1  0.91065067  0.48203083  0.42131202  1
  O  O594  1  0.91094235  0.48099693  0.67306051  1
  O  O595  1  0.91179828  0.48054176  0.92218790  1
  O  O596  1  0.91362997  0.81472794  0.17218190  1
  O  O597  1  0.91284929  0.81521426  0.42332600  1
  O  O598  1  0.91033069  0.81548602  0.67240724  1
  O  O599  1  0.91135853  0.81707977  0.92208440  1
  O  O600  1  0.08471247  0.18500991  0.07698383  1
  O  O601  1  0.08534019  0.18454436  0.32785038  1
  O  O602  1  0.08679292  0.18416131  0.57713582  1
  O  O603  1  0.08626129  0.18468845  0.82622972  1
  O  O604  1  0.08879128  0.51897526  0.07657664  1
  O  O605  1  0.08472364  0.51942259  0.32726193  1
  O  O606  1  0.08452366  0.51801928  0.57755080  1
  O  O607  1  0.08780020  0.51827764  0.82747604  1
  O  O608  1  0.08744503  0.85110863  0.07745021  1
  O  O609  1  0.08602448  0.85084570  0.32891245  1
  O  O610  1  0.08749547  0.85281196  0.57729593  1
  O  O611  1  0.08552317  0.85157629  0.82580214  1
  O  O612  1  0.58936215  0.18544228  0.07801547  1
  O  O613  1  0.58791180  0.18302099  0.32885966  1
  O  O614  1  0.58791818  0.18393939  0.57765623  1
  O  O615  1  0.58971211  0.18603410  0.82632754  1
  O  O616  1  0.58823319  0.51753772  0.07829016  1
  O  O617  1  0.58865952  0.51859648  0.32714776  1
  O  O618  1  0.58507408  0.51851087  0.57741059  1
  O  O619  1  0.58787637  0.51852849  0.82750385  1
  O  O620  1  0.58708921  0.85143616  0.07627863  1
  O  O621  1  0.58552464  0.85266648  0.32743217  1
  O  O622  1  0.58670646  0.85217994  0.57758698  1
  O  O623  1  0.58931970  0.85028110  0.82723265  1
  O  O624  1  0.33816052  0.18613402  0.04729427  1
  O  O625  1  0.33881238  0.18491462  0.29920026  1
  O  O626  1  0.33775348  0.18348760  0.54830929  1
  O  O627  1  0.33635577  0.18518525  0.79710042  1
  O  O628  1  0.33681681  0.51780211  0.04736114  1
  O  O629  1  0.33715256  0.51918488  0.29787794  1
  O  O630  1  0.33769732  0.51851929  0.54780449  1
  O  O631  1  0.33864593  0.51817523  0.79634501  1
  O  O632  1  0.33852120  0.85092076  0.04749467  1
  O  O633  1  0.33837819  0.85043048  0.29749207  1
  O  O634  1  0.33783570  0.85310827  0.54785844  1
  O  O635  1  0.33640839  0.85118761  0.79667875  1
  O  O636  1  0.83856505  0.18326143  0.04688768  1
  O  O637  1  0.83745360  0.18638810  0.29837214  1
  O  O638  1  0.83734917  0.18388914  0.54797507  1
  O  O639  1  0.83803415  0.18441573  0.79649790  1
  O  O640  1  0.83710191  0.51965314  0.04741969  1
  O  O641  1  0.83645267  0.51716729  0.29757504  1
  O  O642  1  0.83935569  0.51926801  0.54791654  1
  O  O643  1  0.83829353  0.51778659  0.79688913  1
  O  O644  1  0.83643353  0.85088591  0.04664134  1
  O  O645  1  0.83860898  0.85139211  0.29827769  1
  O  O646  1  0.83961419  0.85177705  0.54756902  1
  O  O647  1  0.83815719  0.85264275  0.79716456  1
  O  O648  1  0.16316361  0.14860244  0.20276098  1
  O  O649  1  0.16281207  0.14846052  0.45325684  1
  O  O650  1  0.16077478  0.14834012  0.70171657  1
  O  O651  1  0.16242482  0.14867691  0.95244885  1
  O  O652  1  0.16257083  0.48141385  0.20289396  1
  O  O653  1  0.16167967  0.48054240  0.45286085  1
  O  O654  1  0.16398340  0.48082196  0.70180179  1
  O  O655  1  0.16440515  0.48277542  0.95242390  1
  O  O656  1  0.16232531  0.81553113  0.20230409  1
  O  O657  1  0.16115552  0.81671430  0.45254777  1
  O  O658  1  0.16383278  0.81618992  0.70235309  1
  O  O659  1  0.16351971  0.81424274  0.95246543  1
  O  O660  1  0.66187257  0.14907836  0.20433053  1
  O  O661  1  0.66276573  0.14909207  0.45308785  1
  O  O662  1  0.66345810  0.14806797  0.70155900  1
  O  O663  1  0.66521424  0.14750513  0.95181540  1
  O  O664  1  0.66296571  0.48146854  0.20228740  1
  O  O665  1  0.66270617  0.48082820  0.45309274  1
  O  O666  1  0.66358302  0.48077265  0.70236315  1
  O  O667  1  0.66144496  0.48177367  0.95179310  1
  O  O668  1  0.66251229  0.81437546  0.20279047  1
  O  O669  1  0.66495147  0.81528811  0.45249622  1
  O  O670  1  0.66404329  0.81613547  0.70242578  1
  O  O671  1  0.66334852  0.81633938  0.95138997  1
