# generated using pymatgen
data_Na2MnFe(PO4)2
_symmetry_space_group_name_H-M   'P 1'
_cell_length_a   21.08797193
_cell_length_b   18.94076712
_cell_length_c   20.04674532
_cell_angle_alpha   90.00030666
_cell_angle_beta   89.99836842
_cell_angle_gamma   89.99822403
_symmetry_Int_Tables_number   1
_chemical_formula_structural   Na2MnFe(PO4)2
_chemical_formula_sum   'Na96 Mn48 Fe48 P96 O384'
_cell_volume   8007.11842528
_cell_formula_units_Z   48
loop_
 _symmetry_equiv_pos_site_id
 _symmetry_equiv_pos_as_xyz
  1  'x, y, z'
loop_
 _atom_site_type_symbol
 _atom_site_label
 _atom_site_symmetry_multiplicity
 _atom_site_fract_x
 _atom_site_fract_y
 _atom_site_fract_z
 _atom_site_occupancy
  Na  Na0  1  0.00007496  -0.00025792  -0.00050847  1
  Na  Na1  1  0.00053737  -0.00026350  0.24943793  1
  Na  Na2  1  -0.00051032  -0.00032756  0.50074935  1
  Na  Na3  1  0.00099470  0.00066970  0.75034794  1
  Na  Na4  1  -0.00030923  0.33332989  -0.00036218  1
  Na  Na5  1  0.00119707  0.33362472  0.24941714  1
  Na  Na6  1  0.00372765  0.33457902  0.49989177  1
  Na  Na7  1  -0.00038503  0.33274633  0.75047635  1
  Na  Na8  1  0.00202701  0.66752341  0.00100121  1
  Na  Na9  1  0.00166166  0.66707018  0.24966071  1
  Na  Na10  1  -0.00018801  0.66631348  0.49997984  1
  Na  Na11  1  -0.00017799  0.66635059  0.75015576  1
  Na  Na12  1  0.50160335  0.00001587  -0.00015947  1
  Na  Na13  1  0.50131666  0.00021525  0.24928343  1
  Na  Na14  1  0.49754448  -0.00070817  0.50038031  1
  Na  Na15  1  0.49744787  -0.00070664  0.75003370  1
  Na  Na16  1  0.50332594  0.33383431  -0.00069637  1
  Na  Na17  1  0.50171280  0.33338562  0.25120504  1
  Na  Na18  1  0.50053263  0.33280677  0.50002342  1
  Na  Na19  1  0.50366739  0.33417991  0.75064880  1
  Na  Na20  1  0.49688003  0.66580186  0.00073453  1
  Na  Na21  1  0.49761877  0.66673883  0.24925982  1
  Na  Na22  1  0.49716808  0.66646318  0.49885150  1
  Na  Na23  1  0.49734858  0.66620986  0.75014257  1
  Na  Na24  1  0.24834281  -0.00107624  0.12412187  1
  Na  Na25  1  0.25018521  -0.00001537  0.37587819  1
  Na  Na26  1  0.25011494  -0.00015695  0.62439214  1
  Na  Na27  1  0.24949575  -0.00010119  0.87438537  1
  Na  Na28  1  0.24779040  0.33305030  0.12577078  1
  Na  Na29  1  0.24819838  0.33337831  0.37533751  1
  Na  Na30  1  0.24857395  0.33257806  0.62495399  1
  Na  Na31  1  0.24936615  0.33291321  0.87456176  1
  Na  Na32  1  0.24934921  0.66689546  0.12489649  1
  Na  Na33  1  0.24866250  0.66651849  0.37513056  1
  Na  Na34  1  0.25012974  0.66641089  0.62572347  1
  Na  Na35  1  0.25089715  0.66664193  0.87477098  1
  Na  Na36  1  0.74965325  -0.00026528  0.12591342  1
  Na  Na37  1  0.75020692  -0.00042713  0.37568837  1
  Na  Na38  1  0.75168829  0.00085439  0.62447678  1
  Na  Na39  1  0.75049072  0.00017945  0.87474744  1
  Na  Na40  1  0.74840860  0.33290186  0.12427376  1
  Na  Na41  1  0.74959455  0.33352887  0.37593072  1
  Na  Na42  1  0.74695338  0.33193954  0.62477342  1
  Na  Na43  1  0.74860893  0.33359858  0.87469842  1
  Na  Na44  1  0.75152568  0.66727153  0.12550330  1
  Na  Na45  1  0.75296415  0.66710309  0.37569078  1
  Na  Na46  1  0.75275179  0.66713289  0.62445280  1
  Na  Na47  1  0.75075968  0.66698144  0.87371840  1
  Na  Na48  1  -0.00136260  0.16641387  -0.00066795  1
  Na  Na49  1  -0.00169254  0.16711168  0.24981923  1
  Na  Na50  1  -0.00098118  0.16673228  0.50017033  1
  Na  Na51  1  -0.00170865  0.16678575  0.75032868  1
  Na  Na52  1  0.00015252  0.50032492  0.00044774  1
  Na  Na53  1  0.00247616  0.49950134  0.24945402  1
  Na  Na54  1  0.00094724  0.50038228  0.49933105  1
  Na  Na55  1  0.00091050  0.49980248  0.75143759  1
  Na  Na56  1  0.00264336  0.83319832  0.00038689  1
  Na  Na57  1  0.00278881  0.83287454  0.24952065  1
  Na  Na58  1  0.00203262  0.83368085  0.50077266  1
  Na  Na59  1  0.00243887  0.83303964  0.74942356  1
  Na  Na60  1  0.50278839  0.16571244  -0.00111778  1
  Na  Na61  1  0.50059401  0.16683763  0.25050718  1
  Na  Na62  1  0.49970872  0.16622667  0.50116855  1
  Na  Na63  1  0.49933314  0.16713548  0.74987751  1
  Na  Na64  1  0.50188716  0.49897763  0.00019652  1
  Na  Na65  1  0.49973514  0.50022636  0.25003459  1
  Na  Na66  1  0.49891456  0.50014251  0.49960763  1
  Na  Na67  1  0.49902373  0.50052355  0.74968531  1
  Na  Na68  1  0.49897638  0.83361338  0.00101954  1
  Na  Na69  1  0.49911398  0.83344550  0.24893423  1
  Na  Na70  1  0.49711436  0.83408598  0.49868043  1
  Na  Na71  1  0.49862406  0.83370469  0.75085897  1
  Na  Na72  1  0.24921673  0.16702724  0.12528800  1
  Na  Na73  1  0.25054996  0.16630364  0.37552257  1
  Na  Na74  1  0.25154878  0.16605480  0.62548227  1
  Na  Na75  1  0.25041513  0.16680370  0.87417564  1
  Na  Na76  1  0.24649666  0.50119216  0.12477088  1
  Na  Na77  1  0.24747191  0.50030381  0.37563529  1
  Na  Na78  1  0.24885474  0.50034135  0.62452293  1
  Na  Na79  1  0.24959128  0.49989968  0.87482676  1
  Na  Na80  1  0.24882422  0.83360677  0.12489171  1
  Na  Na81  1  0.24918921  0.83360093  0.37522839  1
  Na  Na82  1  0.24895518  0.83436294  0.62500337  1
  Na  Na83  1  0.24931406  0.83405649  0.87487057  1
  Na  Na84  1  0.74985043  0.16657655  0.12564620  1
  Na  Na85  1  0.75064171  0.16624369  0.37508269  1
  Na  Na86  1  0.75013235  0.16638064  0.62471484  1
  Na  Na87  1  0.74903825  0.16676234  0.87463958  1
  Na  Na88  1  0.75001725  0.50027460  0.12501076  1
  Na  Na89  1  0.75168089  0.49969223  0.37654277  1
  Na  Na90  1  0.74991406  0.50026223  0.62465536  1
  Na  Na91  1  0.75013015  0.49987292  0.87444916  1
  Na  Na92  1  0.74868693  0.83431238  0.12521888  1
  Na  Na93  1  0.75128427  0.83297893  0.37539296  1
  Na  Na94  1  0.75120207  0.83336146  0.62416187  1
  Na  Na95  1  0.75006375  0.83343499  0.87422538  1
  Mn  Mn96  1  0.35790011  0.08374086  0.00195258  1
  Mn  Mn97  1  0.60874031  0.08379140  0.12250664  1
  Mn  Mn98  1  0.39355540  0.25027025  0.87774717  1
  Mn  Mn99  1  0.64169969  0.91677918  0.74726224  1
  Mn  Mn100  1  0.64190823  0.91663021  0.49783024  1
  Mn  Mn101  1  0.85902188  0.75029725  0.25232469  1
  Mn  Mn102  1  0.60731481  0.75042318  0.37291303  1
  Mn  Mn103  1  0.85859857  0.41629282  0.50285147  1
  Mn  Mn104  1  0.39122388  0.58202136  0.12740013  1
  Mn  Mn105  1  0.35661139  0.75020568  0.50199252  1
  Mn  Mn106  1  0.85775321  0.08294012  0.25271974  1
  Mn  Mn107  1  0.10787632  0.08365945  0.12221041  1
  Mn  Mn108  1  0.64150907  0.58371345  0.74706632  1
  Mn  Mn109  1  0.39206140  0.24972646  0.37769250  1
  Mn  Mn110  1  0.85860983  0.75066930  0.75257223  1
  Mn  Mn111  1  0.89344189  0.91657777  0.62724080  1
  Mn  Mn112  1  0.60683862  0.08286334  0.62268512  1
  Mn  Mn113  1  0.60719930  0.74977155  0.87346571  1
  Mn  Mn114  1  0.89245853  0.25088735  0.62693293  1
  Mn  Mn115  1  0.35793850  0.41633649  0.00244337  1
  Mn  Mn116  1  0.39270393  0.25035050  0.12635521  1
  Mn  Mn117  1  0.35660022  0.41606245  0.50235129  1
  Mn  Mn118  1  0.89281026  0.91634285  0.87735417  1
  Mn  Mn119  1  0.14253382  0.58342637  0.74779022  1
  Mn  Mn120  1  0.35824318  0.41580214  0.75199929  1
  Mn  Mn121  1  0.85844140  0.41683060  0.25201349  1
  Mn  Mn122  1  0.35682461  0.41702689  0.25188435  1
  Mn  Mn123  1  0.64233781  0.58405999  0.24876540  1
  Mn  Mn124  1  0.35762860  0.75061782  0.75263761  1
  Mn  Mn125  1  0.39189662  0.91724349  0.12716172  1
  Mn  Mn126  1  0.64236897  0.58388801  0.49775814  1
  Mn  Mn127  1  0.89267099  0.91615646  0.12675634  1
  Mn  Mn128  1  0.35798654  0.08284859  0.25239482  1
  Mn  Mn129  1  0.89192326  0.25044332  0.12656483  1
  Mn  Mn130  1  0.10723880  0.08335636  0.87251295  1
  Mn  Mn131  1  0.14132691  0.24941626  0.24775656  1
  Mn  Mn132  1  0.10748973  0.08333324  0.37307848  1
  Mn  Mn133  1  0.85735400  0.41598598  0.75147820  1
  Mn  Mn134  1  0.10808412  0.74962368  0.62231264  1
  Mn  Mn135  1  0.60745387  0.74915585  0.12266056  1
  Mn  Mn136  1  0.64251312  0.58436367  0.99762175  1
  Mn  Mn137  1  0.89343904  0.58355310  0.12694574  1
  Mn  Mn138  1  0.64242959  0.24994872  0.24829560  1
  Mn  Mn139  1  0.60700972  0.74956861  0.62228768  1
  Mn  Mn140  1  0.14194366  0.24912480  0.74763497  1
  Mn  Mn141  1  0.10715246  0.41653898  0.87309397  1
  Mn  Mn142  1  0.89240035  0.58356156  0.87774421  1
  Mn  Mn143  1  0.60765026  0.41730919  0.37290666  1
  Fe  Fe144  1  0.64298791  0.91644365  0.99811943  1
  Fe  Fe145  1  0.14201080  0.24981540  0.99774915  1
  Fe  Fe146  1  0.14259239  0.91662443  0.24888377  1
  Fe  Fe147  1  0.85733219  0.08318471  0.50154710  1
  Fe  Fe148  1  0.39198989  0.91684188  0.37590488  1
  Fe  Fe149  1  0.10855668  0.74977220  0.12236952  1
  Fe  Fe150  1  0.85740281  0.08354566  0.75149719  1
  Fe  Fe151  1  0.10811791  0.75000215  0.87378196  1
  Fe  Fe152  1  0.39167391  0.58270182  0.62605126  1
  Fe  Fe153  1  0.14236240  0.58415696  0.24849600  1
  Fe  Fe154  1  0.14358330  0.91755119  0.74829915  1
  Fe  Fe155  1  0.60799638  0.41721973  0.87301697  1
  Fe  Fe156  1  0.89273814  0.25017686  0.37732006  1
  Fe  Fe157  1  0.39244932  0.91650191  0.87725039  1
  Fe  Fe158  1  0.64245576  0.24923403  0.49854961  1
  Fe  Fe159  1  0.60779837  0.08273495  0.87252289  1
  Fe  Fe160  1  0.64261337  0.91603054  0.24924807  1
  Fe  Fe161  1  0.14301172  0.91709569  0.99747896  1
  Fe  Fe162  1  0.60812467  0.41712081  0.12353729  1
  Fe  Fe163  1  0.85897067  0.75059674  0.50119646  1
  Fe  Fe164  1  0.89318729  0.91645597  0.37678336  1
  Fe  Fe165  1  0.64296723  0.24936519  0.74795277  1
  Fe  Fe166  1  0.39130991  0.91655156  0.62693927  1
  Fe  Fe167  1  0.85628929  0.08290551  0.00116648  1
  Fe  Fe168  1  0.85644910  0.41677003  0.00178101  1
  Fe  Fe169  1  0.39095708  0.58338622  0.37652465  1
  Fe  Fe170  1  0.14312955  0.91728750  0.49770141  1
  Fe  Fe171  1  0.14277374  0.24922843  0.49849080  1
  Fe  Fe172  1  0.35580114  0.75003670  0.25138019  1
  Fe  Fe173  1  0.35725158  0.08368380  0.50169198  1
  Fe  Fe174  1  0.64340841  0.24953900  0.99793712  1
  Fe  Fe175  1  0.14307744  0.58330640  0.99771398  1
  Fe  Fe176  1  0.39290573  0.25035158  0.62675445  1
  Fe  Fe177  1  0.85836374  0.75056157  0.00144033  1
  Fe  Fe178  1  0.10740198  0.41628554  0.12204994  1
  Fe  Fe179  1  0.89412141  0.58351846  0.37650775  1
  Fe  Fe180  1  0.89370387  0.58269436  0.62627530  1
  Fe  Fe181  1  0.10693864  0.41672461  0.37315279  1
  Fe  Fe182  1  0.10779382  0.41620227  0.62359742  1
  Fe  Fe183  1  0.10719860  0.75002339  0.37343700  1
  Fe  Fe184  1  0.60706390  0.08246243  0.37438958  1
  Fe  Fe185  1  0.14186693  0.58339831  0.49797762  1
  Fe  Fe186  1  0.35714746  0.08347347  0.75181029  1
  Fe  Fe187  1  0.89131505  0.25019820  0.87702760  1
  Fe  Fe188  1  0.10772032  0.08431879  0.62305818  1
  Fe  Fe189  1  0.39250299  0.58314764  0.87713233  1
  Fe  Fe190  1  0.60663911  0.41732838  0.62323797  1
  Fe  Fe191  1  0.35602646  0.75011159  0.00136136  1
  P  P192  1  0.05365055  0.25028458  0.10879335  1
  P  P193  1  0.05300870  0.24998382  0.36137794  1
  P  P194  1  0.05407430  0.24953758  0.60965600  1
  P  P195  1  0.05236171  0.24978939  0.86089392  1
  P  P196  1  0.05635814  0.58348170  0.11065834  1
  P  P197  1  0.05441342  0.58378750  0.36075112  1
  P  P198  1  0.05337901  0.58253111  0.60959104  1
  P  P199  1  0.05486934  0.58432719  0.86151996  1
  P  P200  1  0.05584739  0.91609693  0.11029175  1
  P  P201  1  0.05408863  0.91633004  0.36093390  1
  P  P202  1  0.05637165  0.91817366  0.61081654  1
  P  P203  1  0.05570835  0.91588767  0.86031306  1
  P  P204  1  0.55478810  0.25090830  0.10924708  1
  P  P205  1  0.55467157  0.24852935  0.36196559  1
  P  P206  1  0.55408367  0.25028992  0.61094034  1
  P  P207  1  0.55651802  0.24946784  0.86059741  1
  P  P208  1  0.55318879  0.58272840  0.11014707  1
  P  P209  1  0.55109071  0.58406522  0.35995178  1
  P  P210  1  0.55130415  0.58306426  0.60955133  1
  P  P211  1  0.55202908  0.58336392  0.86016682  1
  P  P212  1  0.55525107  0.91631269  0.11039455  1
  P  P213  1  0.55216502  0.91732642  0.35965138  1
  P  P214  1  0.55089062  0.91642143  0.60985431  1
  P  P215  1  0.55338873  0.91687766  0.86121291  1
  P  P216  1  0.44728027  0.08376726  0.13986366  1
  P  P217  1  0.44690317  0.08226100  0.39065702  1
  P  P218  1  0.44392486  0.08353523  0.63939138  1
  P  P219  1  0.44698922  0.08261345  0.88872133  1
  P  P220  1  0.44827138  0.41595422  0.14030861  1
  P  P221  1  0.44577561  0.41723156  0.39006764  1
  P  P222  1  0.44735713  0.41595284  0.63956646  1
  P  P223  1  0.44831098  0.41698099  0.88996138  1
  P  P224  1  0.44362107  0.74993263  0.13938797  1
  P  P225  1  0.44394728  0.75036656  0.38785197  1
  P  P226  1  0.44541508  0.75008070  0.63988840  1
  P  P227  1  0.44525591  0.75028331  0.89083740  1
  P  P228  1  0.94519162  0.08304759  0.13854078  1
  P  P229  1  0.94600112  0.08291530  0.39058440  1
  P  P230  1  0.94642638  0.08362122  0.63950350  1
  P  P231  1  0.94423931  0.08392883  0.88938438  1
  P  P232  1  0.94697235  0.41680868  0.13853063  1
  P  P233  1  0.94800652  0.41672405  0.38974162  1
  P  P234  1  0.94866421  0.41733798  0.63997905  1
  P  P235  1  0.94515643  0.41587151  0.89074764  1
  P  P236  1  0.94788409  0.75024327  0.13882175  1
  P  P237  1  0.94820287  0.75040558  0.39016245  1
  P  P238  1  0.94629788  0.74928765  0.63892989  1
  P  P239  1  0.94832567  0.75039944  0.89102789  1
  P  P240  1  0.19655999  0.08222122  0.23514547  1
  P  P241  1  0.19667975  0.08371492  0.48653390  1
  P  P242  1  0.19713064  0.08270047  0.73436104  1
  P  P243  1  0.19650666  0.08377318  0.98440076  1
  P  P244  1  0.19371364  0.41762247  0.23569431  1
  P  P245  1  0.19384222  0.41619717  0.48595035  1
  P  P246  1  0.19607561  0.41644158  0.73438194  1
  P  P247  1  0.19542076  0.41634005  0.98577217  1
  P  P248  1  0.19517577  0.75026550  0.23608325  1
  P  P249  1  0.19531740  0.75010330  0.48486564  1
  P  P250  1  0.19576962  0.75091629  0.73605546  1
  P  P251  1  0.19592779  0.74993225  0.98538528  1
  P  P252  1  0.69539627  0.08210148  0.23695872  1
  P  P253  1  0.69690283  0.08366620  0.48486614  1
  P  P254  1  0.69659718  0.08372066  0.73564641  1
  P  P255  1  0.69691490  0.08286338  0.98449173  1
  P  P256  1  0.69650427  0.41716927  0.23467790  1
  P  P257  1  0.69531382  0.41625096  0.48660643  1
  P  P258  1  0.69440544  0.41611490  0.73509781  1
  P  P259  1  0.69605190  0.41658728  0.98552020  1
  P  P260  1  0.69701951  0.75064367  0.23540602  1
  P  P261  1  0.69840888  0.74997598  0.48495326  1
  P  P262  1  0.69670920  0.75018342  0.73421927  1
  P  P263  1  0.69844496  0.75070301  0.98490988  1
  P  P264  1  0.30172671  0.25018619  0.01495427  1
  P  P265  1  0.30284722  0.25024534  0.26518032  1
  P  P266  1  0.30269502  0.24950972  0.51565659  1
  P  P267  1  0.30481083  0.24932739  0.76398786  1
  P  P268  1  0.30317552  0.58359296  0.01371819  1
  P  P269  1  0.30157697  0.58380863  0.26532927  1
  P  P270  1  0.30259212  0.58317564  0.51417496  1
  P  P271  1  0.30541493  0.58283171  0.76461826  1
  P  P272  1  0.30320034  0.91622428  0.01350440  1
  P  P273  1  0.30217599  0.91592143  0.26523875  1
  P  P274  1  0.30374255  0.91737439  0.51402929  1
  P  P275  1  0.30425177  0.91769124  0.76451991  1
  P  P276  1  0.80304111  0.24978454  0.01339731  1
  P  P277  1  0.80424274  0.25048655  0.26598507  1
  P  P278  1  0.80357104  0.24925097  0.51397431  1
  P  P279  1  0.80281536  0.24952507  0.76511010  1
  P  P280  1  0.80387706  0.58370312  0.01490933  1
  P  P281  1  0.80476159  0.58325043  0.26606975  1
  P  P282  1  0.80637919  0.58402015  0.51440237  1
  P  P283  1  0.80464539  0.58285125  0.76358226  1
  P  P284  1  0.80252784  0.91675645  0.01471525  1
  P  P285  1  0.80326542  0.91636824  0.26588780  1
  P  P286  1  0.80531823  0.91679991  0.51366324  1
  P  P287  1  0.80370510  0.91761908  0.76477358  1
  O  O288  1  0.05638464  0.24933201  0.18565697  1
  O  O289  1  0.05818744  0.24897087  0.43794040  1
  O  O290  1  0.05638284  0.24894925  0.68654553  1
  O  O291  1  0.05762811  0.24943654  0.93746143  1
  O  O292  1  0.05958599  0.58387189  0.18751064  1
  O  O293  1  0.05851365  0.58391014  0.43742374  1
  O  O294  1  0.05669985  0.58335013  0.68642347  1
  O  O295  1  0.05901625  0.58376199  0.93824685  1
  O  O296  1  0.05958219  0.91687638  0.18709924  1
  O  O297  1  0.05894800  0.91736741  0.43761058  1
  O  O298  1  0.06009589  0.91773744  0.68766651  1
  O  O299  1  0.05973860  0.91701963  0.93712959  1
  O  O300  1  0.55723635  0.24985599  0.18608574  1
  O  O301  1  0.55864230  0.24890227  0.43874875  1
  O  O302  1  0.55870490  0.24922372  0.68764322  1
  O  O303  1  0.56064545  0.24919339  0.93740954  1
  O  O304  1  0.55649929  0.58400081  0.18683603  1
  O  O305  1  0.55555248  0.58429019  0.43662592  1
  O  O306  1  0.55513154  0.58382841  0.68620325  1
  O  O307  1  0.55617812  0.58397378  0.93685073  1
  O  O308  1  0.55949513  0.91614518  0.18707275  1
  O  O309  1  0.55573516  0.91635962  0.43642333  1
  O  O310  1  0.55515589  0.91664819  0.68649908  1
  O  O311  1  0.55885257  0.91645202  0.93788117  1
  O  O312  1  0.44389863  0.08341457  0.06305447  1
  O  O313  1  0.44377305  0.08319348  0.31390540  1
  O  O314  1  0.43995941  0.08350472  0.56256852  1
  O  O315  1  0.44176862  0.08322948  0.81211665  1
  O  O316  1  0.44425803  0.41602127  0.06358452  1
  O  O317  1  0.44268989  0.41655226  0.31333270  1
  O  O318  1  0.44338760  0.41554213  0.56291129  1
  O  O319  1  0.44424770  0.41618102  0.81334599  1
  O  O320  1  0.43899406  0.75011869  0.06262834  1
  O  O321  1  0.43986999  0.75025247  0.31118999  1
  O  O322  1  0.44248015  0.75043120  0.56274696  1
  O  O323  1  0.44270968  0.75062676  0.81445075  1
  O  O324  1  0.94036012  0.08266417  0.06181979  1
  O  O325  1  0.94344126  0.08282356  0.31373391  1
  O  O326  1  0.94132858  0.08344649  0.56287006  1
  O  O327  1  0.94031528  0.08334928  0.81256426  1
  O  O328  1  0.94108595  0.41668319  0.06198008  1
  O  O329  1  0.94478093  0.41647514  0.31300293  1
  O  O330  1  0.94507674  0.41660270  0.56340588  1
  O  O331  1  0.94241355  0.41623436  0.81390377  1
  O  O332  1  0.94222622  0.75074148  0.06224959  1
  O  O333  1  0.94524372  0.75067526  0.31339481  1
  O  O334  1  0.94244474  0.75054739  0.56206029  1
  O  O335  1  0.94434349  0.75063457  0.81428837  1
  O  O336  1  0.19371620  0.08375763  0.06112987  1
  O  O337  1  0.19346374  0.08295480  0.31194241  1
  O  O338  1  0.19235926  0.08388576  0.56313071  1
  O  O339  1  0.19306292  0.08372520  0.81103252  1
  O  O340  1  0.19167230  0.41627792  0.06255542  1
  O  O341  1  0.18968405  0.41658701  0.31257872  1
  O  O342  1  0.19049393  0.41660804  0.56276801  1
  O  O343  1  0.19268797  0.41646730  0.81115760  1
  O  O344  1  0.19225522  0.74993048  0.06216130  1
  O  O345  1  0.19073870  0.75017217  0.31279149  1
  O  O346  1  0.19331059  0.74969247  0.56128726  1
  O  O347  1  0.19221108  0.74988719  0.81311791  1
  O  O348  1  0.69404930  0.08305836  0.06128152  1
  O  O349  1  0.69133839  0.08262838  0.31362918  1
  O  O350  1  0.69296245  0.08308069  0.56159565  1
  O  O351  1  0.69175153  0.08260369  0.81228114  1
  O  O352  1  0.69170105  0.41735475  0.06222112  1
  O  O353  1  0.69335485  0.41734184  0.31151549  1
  O  O354  1  0.69048939  0.41713483  0.56335643  1
  O  O355  1  0.69072255  0.41770483  0.81193452  1
  O  O356  1  0.69422135  0.74987025  0.06155299  1
  O  O357  1  0.69367354  0.74973799  0.31214564  1
  O  O358  1  0.69383793  0.74980172  0.56159547  1
  O  O359  1  0.69272432  0.74999986  0.81095896  1
  O  O360  1  0.30634644  0.25043579  0.18846215  1
  O  O361  1  0.30622907  0.25035515  0.43891489  1
  O  O362  1  0.30914888  0.25049694  0.68731626  1
  O  O363  1  0.30649487  0.25041437  0.93825171  1
  O  O364  1  0.30513725  0.58282475  0.18858898  1
  O  O365  1  0.30749926  0.58299603  0.43751759  1
  O  O366  1  0.30941110  0.58256376  0.68774354  1
  O  O367  1  0.30837791  0.58250184  0.93703294  1
  O  O368  1  0.30563221  0.91670788  0.18853118  1
  O  O369  1  0.30843062  0.91690659  0.43739981  1
  O  O370  1  0.30827766  0.91669291  0.68773825  1
  O  O371  1  0.30817432  0.91698825  0.93683031  1
  O  O372  1  0.80716602  0.25058686  0.18913556  1
  O  O373  1  0.80880048  0.25049895  0.43735900  1
  O  O374  1  0.80655982  0.25022684  0.68836287  1
  O  O375  1  0.80700239  0.25022407  0.93671907  1
  O  O376  1  0.80808795  0.58323310  0.18928616  1
  O  O377  1  0.81115577  0.58307555  0.43765159  1
  O  O378  1  0.80959980  0.58253698  0.68685403  1
  O  O379  1  0.80633288  0.58366900  0.93809024  1
  O  O380  1  0.80717802  0.91637716  0.18917401  1
  O  O381  1  0.80945061  0.91628646  0.43698066  1
  O  O382  1  0.80734275  0.91701380  0.68796696  1
  O  O383  1  0.80631019  0.91635197  0.93806894  1
  O  O384  1  0.23159601  0.25001650  0.03895813  1
  O  O385  1  0.23305974  0.24984683  0.29005877  1
  O  O386  1  0.23259441  0.24948242  0.54004390  1
  O  O387  1  0.23468523  0.24948189  0.78798430  1
  O  O388  1  0.23281197  0.58380818  0.03721942  1
  O  O389  1  0.23140345  0.58372808  0.28968387  1
  O  O390  1  0.23212060  0.58331814  0.53743362  1
  O  O391  1  0.23524977  0.58295680  0.78841075  1
  O  O392  1  0.23277759  0.91639142  0.03692914  1
  O  O393  1  0.23213886  0.91635947  0.28994694  1
  O  O394  1  0.23332399  0.91677458  0.53749656  1
  O  O395  1  0.23387706  0.91740157  0.78828550  1
  O  O396  1  0.73282984  0.24945535  0.03785439  1
  O  O397  1  0.73449483  0.25016579  0.29079942  1
  O  O398  1  0.73320785  0.24906591  0.53763220  1
  O  O399  1  0.73269619  0.25002261  0.78933999  1
  O  O400  1  0.73438910  0.58390674  0.04066639  1
  O  O401  1  0.73507272  0.58350004  0.29117756  1
  O  O402  1  0.73611363  0.58355756  0.53800218  1
  O  O403  1  0.73452298  0.58325167  0.78731522  1
  O  O404  1  0.73251294  0.91707557  0.03946741  1
  O  O405  1  0.73318474  0.91610898  0.29026820  1
  O  O406  1  0.73533610  0.91715868  0.53819043  1
  O  O407  1  0.73396267  0.91708003  0.78949113  1
  O  O408  1  0.26609453  0.08253940  0.20964714  1
  O  O409  1  0.26694433  0.08348014  0.46231320  1
  O  O410  1  0.26728853  0.08292684  0.71034243  1
  O  O411  1  0.26606072  0.08345999  0.95880204  1
  O  O412  1  0.26372104  0.41708289  0.21137621  1
  O  O413  1  0.26379195  0.41632161  0.46134278  1
  O  O414  1  0.26580686  0.41646682  0.70957212  1
  O  O415  1  0.26523193  0.41635751  0.96082520  1
  O  O416  1  0.26548846  0.75019975  0.21201032  1
  O  O417  1  0.26501665  0.75021480  0.45911716  1
  O  O418  1  0.26536751  0.75071595  0.71132513  1
  O  O419  1  0.26611559  0.75012841  0.96098274  1
  O  O420  1  0.76530724  0.08296006  0.21233118  1
  O  O421  1  0.76707162  0.08308796  0.46071511  1
  O  O422  1  0.76691785  0.08375290  0.71183159  1
  O  O423  1  0.76691562  0.08308427  0.95962253  1
  O  O424  1  0.76620436  0.41661049  0.20965719  1
  O  O425  1  0.76548647  0.41654787  0.46295969  1
  O  O426  1  0.76438684  0.41598940  0.71059607  1
  O  O427  1  0.76639331  0.41689417  0.96157633  1
  O  O428  1  0.76677690  0.75077724  0.21039455  1
  O  O429  1  0.76868475  0.75019269  0.46113809  1
  O  O430  1  0.76667321  0.75033385  0.70998494  1
  O  O431  1  0.76851982  0.75041253  0.96032219  1
  O  O432  1  0.01523823  0.08351941  0.16247456  1
  O  O433  1  0.01569688  0.08298781  0.41582482  1
  O  O434  1  0.01686090  0.08386101  0.66291247  1
  O  O435  1  0.01437630  0.08316145  0.91327297  1
  O  O436  1  0.01744105  0.41673454  0.16156944  1
  O  O437  1  0.01812724  0.41722416  0.41435124  1
  O  O438  1  0.01854789  0.41634578  0.66505522  1
  O  O439  1  0.01493446  0.41673373  0.91562136  1
  O  O440  1  0.01836445  0.74965889  0.16187312  1
  O  O441  1  0.01822204  0.75012046  0.41510410  1
  O  O442  1  0.01608533  0.74953295  0.66326447  1
  O  O443  1  0.01842953  0.75040337  0.91519097  1
  O  O444  1  0.51699982  0.08372761  0.16461923  1
  O  O445  1  0.51676191  0.08237753  0.41585243  1
  O  O446  1  0.51403440  0.08337673  0.66353100  1
  O  O447  1  0.51743669  0.08282997  0.91213192  1
  O  O448  1  0.51822231  0.41672828  0.16491963  1
  O  O449  1  0.51549029  0.41679226  0.41516736  1
  O  O450  1  0.51737328  0.41674022  0.66427249  1
  O  O451  1  0.51859060  0.41645785  0.91388826  1
  O  O452  1  0.51385755  0.74982583  0.16281276  1
  O  O453  1  0.51379275  0.75044336  0.41269925  1
  O  O454  1  0.51487428  0.75003061  0.66548321  1
  O  O455  1  0.51493001  0.74992002  0.91662279  1
  O  O456  1  0.48532609  0.24983550  0.08330277  1
  O  O457  1  0.48476184  0.24963485  0.33746210  1
  O  O458  1  0.48363270  0.24955590  0.58734502  1
  O  O459  1  0.48638774  0.25024042  0.83662486  1
  O  O460  1  0.48339371  0.58238328  0.08527253  1
  O  O461  1  0.48093024  0.58378875  0.33575504  1
  O  O462  1  0.48115287  0.58301500  0.58508294  1
  O  O463  1  0.48185523  0.58351936  0.83600276  1
  O  O464  1  0.48504132  0.91669653  0.08663333  1
  O  O465  1  0.48213339  0.91696806  0.33490105  1
  O  O466  1  0.48067936  0.91677000  0.58587847  1
  O  O467  1  0.48289449  0.91653778  0.83800301  1
  O  O468  1  0.98391927  0.24997620  0.08384073  1
  O  O469  1  0.98270194  0.24997091  0.33751388  1
  O  O470  1  0.98448591  0.25036246  0.58422712  1
  O  O471  1  0.98201180  0.24994335  0.83739626  1
  O  O472  1  0.98640955  0.58373722  0.08612124  1
  O  O473  1  0.98412568  0.58359781  0.33649669  1
  O  O474  1  0.98340599  0.58317762  0.58481330  1
  O  O475  1  0.98495758  0.58346767  0.83719705  1
  O  O476  1  0.98584766  0.91651319  0.08590792  1
  O  O477  1  0.98372206  0.91664318  0.33715870  1
  O  O478  1  0.98621808  0.91694774  0.58681796  1
  O  O479  1  0.98568988  0.91661176  0.83617061  1
  O  O480  1  0.08776264  0.31548015  0.07678373  1
  O  O481  1  0.08635164  0.31514457  0.32843205  1
  O  O482  1  0.08892619  0.31439748  0.57791516  1
  O  O483  1  0.08582990  0.31478051  0.82770513  1
  O  O484  1  0.09036817  0.64838774  0.07772671  1
  O  O485  1  0.08769975  0.64898900  0.32753095  1
  O  O486  1  0.08766228  0.64717009  0.57661247  1
  O  O487  1  0.08802994  0.64967312  0.82856685  1
  O  O488  1  0.08967116  0.98085729  0.07683200  1
  O  O489  1  0.08769384  0.98104099  0.32714754  1
  O  O490  1  0.08916624  0.98361992  0.57774002  1
  O  O491  1  0.08969421  0.98061755  0.82688532  1
  O  O492  1  0.58875702  0.31644389  0.07764724  1
  O  O493  1  0.58884612  0.31332833  0.32904046  1
  O  O494  1  0.58726148  0.31552403  0.57801346  1
  O  O495  1  0.59053908  0.31442959  0.82796745  1
  O  O496  1  0.58677228  0.64779501  0.07689734  1
  O  O497  1  0.58471355  0.64905929  0.32695042  1
  O  O498  1  0.58488772  0.64809916  0.57636790  1
  O  O499  1  0.58553297  0.64843141  0.82704958  1
  O  O500  1  0.58906797  0.98118395  0.07718493  1
  O  O501  1  0.58617461  0.98259994  0.32766317  1
  O  O502  1  0.58472429  0.98143041  0.57703191  1
  O  O503  1  0.58635697  0.98197477  0.82754361  1
  O  O504  1  0.41330327  0.01867994  0.17241963  1
  O  O505  1  0.41252122  0.01708273  0.42253768  1
  O  O506  1  0.41018664  0.01850078  0.67231099  1
  O  O507  1  0.41373822  0.01759594  0.92210926  1
  O  O508  1  0.41481505  0.35078561  0.17303506  1
  O  O509  1  0.41165153  0.35230522  0.42286115  1
  O  O510  1  0.41431673  0.35067152  0.67282911  1
  O  O511  1  0.41467674  0.35205772  0.92325717  1
  O  O512  1  0.40986173  0.68501364  0.17248783  1
  O  O513  1  0.41009159  0.68538946  0.42093628  1
  O  O514  1  0.41113082  0.68485288  0.67141007  1
  O  O515  1  0.41060484  0.68519699  0.92299423  1
  O  O516  1  0.91218123  0.01791838  0.17204349  1
  O  O517  1  0.91192241  0.01779738  0.42292615  1
  O  O518  1  0.91322624  0.01859608  0.67309753  1
  O  O519  1  0.91050567  0.01906764  0.92274812  1
  O  O520  1  0.91391327  0.35180611  0.17216080  1
  O  O521  1  0.91448698  0.35172696  0.42294172  1
  O  O522  1  0.91416386  0.35250051  0.67260936  1
  O  O523  1  0.91127033  0.35061290  0.92300074  1
  O  O524  1  0.91457233  0.68532096  0.17224572  1
  O  O525  1  0.91403586  0.68536359  0.42246926  1
  O  O526  1  0.91281280  0.68392948  0.67126974  1
  O  O527  1  0.91435834  0.68547305  0.92378996  1
  O  O528  1  0.16248163  0.01702570  0.20316998  1
  O  O529  1  0.16320019  0.01867458  0.45331270  1
  O  O530  1  0.16342891  0.01759577  0.70182429  1
  O  O531  1  0.16222920  0.01862503  0.95225455  1
  O  O532  1  0.15960209  0.35290794  0.20244071  1
  O  O533  1  0.16023522  0.35082704  0.45340385  1
  O  O534  1  0.16179296  0.35144343  0.70205637  1
  O  O535  1  0.16155467  0.35127749  0.95291761  1
  O  O536  1  0.16189004  0.68520079  0.20269133  1
  O  O537  1  0.16104523  0.68513341  0.45221248  1
  O  O538  1  0.16193294  0.68601761  0.70303539  1
  O  O539  1  0.16244303  0.68488925  0.95222187  1
  O  O540  1  0.66229808  0.01668823  0.20417206  1
  O  O541  1  0.66271290  0.01880219  0.45197737  1
  O  O542  1  0.66318500  0.01896306  0.70180258  1
  O  O543  1  0.66299072  0.01773282  0.95189948  1
  O  O544  1  0.66197209  0.35227245  0.20238746  1
  O  O545  1  0.66209618  0.35089051  0.45393948  1
  O  O546  1  0.66068722  0.35064891  0.70314248  1
  O  O547  1  0.66277323  0.35134106  0.95264763  1
  O  O548  1  0.66318028  0.68557390  0.20251985  1
  O  O549  1  0.66483604  0.68502138  0.45181977  1
  O  O550  1  0.66304404  0.68504622  0.70142048  1
  O  O551  1  0.66458534  0.68576095  0.95176298  1
  O  O552  1  0.33527990  0.31518716  0.04810276  1
  O  O553  1  0.33646236  0.31539642  0.29789445  1
  O  O554  1  0.33651609  0.31445923  0.54880024  1
  O  O555  1  0.33826840  0.31413782  0.79764246  1
  O  O556  1  0.33627215  0.64879894  0.04665392  1
  O  O557  1  0.33529476  0.64900202  0.29769727  1
  O  O558  1  0.33599406  0.64820077  0.54748964  1
  O  O559  1  0.33891589  0.64778115  0.79758028  1
  O  O560  1  0.33638791  0.98118563  0.04717361  1
  O  O561  1  0.33648362  0.98062599  0.29827025  1
  O  O562  1  0.33693253  0.98235537  0.54739390  1
  O  O563  1  0.33762649  0.98294795  0.79734846  1
  O  O564  1  0.83621181  0.31493948  0.04677284  1
  O  O565  1  0.83831013  0.31549694  0.29857661  1
  O  O566  1  0.83659049  0.31419232  0.54798360  1
  O  O567  1  0.83680863  0.31439992  0.79813668  1
  O  O568  1  0.83840424  0.64876651  0.04694658  1
  O  O569  1  0.83936416  0.64820588  0.29827792  1
  O  O570  1  0.83976014  0.64937493  0.54700933  1
  O  O571  1  0.83841185  0.64779470  0.79672168  1
  O  O572  1  0.83628954  0.98200293  0.04722016  1
  O  O573  1  0.83714834  0.98130400  0.29873923  1
  O  O574  1  0.83898705  0.98208391  0.54635514  1
  O  O575  1  0.83746492  0.98281799  0.79700115  1
  O  O576  1  0.41331421  0.14878875  0.17224462  1
  O  O577  1  0.41259891  0.14704952  0.42367593  1
  O  O578  1  0.41052041  0.14872937  0.67238630  1
  O  O579  1  0.41398330  0.14776367  0.92237187  1
  O  O580  1  0.41368775  0.48076698  0.17281376  1
  O  O581  1  0.41172708  0.48249041  0.42211122  1
  O  O582  1  0.41307663  0.48094115  0.67181608  1
  O  O583  1  0.41478311  0.48211996  0.92273412  1
  O  O584  1  0.41018608  0.81493570  0.17268843  1
  O  O585  1  0.41037066  0.81564717  0.42071746  1
  O  O586  1  0.41126289  0.81517326  0.67207064  1
  O  O587  1  0.41104864  0.81544741  0.92343336  1
  O  O588  1  0.91145749  0.14805635  0.17142806  1
  O  O589  1  0.91161716  0.14791176  0.42291868  1
  O  O590  1  0.91275643  0.14856170  0.67270154  1
  O  O591  1  0.91079416  0.14911908  0.92218700  1
  O  O592  1  0.91426630  0.48192789  0.17229148  1
  O  O593  1  0.91420938  0.48179367  0.42224113  1
  O  O594  1  0.91512048  0.48258472  0.67248511  1
  O  O595  1  0.91071695  0.48067572  0.92334965  1
  O  O596  1  0.91520502  0.81531577  0.17273082  1
  O  O597  1  0.91429510  0.81537785  0.42304312  1
  O  O598  1  0.91279168  0.81427900  0.67233159  1
  O  O599  1  0.91451586  0.81536925  0.92405819  1
  O  O600  1  0.08796739  0.18549960  0.07599532  1
  O  O601  1  0.08607123  0.18497548  0.32752577  1
  O  O602  1  0.08801662  0.18438738  0.57700615  1
  O  O603  1  0.08559007  0.18485649  0.82716590  1
  O  O604  1  0.08991275  0.51826749  0.07788005  1
  O  O605  1  0.08803767  0.51882229  0.32770382  1
  O  O606  1  0.08700918  0.51725772  0.57728020  1
  O  O607  1  0.08878762  0.51948711  0.82841118  1
  O  O608  1  0.08950230  0.85081209  0.07776543  1
  O  O609  1  0.08740169  0.85107181  0.32802219  1
  O  O610  1  0.09054720  0.85361612  0.57770142  1
  O  O611  1  0.08919205  0.85054197  0.82789521  1
  O  O612  1  0.58996098  0.18637522  0.07667660  1
  O  O613  1  0.58761132  0.18301407  0.32921918  1
  O  O614  1  0.58777672  0.18550363  0.57729933  1
  O  O615  1  0.58951891  0.18417076  0.82721774  1
  O  O616  1  0.58756104  0.51765622  0.07821463  1
  O  O617  1  0.58504996  0.51899881  0.32745658  1
  O  O618  1  0.58528568  0.51801066  0.57716392  1
  O  O619  1  0.58576336  0.51828583  0.82752570  1
  O  O620  1  0.58856872  0.85123940  0.07698253  1
  O  O621  1  0.58638938  0.85257036  0.32659765  1
  O  O622  1  0.58443486  0.85144723  0.57676217  1
  O  O623  1  0.58643965  0.85178069  0.82769121  1
  O  O624  1  0.33549203  0.18506291  0.04758323  1
  O  O625  1  0.33702322  0.18517296  0.29756691  1
  O  O626  1  0.33697233  0.18457471  0.54784351  1
  O  O627  1  0.33816012  0.18394585  0.79665043  1
  O  O628  1  0.33601016  0.51853077  0.04766914  1
  O  O629  1  0.33538348  0.51896601  0.29852961  1
  O  O630  1  0.33593399  0.51831162  0.54782449  1
  O  O631  1  0.33895075  0.51783633  0.79787425  1
  O  O632  1  0.33609519  0.85106966  0.04676577  1
  O  O633  1  0.33583824  0.85075364  0.29775734  1
  O  O634  1  0.33706536  0.85234891  0.54771129  1
  O  O635  1  0.33774416  0.85304022  0.79820090  1
  O  O636  1  0.83646194  0.18458264  0.04622221  1
  O  O637  1  0.83867369  0.18557975  0.29830998  1
  O  O638  1  0.83689784  0.18399839  0.54677556  1
  O  O639  1  0.83659270  0.18444635  0.79767640  1
  O  O640  1  0.83793565  0.51839335  0.04704856  1
  O  O641  1  0.83893580  0.51825759  0.29859195  1
  O  O642  1  0.84001405  0.51916632  0.54810293  1
  O  O643  1  0.83771155  0.51768382  0.79688298  1
  O  O644  1  0.83635996  0.85172077  0.04768742  1
  O  O645  1  0.83761340  0.85156546  0.29859311  1
  O  O646  1  0.83895087  0.85173249  0.54678306  1
  O  O647  1  0.83798134  0.85277193  0.79758260  1
  O  O648  1  0.16212770  0.14712478  0.20268220  1
  O  O649  1  0.16341620  0.14879236  0.45312452  1
  O  O650  1  0.16313297  0.14750847  0.70113165  1
  O  O651  1  0.16238935  0.14888870  0.95196513  1
  O  O652  1  0.16041096  0.48303909  0.20326491  1
  O  O653  1  0.15999272  0.48114602  0.45291367  1
  O  O654  1  0.16185123  0.48137058  0.70182338  1
  O  O655  1  0.16176010  0.48164684  0.95315784  1
  O  O656  1  0.16185853  0.81536620  0.20286738  1
  O  O657  1  0.16104013  0.81527199  0.45257831  1
  O  O658  1  0.16202028  0.81616322  0.70395699  1
  O  O659  1  0.16216673  0.81489590  0.95241203  1
  O  O660  1  0.66165310  0.14700347  0.20367066  1
  O  O661  1  0.66316814  0.14871852  0.45222107  1
  O  O662  1  0.66336771  0.14906302  0.70286252  1
  O  O663  1  0.66276766  0.14774676  0.95187741  1
  O  O664  1  0.66252093  0.48227562  0.20220323  1
  O  O665  1  0.66200392  0.48124525  0.45300764  1
  O  O666  1  0.66051162  0.48082019  0.70154631  1
  O  O667  1  0.66247825  0.48144232  0.95181430  1
  O  O668  1  0.66274575  0.81576763  0.20346693  1
  O  O669  1  0.66455776  0.81505582  0.45228631  1
  O  O670  1  0.66287753  0.81531106  0.70161185  1
  O  O671  1  0.66461605  0.81586250  0.95239768  1
