# generated using pymatgen
data_Na2MnFe(PO4)2
_symmetry_space_group_name_H-M   'P 1'
_cell_length_a   21.08140801
_cell_length_b   18.93320504
_cell_length_c   20.04081043
_cell_angle_alpha   89.99984674
_cell_angle_beta   89.99950069
_cell_angle_gamma   90.00282017
_symmetry_Int_Tables_number   1
_chemical_formula_structural   Na2MnFe(PO4)2
_chemical_formula_sum   'Na96 Mn48 Fe48 P96 O384'
_cell_volume   7999.06141420
_cell_formula_units_Z   48
loop_
 _symmetry_equiv_pos_site_id
 _symmetry_equiv_pos_as_xyz
  1  'x, y, z'
loop_
 _atom_site_type_symbol
 _atom_site_label
 _atom_site_symmetry_multiplicity
 _atom_site_fract_x
 _atom_site_fract_y
 _atom_site_fract_z
 _atom_site_occupancy
  Na  Na0  1  0.00011563  0.00065718  -0.00079543  1
  Na  Na1  1  -0.00095372  -0.00034651  0.25201399  1
  Na  Na2  1  -0.00062994  -0.00058219  0.50050998  1
  Na  Na3  1  -0.00048464  -0.00035031  0.74867543  1
  Na  Na4  1  -0.00111489  0.33277376  -0.00079014  1
  Na  Na5  1  -0.00003743  0.33360344  0.24983757  1
  Na  Na6  1  0.00075135  0.33422622  0.50029208  1
  Na  Na7  1  -0.00020946  0.33308813  0.75037878  1
  Na  Na8  1  -0.00113681  0.66689968  -0.00042431  1
  Na  Na9  1  -0.00199130  0.66631171  0.24927066  1
  Na  Na10  1  0.00036514  0.66755845  0.50121931  1
  Na  Na11  1  -0.00083714  0.66700112  0.75023850  1
  Na  Na12  1  0.49967310  0.00078259  -0.00104468  1
  Na  Na13  1  0.49961079  0.00017529  0.25028222  1
  Na  Na14  1  0.49878017  0.00016809  0.49995914  1
  Na  Na15  1  0.49610721  -0.00117007  0.74962620  1
  Na  Na16  1  0.50207404  0.33336976  0.00099217  1
  Na  Na17  1  0.50208173  0.33356948  0.24973602  1
  Na  Na18  1  0.49919518  0.33271193  0.50028135  1
  Na  Na19  1  0.49937648  0.33281661  0.75019546  1
  Na  Na20  1  0.49906379  0.66684428  -0.00064762  1
  Na  Na21  1  0.50030458  0.66728157  0.25047567  1
  Na  Na22  1  0.50091113  0.66744218  0.50048499  1
  Na  Na23  1  0.50088688  0.66729809  0.74978125  1
  Na  Na24  1  0.24979777  -0.00005843  0.12375274  1
  Na  Na25  1  0.25248507  0.00053775  0.37504522  1
  Na  Na26  1  0.25184199  -0.00031404  0.62472310  1
  Na  Na27  1  0.25016528  0.00013465  0.87546280  1
  Na  Na28  1  0.24809684  0.33288149  0.12429942  1
  Na  Na29  1  0.25086474  0.33343917  0.37535569  1
  Na  Na30  1  0.24978920  0.33286654  0.62513888  1
  Na  Na31  1  0.24853378  0.33307117  0.87535622  1
  Na  Na32  1  0.25054444  0.66745247  0.12592873  1
  Na  Na33  1  0.25044698  0.66749413  0.37587206  1
  Na  Na34  1  0.25066936  0.66744932  0.62469062  1
  Na  Na35  1  0.25080082  0.66736018  0.87456137  1
  Na  Na36  1  0.75054951  0.00050156  0.12552004  1
  Na  Na37  1  0.75078508  0.00036725  0.37442234  1
  Na  Na38  1  0.75249955  0.00076026  0.62487934  1
  Na  Na39  1  0.75101503  0.00009361  0.87518223  1
  Na  Na40  1  0.75078275  0.33276406  0.12536337  1
  Na  Na41  1  0.74853903  0.33244144  0.37413031  1
  Na  Na42  1  0.75080750  0.33365861  0.62567349  1
  Na  Na43  1  0.75274965  0.33403397  0.87505988  1
  Na  Na44  1  0.75179561  0.66712791  0.12649699  1
  Na  Na45  1  0.74952057  0.66707100  0.37428383  1
  Na  Na46  1  0.74753008  0.66644325  0.62358600  1
  Na  Na47  1  0.75064379  0.66748277  0.87471874  1
  Na  Na48  1  0.00048790  0.16634976  -0.00068925  1
  Na  Na49  1  -0.00131282  0.16703305  0.25101030  1
  Na  Na50  1  -0.00095251  0.16682133  0.50093040  1
  Na  Na51  1  -0.00126623  0.16705261  0.74918515  1
  Na  Na52  1  -0.00106860  0.49959754  -0.00071640  1
  Na  Na53  1  -0.00145145  0.50008315  0.24961849  1
  Na  Na54  1  -0.00098373  0.50051152  0.49967643  1
  Na  Na55  1  -0.00012511  0.49965563  0.75119483  1
  Na  Na56  1  -0.00197717  0.83441406  -0.00066427  1
  Na  Na57  1  0.00042980  0.83301593  0.25061528  1
  Na  Na58  1  0.00059952  0.83347832  0.50108006  1
  Na  Na59  1  0.00033549  0.83298917  0.74918904  1
  Na  Na60  1  0.50120025  0.16674375  -0.00056280  1
  Na  Na61  1  0.50254930  0.16595319  0.24994907  1
  Na  Na62  1  0.49851824  0.16667556  0.49952219  1
  Na  Na63  1  0.49747445  0.16721947  0.75062512  1
  Na  Na64  1  0.50153025  0.49974645  -0.00015711  1
  Na  Na65  1  0.50049345  0.50037024  0.25092299  1
  Na  Na66  1  0.50212102  0.49961103  0.50118266  1
  Na  Na67  1  0.50194249  0.49942102  0.74929196  1
  Na  Na68  1  0.49707191  0.83355989  -0.00008624  1
  Na  Na69  1  0.49780087  0.83351157  0.24950027  1
  Na  Na70  1  0.49783521  0.83357670  0.49989403  1
  Na  Na71  1  0.49804078  0.83289322  0.75020307  1
  Na  Na72  1  0.24877698  0.16718975  0.12395265  1
  Na  Na73  1  0.25237017  0.16578269  0.37522620  1
  Na  Na74  1  0.25315745  0.16591503  0.62516544  1
  Na  Na75  1  0.25057852  0.16685981  0.87588311  1
  Na  Na76  1  0.24722518  0.50061804  0.12473132  1
  Na  Na77  1  0.25124257  0.49886997  0.37546476  1
  Na  Na78  1  0.25022221  0.49947800  0.62503837  1
  Na  Na79  1  0.24750992  0.50047968  0.87538119  1
  Na  Na80  1  0.25194222  0.83255484  0.12543818  1
  Na  Na81  1  0.25099240  0.83290728  0.37559900  1
  Na  Na82  1  0.24998199  0.83357268  0.62392086  1
  Na  Na83  1  0.25091456  0.83293884  0.87431399  1
  Na  Na84  1  0.74921829  0.16698876  0.12472374  1
  Na  Na85  1  0.74922585  0.16617977  0.37391254  1
  Na  Na86  1  0.75147097  0.16542911  0.62506652  1
  Na  Na87  1  0.75115190  0.16638627  0.87593601  1
  Na  Na88  1  0.75359808  0.49833659  0.12611001  1
  Na  Na89  1  0.75036888  0.50046440  0.37439186  1
  Na  Na90  1  0.74857724  0.50063547  0.62421764  1
  Na  Na91  1  0.74956298  0.50030099  0.87489284  1
  Na  Na92  1  0.75203043  0.83263933  0.12618789  1
  Na  Na93  1  0.74930909  0.83392036  0.37458135  1
  Na  Na94  1  0.75144191  0.83244263  0.62467043  1
  Na  Na95  1  0.75243799  0.83278882  0.87438231  1
  Mn  Mn96  1  0.64167521  0.24959886  0.49821960  1
  Mn  Mn97  1  0.14190424  0.58359469  0.74709656  1
  Mn  Mn98  1  0.64318781  0.58315479  0.99823800  1
  Mn  Mn99  1  0.64195995  0.91636720  0.74752781  1
  Mn  Mn100  1  0.60764700  0.75008212  0.87307180  1
  Mn  Mn101  1  0.39290029  0.58313233  0.37760980  1
  Mn  Mn102  1  0.60809349  0.41614201  0.62270849  1
  Mn  Mn103  1  0.35767704  0.41648533  0.25188209  1
  Mn  Mn104  1  0.35755476  0.41679639  0.75323470  1
  Mn  Mn105  1  0.39183526  0.91741545  0.12723967  1
  Mn  Mn106  1  0.89145709  0.25031130  0.37787526  1
  Mn  Mn107  1  0.85730380  0.41664730  0.50238820  1
  Mn  Mn108  1  0.64196522  0.91660641  0.49825203  1
  Mn  Mn109  1  0.89215813  0.91708734  0.87671301  1
  Mn  Mn110  1  0.39239621  0.58238076  0.87724164  1
  Mn  Mn111  1  0.64255551  0.91622685  0.99753935  1
  Mn  Mn112  1  0.89160224  0.58364277  0.62732263  1
  Mn  Mn113  1  0.14184832  0.24935185  0.24778811  1
  Mn  Mn114  1  0.89229931  0.25012353  0.62743513  1
  Mn  Mn115  1  0.14162394  0.91608483  0.99799958  1
  Mn  Mn116  1  0.10821724  0.08340287  0.62263345  1
  Mn  Mn117  1  0.89246429  0.91577235  0.37816574  1
  Mn  Mn118  1  0.89104504  0.58299396  0.87730609  1
  Mn  Mn119  1  0.14344695  0.24906404  0.49804995  1
  Mn  Mn120  1  0.64179956  0.91722019  0.24764448  1
  Mn  Mn121  1  0.60697872  0.08253815  0.62335852  1
  Mn  Mn122  1  0.14237537  0.58350056  0.49765858  1
  Mn  Mn123  1  0.10769986  0.75037794  0.87272558  1
  Mn  Mn124  1  0.64300465  0.58286298  0.24758030  1
  Mn  Mn125  1  0.10845035  0.08316561  0.37304933  1
  Mn  Mn126  1  0.35735499  0.41742698  0.00212468  1
  Mn  Mn127  1  0.85809227  0.08329677  0.00335247  1
  Mn  Mn128  1  0.39312156  0.58331758  0.62734910  1
  Mn  Mn129  1  0.64263955  0.24966815  0.74810267  1
  Mn  Mn130  1  0.10800245  0.41756287  0.37295014  1
  Mn  Mn131  1  0.39328079  0.25020251  0.37629847  1
  Mn  Mn132  1  0.35725972  0.08361483  0.00277378  1
  Mn  Mn133  1  0.39280725  0.25018316  0.12694753  1
  Mn  Mn134  1  0.10736425  0.75019448  0.12260570  1
  Mn  Mn135  1  0.39126294  0.58246493  0.12715599  1
  Mn  Mn136  1  0.85830736  0.75032008  0.25329849  1
  Mn  Mn137  1  0.60920860  0.41672890  0.12250494  1
  Mn  Mn138  1  0.60713077  0.08316152  0.87223808  1
  Mn  Mn139  1  0.10771126  0.08333283  0.87177408  1
  Mn  Mn140  1  0.60735380  0.75062236  0.12230572  1
  Mn  Mn141  1  0.14286480  0.91715123  0.24808411  1
  Mn  Mn142  1  0.10668572  0.41647892  0.87283071  1
  Mn  Mn143  1  0.14157216  0.58346086  0.24802938  1
  Fe  Fe144  1  0.35711350  0.74998922  0.75116269  1
  Fe  Fe145  1  0.60775842  0.08282489  0.12323883  1
  Fe  Fe146  1  0.39154980  0.91673972  0.87652757  1
  Fe  Fe147  1  0.89290266  0.24947695  0.12652595  1
  Fe  Fe148  1  0.64389334  0.25020722  0.99780168  1
  Fe  Fe149  1  0.35740418  0.74997687  0.25256947  1
  Fe  Fe150  1  0.85790207  0.74976666  0.00207246  1
  Fe  Fe151  1  0.14143301  0.25044892  0.99806838  1
  Fe  Fe152  1  0.14391514  0.91687455  0.49868433  1
  Fe  Fe153  1  0.64291116  0.58377835  0.49748331  1
  Fe  Fe154  1  0.89270058  0.24961907  0.87664122  1
  Fe  Fe155  1  0.85728948  0.08369995  0.25157870  1
  Fe  Fe156  1  0.89271635  0.91754590  0.12687431  1
  Fe  Fe157  1  0.85698360  0.74984782  0.75086561  1
  Fe  Fe158  1  0.35680602  0.74902989  0.00139478  1
  Fe  Fe159  1  0.39280118  0.91677037  0.37647716  1
  Fe  Fe160  1  0.14143382  0.58351592  0.99873899  1
  Fe  Fe161  1  0.35672985  0.08331768  0.75191056  1
  Fe  Fe162  1  0.85701824  0.75042903  0.50178895  1
  Fe  Fe163  1  0.10603681  0.41611566  0.12330512  1
  Fe  Fe164  1  0.14349073  0.91700545  0.74787371  1
  Fe  Fe165  1  0.64347016  0.24985532  0.24806761  1
  Fe  Fe166  1  0.89324071  0.91629236  0.62638204  1
  Fe  Fe167  1  0.35840917  0.41674113  0.50199497  1
  Fe  Fe168  1  0.89256761  0.58392384  0.37705659  1
  Fe  Fe169  1  0.85741230  0.41668075  0.75147865  1
  Fe  Fe170  1  0.85772139  0.08322768  0.75176588  1
  Fe  Fe171  1  0.14298932  0.24940457  0.74829225  1
  Fe  Fe172  1  0.60740635  0.08296582  0.37314441  1
  Fe  Fe173  1  0.85725932  0.41696279  0.00231857  1
  Fe  Fe174  1  0.10688002  0.08368121  0.12454164  1
  Fe  Fe175  1  0.60712933  0.75105312  0.62312558  1
  Fe  Fe176  1  0.10737861  0.74969862  0.37398570  1
  Fe  Fe177  1  0.10732351  0.41723381  0.62364254  1
  Fe  Fe178  1  0.39256814  0.25072298  0.87732200  1
  Fe  Fe179  1  0.85785967  0.41579509  0.25201441  1
  Fe  Fe180  1  0.35857610  0.08331518  0.50173309  1
  Fe  Fe181  1  0.85723125  0.08282541  0.50113185  1
  Fe  Fe182  1  0.39185287  0.91648136  0.62705143  1
  Fe  Fe183  1  0.35817532  0.08347869  0.25109991  1
  Fe  Fe184  1  0.60842515  0.41627966  0.87357129  1
  Fe  Fe185  1  0.64294252  0.58369014  0.74879537  1
  Fe  Fe186  1  0.60657271  0.75069850  0.37365597  1
  Fe  Fe187  1  0.60778213  0.41659716  0.37348063  1
  Fe  Fe188  1  0.10743047  0.74968042  0.62321623  1
  Fe  Fe189  1  0.39200363  0.25011849  0.62742755  1
  Fe  Fe190  1  0.35733198  0.74962884  0.50213703  1
  Fe  Fe191  1  0.89305337  0.58332028  0.12641616  1
  P  P192  1  0.05224058  0.24969244  0.10977684  1
  P  P193  1  0.05320917  0.25004468  0.36044389  1
  P  P194  1  0.05488440  0.25083256  0.61120082  1
  P  P195  1  0.05348691  0.24986295  0.85992339  1
  P  P196  1  0.05215622  0.58263796  0.10954641  1
  P  P197  1  0.05192214  0.58467661  0.36015034  1
  P  P198  1  0.05317507  0.58314509  0.61028541  1
  P  P199  1  0.05373205  0.58369323  0.86089122  1
  P  P200  1  0.05183723  0.91774034  0.11052732  1
  P  P201  1  0.05521706  0.91568963  0.36199548  1
  P  P202  1  0.05497747  0.91610545  0.61067134  1
  P  P203  1  0.05399022  0.91665781  0.85842097  1
  P  P204  1  0.55627429  0.24888371  0.11039588  1
  P  P205  1  0.55490977  0.24992854  0.35950266  1
  P  P206  1  0.55155690  0.24913115  0.61042846  1
  P  P207  1  0.55366031  0.25074831  0.86118637  1
  P  P208  1  0.55315280  0.58367827  0.10973078  1
  P  P209  1  0.55524951  0.58371262  0.36159726  1
  P  P210  1  0.55624216  0.58462333  0.61082169  1
  P  P211  1  0.55447371  0.58257976  0.85947318  1
  P  P212  1  0.55294156  0.91757104  0.10949441  1
  P  P213  1  0.55209877  0.91641750  0.36038362  1
  P  P214  1  0.55131423  0.91599650  0.61021500  1
  P  P215  1  0.55137587  0.91652348  0.85971762  1
  P  P216  1  0.44772250  0.08401416  0.14040091  1
  P  P217  1  0.44639799  0.08280834  0.38891502  1
  P  P218  1  0.44409678  0.08323450  0.63955877  1
  P  P219  1  0.44418124  0.08367471  0.88860641  1
  P  P220  1  0.44758189  0.41655109  0.14027225  1
  P  P221  1  0.44799593  0.41667668  0.39060681  1
  P  P222  1  0.44571233  0.41612508  0.63944121  1
  P  P223  1  0.44838823  0.41589067  0.89035240  1
  P  P224  1  0.44428257  0.74941920  0.13963529  1
  P  P225  1  0.44571501  0.75048443  0.38965936  1
  P  P226  1  0.44583628  0.75052965  0.63938832  1
  P  P227  1  0.44428658  0.75035334  0.88914901  1
  P  P228  1  0.94729622  0.08363524  0.14083860  1
  P  P229  1  0.94526380  0.08331022  0.39020595  1
  P  P230  1  0.94495599  0.08230544  0.63905277  1
  P  P231  1  0.94539168  0.08400921  0.88865013  1
  P  P232  1  0.94555692  0.41605187  0.13890469  1
  P  P233  1  0.94538912  0.41750976  0.38915114  1
  P  P234  1  0.94711835  0.41705551  0.64084497  1
  P  P235  1  0.94382390  0.41572412  0.88937343  1
  P  P236  1  0.94537009  0.75048236  0.13890355  1
  P  P237  1  0.94732502  0.74933265  0.39143559  1
  P  P238  1  0.94609628  0.75080621  0.63920082  1
  P  P239  1  0.94457773  0.75000549  0.88921281  1
  P  P240  1  0.19805241  0.08300704  0.23427426  1
  P  P241  1  0.19891274  0.08236347  0.48536936  1
  P  P242  1  0.19797638  0.08341495  0.73510625  1
  P  P243  1  0.19426379  0.08416633  0.98623329  1
  P  P244  1  0.19557270  0.41648884  0.23409808  1
  P  P245  1  0.19728552  0.41648818  0.48635625  1
  P  P246  1  0.19571350  0.41562080  0.73468610  1
  P  P247  1  0.19400338  0.41669292  0.98636321  1
  P  P248  1  0.19668921  0.75034844  0.23651835  1
  P  P249  1  0.19600988  0.75086478  0.48597445  1
  P  P250  1  0.19717507  0.75103216  0.73422860  1
  P  P251  1  0.19722239  0.74929490  0.98507583  1
  P  P252  1  0.69586783  0.08384213  0.23547443  1
  P  P253  1  0.69703610  0.08267424  0.48453619  1
  P  P254  1  0.69802230  0.08312353  0.73509547  1
  P  P255  1  0.69563799  0.08377189  0.98605050  1
  P  P256  1  0.69730561  0.41592553  0.23631956  1
  P  P257  1  0.69600872  0.41717030  0.48425599  1
  P  P258  1  0.69691294  0.41698323  0.73631270  1
  P  P259  1  0.69805408  0.41583694  0.98475760  1
  P  P260  1  0.69534920  0.75037739  0.23626498  1
  P  P261  1  0.69578954  0.75025962  0.48524500  1
  P  P262  1  0.69692806  0.74972259  0.73429735  1
  P  P263  1  0.69858612  0.75006209  0.98518854  1
  P  P264  1  0.30287556  0.25079053  0.01406966  1
  P  P265  1  0.30330273  0.24917199  0.26461267  1
  P  P266  1  0.30527256  0.25009222  0.51529879  1
  P  P267  1  0.30377553  0.24955685  0.76501322  1
  P  P268  1  0.30131569  0.58370312  0.01489111  1
  P  P269  1  0.30295308  0.58365655  0.26567800  1
  P  P270  1  0.30397641  0.58344720  0.51510214  1
  P  P271  1  0.30324479  0.58398594  0.76491245  1
  P  P272  1  0.30410546  0.91570013  0.01369068  1
  P  P273  1  0.30457697  0.91706635  0.26556613  1
  P  P274  1  0.30517244  0.91629320  0.51390640  1
  P  P275  1  0.30394532  0.91645584  0.76391408  1
  P  P276  1  0.80450282  0.25063915  0.01458686  1
  P  P277  1  0.80419390  0.24938653  0.26340227  1
  P  P278  1  0.80275765  0.24907356  0.51509944  1
  P  P279  1  0.80433875  0.24969181  0.76555301  1
  P  P280  1  0.80411379  0.58329811  0.01591336  1
  P  P281  1  0.80616999  0.58256515  0.26459325  1
  P  P282  1  0.80316781  0.58465006  0.51341507  1
  P  P283  1  0.80218047  0.58376784  0.76425093  1
  P  P284  1  0.80418581  0.91606492  0.01593483  1
  P  P285  1  0.80483257  0.91791478  0.26413473  1
  P  P286  1  0.80403971  0.91635926  0.51537941  1
  P  P287  1  0.80470938  0.91639137  0.76319011  1
  O  O288  1  0.05562821  0.24982638  0.18651757  1
  O  O289  1  0.05699922  0.24974344  0.43723800  1
  O  O290  1  0.05900604  0.24940871  0.68796986  1
  O  O291  1  0.05804195  0.24976110  0.93665319  1
  O  O292  1  0.05564729  0.58340458  0.18628795  1
  O  O293  1  0.05597874  0.58398075  0.43686373  1
  O  O294  1  0.05581804  0.58332172  0.68709893  1
  O  O295  1  0.05800868  0.58394489  0.93764174  1
  O  O296  1  0.05569167  0.91691837  0.18724927  1
  O  O297  1  0.05973306  0.91684815  0.43871598  1
  O  O298  1  0.05988936  0.91696235  0.68736718  1
  O  O299  1  0.05696613  0.91664610  0.93526363  1
  O  O300  1  0.56038730  0.24996567  0.18720386  1
  O  O301  1  0.55678551  0.24966370  0.43635877  1
  O  O302  1  0.55583526  0.24923516  0.68712949  1
  O  O303  1  0.55908528  0.25031073  0.93781287  1
  O  O304  1  0.55677072  0.58368931  0.18654123  1
  O  O305  1  0.55878100  0.58374525  0.43844948  1
  O  O306  1  0.56020723  0.58375293  0.68763136  1
  O  O307  1  0.55746299  0.58350117  0.93627767  1
  O  O308  1  0.55601593  0.91669200  0.18630100  1
  O  O309  1  0.55549786  0.91645222  0.43706207  1
  O  O310  1  0.55529358  0.91639462  0.68688130  1
  O  O311  1  0.55584598  0.91647119  0.93637654  1
  O  O312  1  0.44350469  0.08421572  0.06365849  1
  O  O313  1  0.44197675  0.08350322  0.31224558  1
  O  O314  1  0.44105306  0.08322050  0.56263098  1
  O  O315  1  0.44004742  0.08357269  0.81180048  1
  O  O316  1  0.44366116  0.41664726  0.06352356  1
  O  O317  1  0.44389885  0.41693743  0.31390727  1
  O  O318  1  0.44170019  0.41692610  0.56266953  1
  O  O319  1  0.44428296  0.41648648  0.81363544  1
  O  O320  1  0.43991153  0.74902412  0.06281552  1
  O  O321  1  0.44118555  0.74957966  0.31292172  1
  O  O322  1  0.44122818  0.74971583  0.56266231  1
  O  O323  1  0.44036034  0.74954593  0.81234381  1
  O  O324  1  0.94417781  0.08353479  0.06399439  1
  O  O325  1  0.94085408  0.08354516  0.31347748  1
  O  O326  1  0.94077621  0.08307454  0.56230045  1
  O  O327  1  0.94135752  0.08338384  0.81189619  1
  O  O328  1  0.94137485  0.41604213  0.06213638  1
  O  O329  1  0.94134319  0.41624649  0.31235524  1
  O  O330  1  0.94311653  0.41706323  0.56408551  1
  O  O331  1  0.93994596  0.41685176  0.81258074  1
  O  O332  1  0.94178735  0.75049457  0.06210837  1
  O  O333  1  0.94380907  0.75035069  0.31462011  1
  O  O334  1  0.94116344  0.75012990  0.56257313  1
  O  O335  1  0.94037447  0.74969428  0.81242776  1
  O  O336  1  0.18979311  0.08359173  0.06297205  1
  O  O337  1  0.19438220  0.08305171  0.31101914  1
  O  O338  1  0.19477365  0.08290853  0.56202894  1
  O  O339  1  0.19439379  0.08352534  0.81180967  1
  O  O340  1  0.18963211  0.41638139  0.06310264  1
  O  O341  1  0.19302400  0.41647440  0.31098177  1
  O  O342  1  0.19195569  0.41689612  0.56294489  1
  O  O343  1  0.19227284  0.41644787  0.81149207  1
  O  O344  1  0.19359578  0.75016545  0.06185694  1
  O  O345  1  0.19161960  0.74999085  0.31315178  1
  O  O346  1  0.19103538  0.74994776  0.56264098  1
  O  O347  1  0.19350175  0.75033603  0.81093693  1
  O  O348  1  0.69169499  0.08294254  0.06277930  1
  O  O349  1  0.69097686  0.08256057  0.31220489  1
  O  O350  1  0.69295818  0.08256642  0.56124132  1
  O  O351  1  0.69370326  0.08294258  0.81180687  1
  O  O352  1  0.69488132  0.41623211  0.06152389  1
  O  O353  1  0.69213220  0.41682467  0.31291547  1
  O  O354  1  0.69333540  0.41628176  0.56112757  1
  O  O355  1  0.69241634  0.41612009  0.81301452  1
  O  O356  1  0.69450653  0.75038553  0.06187998  1
  O  O357  1  0.69044125  0.75089630  0.31298497  1
  O  O358  1  0.69109321  0.75133223  0.56193657  1
  O  O359  1  0.69340248  0.75082714  0.81103841  1
  O  O360  1  0.30604712  0.24992541  0.18784164  1
  O  O361  1  0.30813318  0.25031821  0.43850344  1
  O  O362  1  0.30842864  0.25048726  0.68828711  1
  O  O363  1  0.30821094  0.25103597  0.93740623  1
  O  O364  1  0.30543162  0.58313388  0.18887896  1
  O  O365  1  0.30692587  0.58331615  0.43834126  1
  O  O366  1  0.30685581  0.58314946  0.68819722  1
  O  O367  1  0.30547040  0.58265038  0.93821609  1
  O  O368  1  0.30670998  0.91717459  0.18870784  1
  O  O369  1  0.30952899  0.91643050  0.43720128  1
  O  O370  1  0.30805746  0.91621905  0.68712241  1
  O  O371  1  0.30773323  0.91676942  0.93689352  1
  O  O372  1  0.80886233  0.24943074  0.18672403  1
  O  O373  1  0.80520897  0.24973588  0.43826370  1
  O  O374  1  0.80682662  0.24980658  0.68874402  1
  O  O375  1  0.80899077  0.24955385  0.93793074  1
  O  O376  1  0.81050679  0.58321803  0.18780899  1
  O  O377  1  0.80795763  0.58440994  0.43677027  1
  O  O378  1  0.80515287  0.58357509  0.68750297  1
  O  O379  1  0.80582126  0.58345311  0.93902974  1
  O  O380  1  0.80930247  0.91731640  0.18742796  1
  O  O381  1  0.80647052  0.91610803  0.43853434  1
  O  O382  1  0.80873949  0.91640692  0.68649053  1
  O  O383  1  0.80698829  0.91716074  0.93909659  1
  O  O384  1  0.23240343  0.25041333  0.03726982  1
  O  O385  1  0.23386551  0.24940934  0.29054062  1
  O  O386  1  0.23552407  0.24945494  0.54048193  1
  O  O387  1  0.23331807  0.24996439  0.78862110  1
  O  O388  1  0.23130767  0.58373395  0.03960735  1
  O  O389  1  0.23345778  0.58314821  0.29151503  1
  O  O390  1  0.23432209  0.58377692  0.54039166  1
  O  O391  1  0.23343710  0.58381933  0.78965883  1
  O  O392  1  0.23429687  0.91593087  0.03860204  1
  O  O393  1  0.23508382  0.91676546  0.29134960  1
  O  O394  1  0.23480770  0.91637649  0.53787189  1
  O  O395  1  0.23361843  0.91664612  0.78803812  1
  O  O396  1  0.73418868  0.25000272  0.03838306  1
  O  O397  1  0.73388647  0.24942930  0.28732249  1
  O  O398  1  0.73329251  0.24937118  0.54096551  1
  O  O399  1  0.73471339  0.24979938  0.79112875  1
  O  O400  1  0.73478571  0.58278435  0.04228577  1
  O  O401  1  0.73598027  0.58362775  0.28820776  1
  O  O402  1  0.73283999  0.58383025  0.53713333  1
  O  O403  1  0.73239934  0.58414211  0.78973247  1
  O  O404  1  0.73456098  0.91658141  0.04128632  1
  O  O405  1  0.73477541  0.91745123  0.28819843  1
  O  O406  1  0.73440749  0.91653570  0.54082869  1
  O  O407  1  0.73486062  0.91639052  0.78818066  1
  O  O408  1  0.26803406  0.08315349  0.20949141  1
  O  O409  1  0.26916648  0.08286274  0.46135426  1
  O  O410  1  0.26804282  0.08308810  0.71050054  1
  O  O411  1  0.26437553  0.08377706  0.96230630  1
  O  O412  1  0.26520985  0.41670104  0.20877480  1
  O  O413  1  0.26774072  0.41641079  0.46286889  1
  O  O414  1  0.26563543  0.41630476  0.71028236  1
  O  O415  1  0.26395527  0.41664187  0.96179274  1
  O  O416  1  0.26710293  0.75060208  0.21311566  1
  O  O417  1  0.26659400  0.75024527  0.46285173  1
  O  O418  1  0.26737072  0.75063388  0.70990225  1
  O  O419  1  0.26710968  0.74970798  0.96014159  1
  O  O420  1  0.76628217  0.08359343  0.21189904  1
  O  O421  1  0.76722693  0.08275716  0.46034456  1
  O  O422  1  0.76820007  0.08328065  0.71113310  1
  O  O423  1  0.76575129  0.08344291  0.96198981  1
  O  O424  1  0.76772650  0.41566879  0.21279635  1
  O  O425  1  0.76567985  0.41675474  0.45904416  1
  O  O426  1  0.76718783  0.41667022  0.71212356  1
  O  O427  1  0.76812740  0.41696822  0.96027601  1
  O  O428  1  0.76571744  0.74990251  0.21317123  1
  O  O429  1  0.76619787  0.75084421  0.46150358  1
  O  O430  1  0.76705481  0.74965835  0.70972817  1
  O  O431  1  0.76864845  0.74991729  0.96079967  1
  O  O432  1  0.01726746  0.08369014  0.16594982  1
  O  O433  1  0.01536944  0.08311087  0.41423259  1
  O  O434  1  0.01514767  0.08306560  0.66296793  1
  O  O435  1  0.01533436  0.08346510  0.91289546  1
  O  O436  1  0.01594581  0.41627561  0.16293010  1
  O  O437  1  0.01530396  0.41738951  0.41363131  1
  O  O438  1  0.01713530  0.41675045  0.66529708  1
  O  O439  1  0.01387979  0.41634573  0.91339076  1
  O  O440  1  0.01524776  0.74994158  0.16381793  1
  O  O441  1  0.01732551  0.75021382  0.41599612  1
  O  O442  1  0.01662151  0.75016069  0.66264058  1
  O  O443  1  0.01463386  0.75053003  0.91328761  1
  O  O444  1  0.51783586  0.08333388  0.16450802  1
  O  O445  1  0.51680226  0.08346757  0.41283050  1
  O  O446  1  0.51390685  0.08287374  0.66467003  1
  O  O447  1  0.51421213  0.08381085  0.91280056  1
  O  O448  1  0.51742567  0.41665472  0.16481022  1
  O  O449  1  0.51818612  0.41621939  0.41476721  1
  O  O450  1  0.51578103  0.41639108  0.66359264  1
  O  O451  1  0.51846847  0.41635858  0.91479011  1
  O  O452  1  0.51439250  0.75017970  0.16353798  1
  O  O453  1  0.51610665  0.75027386  0.41339748  1
  O  O454  1  0.51620312  0.75026678  0.66310171  1
  O  O455  1  0.51439727  0.74998946  0.91338074  1
  O  O456  1  0.48616312  0.24976396  0.08629189  1
  O  O457  1  0.48537389  0.24983186  0.33366499  1
  O  O458  1  0.48151879  0.24939769  0.58607282  1
  O  O459  1  0.48320121  0.25022859  0.83779868  1
  O  O460  1  0.48348787  0.58321103  0.08467902  1
  O  O461  1  0.48537457  0.58381805  0.33683148  1
  O  O462  1  0.48612360  0.58380850  0.58680655  1
  O  O463  1  0.48475347  0.58309640  0.83425906  1
  O  O464  1  0.48323934  0.91768434  0.08444559  1
  O  O465  1  0.48212022  0.91655169  0.33540632  1
  O  O466  1  0.48124674  0.91665872  0.58579318  1
  O  O467  1  0.48116092  0.91631095  0.83575781  1
  O  O468  1  0.98210423  0.24957927  0.08507452  1
  O  O469  1  0.98341416  0.25030617  0.33580995  1
  O  O470  1  0.98485113  0.25057976  0.58690945  1
  O  O471  1  0.98310664  0.25007967  0.83641347  1
  O  O472  1  0.98196840  0.58302532  0.08513358  1
  O  O473  1  0.98198217  0.58404766  0.33544818  1
  O  O474  1  0.98356086  0.58365551  0.58486364  1
  O  O475  1  0.98366844  0.58316360  0.83682564  1
  O  O476  1  0.98187483  0.91777219  0.08562594  1
  O  O477  1  0.98510146  0.91581505  0.33810285  1
  O  O478  1  0.98444460  0.91642968  0.58738674  1
  O  O479  1  0.98422599  0.91658726  0.83369615  1
  O  O480  1  0.08597419  0.31475325  0.07677354  1
  O  O481  1  0.08723225  0.31503757  0.32793354  1
  O  O482  1  0.08823105  0.31630770  0.57883730  1
  O  O483  1  0.08710051  0.31479861  0.82681947  1
  O  O484  1  0.08620999  0.64757546  0.07658623  1
  O  O485  1  0.08544287  0.65007812  0.32767108  1
  O  O486  1  0.08771445  0.64815886  0.57815947  1
  O  O487  1  0.08693904  0.64878623  0.82756345  1
  O  O488  1  0.08576497  0.98284140  0.07818782  1
  O  O489  1  0.08857273  0.98063995  0.32834402  1
  O  O490  1  0.08846237  0.98095153  0.57684124  1
  O  O491  1  0.08823136  0.98161267  0.82582048  1
  O  O492  1  0.59057075  0.31350472  0.07700459  1
  O  O493  1  0.58931137  0.31509332  0.32745682  1
  O  O494  1  0.58561293  0.31407648  0.57771442  1
  O  O495  1  0.58673983  0.31596125  0.82785760  1
  O  O496  1  0.58694210  0.64878337  0.07703177  1
  O  O497  1  0.58891815  0.64887705  0.32891971  1
  O  O498  1  0.58929300  0.65011630  0.57802365  1
  O  O499  1  0.58897451  0.64749197  0.82684638  1
  O  O500  1  0.58713954  0.98275741  0.07756449  1
  O  O501  1  0.58611891  0.98153966  0.32784518  1
  O  O502  1  0.58535024  0.98089225  0.57734832  1
  O  O503  1  0.58478427  0.98163454  0.82655971  1
  O  O504  1  0.41334362  0.01923571  0.17312013  1
  O  O505  1  0.41319551  0.01760821  0.42214954  1
  O  O506  1  0.40984031  0.01812312  0.67192175  1
  O  O507  1  0.41077410  0.01834586  0.92140232  1
  O  O508  1  0.41389454  0.35132362  0.17286637  1
  O  O509  1  0.41384487  0.35165629  0.42310641  1
  O  O510  1  0.41230633  0.35087805  0.67223876  1
  O  O511  1  0.41452698  0.35088364  0.92307828  1
  O  O512  1  0.41098976  0.68442369  0.17317309  1
  O  O513  1  0.41227377  0.68570251  0.42352123  1
  O  O514  1  0.41231428  0.68574013  0.67311540  1
  O  O515  1  0.41050225  0.68543100  0.92255924  1
  O  O516  1  0.91307506  0.01876956  0.17350646  1
  O  O517  1  0.91150730  0.01828878  0.42325748  1
  O  O518  1  0.91185081  0.01690322  0.67193537  1
  O  O519  1  0.91162729  0.01916911  0.92195312  1
  O  O520  1  0.91237384  0.35081381  0.17222068  1
  O  O521  1  0.91171821  0.35269683  0.42267319  1
  O  O522  1  0.91279137  0.35219548  0.67349315  1
  O  O523  1  0.91067815  0.35034108  0.92209843  1
  O  O524  1  0.91147286  0.68535452  0.17151120  1
  O  O525  1  0.91353754  0.68404644  0.42372421  1
  O  O526  1  0.91239222  0.68604446  0.67289369  1
  O  O527  1  0.91107609  0.68495540  0.92249879  1
  O  O528  1  0.16398646  0.01798287  0.20161123  1
  O  O529  1  0.16546739  0.01720748  0.45260016  1
  O  O530  1  0.16415647  0.01840834  0.70231540  1
  O  O531  1  0.16086451  0.01909758  0.95290654  1
  O  O532  1  0.16116992  0.35144664  0.20182545  1
  O  O533  1  0.16404698  0.35145519  0.45298885  1
  O  O534  1  0.16208033  0.35026040  0.70244083  1
  O  O535  1  0.16037322  0.35154242  0.95326782  1
  O  O536  1  0.16347597  0.68534197  0.20292714  1
  O  O537  1  0.16240040  0.68614437  0.45208853  1
  O  O538  1  0.16301508  0.68618164  0.70121691  1
  O  O539  1  0.16334624  0.68412512  0.95273508  1
  O  O540  1  0.66225729  0.01910776  0.20165994  1
  O  O541  1  0.66328816  0.01760732  0.45153409  1
  O  O542  1  0.66437343  0.01812539  0.70200968  1
  O  O543  1  0.66197208  0.01895721  0.95251327  1
  O  O544  1  0.66399567  0.35087141  0.20316556  1
  O  O545  1  0.66147876  0.35223140  0.45191491  1
  O  O546  1  0.66343758  0.35203261  0.70274158  1
  O  O547  1  0.66463608  0.35051871  0.95197858  1
  O  O548  1  0.66205802  0.68533993  0.20304848  1
  O  O549  1  0.66253287  0.68501465  0.45227119  1
  O  O550  1  0.66287541  0.68466117  0.70207853  1
  O  O551  1  0.66477310  0.68491245  0.95262458  1
  O  O552  1  0.33600425  0.31574836  0.04766843  1
  O  O553  1  0.33771469  0.31410372  0.29713798  1
  O  O554  1  0.33908088  0.31521374  0.54810315  1
  O  O555  1  0.33738938  0.31434977  0.79882634  1
  O  O556  1  0.33525319  0.64885965  0.04718778  1
  O  O557  1  0.33708581  0.64891431  0.29771782  1
  O  O558  1  0.33821014  0.64869260  0.54722327  1
  O  O559  1  0.33708755  0.64932942  0.79686249  1
  O  O560  1  0.33783204  0.98072831  0.04688133  1
  O  O561  1  0.33895394  0.98233656  0.29751178  1
  O  O562  1  0.33870988  0.98120955  0.54723039  1
  O  O563  1  0.33746694  0.98152664  0.79708033  1
  O  O564  1  0.83758278  0.31602539  0.04748584  1
  O  O565  1  0.83749037  0.31438664  0.29688216  1
  O  O566  1  0.83718199  0.31411892  0.54738231  1
  O  O567  1  0.83875597  0.31478332  0.79764477  1
  O  O568  1  0.83854361  0.64842238  0.04791859  1
  O  O569  1  0.84011511  0.64732818  0.29814827  1
  O  O570  1  0.83600368  0.64994941  0.54682021  1
  O  O571  1  0.83649312  0.64881397  0.79647411  1
  O  O572  1  0.83877252  0.98094218  0.04865719  1
  O  O573  1  0.83818722  0.98313974  0.29690854  1
  O  O574  1  0.83863476  0.98136574  0.54736435  1
  O  O575  1  0.83839357  0.98147853  0.79629889  1
  O  O576  1  0.41427007  0.14907512  0.17350977  1
  O  O577  1  0.41259573  0.14761079  0.42234213  1
  O  O578  1  0.41026362  0.14836310  0.67230182  1
  O  O579  1  0.41072098  0.14884865  0.92167992  1
  O  O580  1  0.41354645  0.48150308  0.17296872  1
  O  O581  1  0.41439714  0.48162813  0.42391717  1
  O  O582  1  0.41230082  0.48114520  0.67279966  1
  O  O583  1  0.41439827  0.48100334  0.92309181  1
  O  O584  1  0.41032390  0.81444418  0.17247041  1
  O  O585  1  0.41227400  0.81569741  0.42245520  1
  O  O586  1  0.41229503  0.81571409  0.67226520  1
  O  O587  1  0.41066055  0.81557988  0.92174585  1
  O  O588  1  0.91311679  0.14880669  0.17311035  1
  O  O589  1  0.91148818  0.14818587  0.42347015  1
  O  O590  1  0.91099170  0.14703134  0.67248808  1
  O  O591  1  0.91209950  0.14924144  0.92167964  1
  O  O592  1  0.91203818  0.48105759  0.17205339  1
  O  O593  1  0.91186319  0.48292735  0.42158762  1
  O  O594  1  0.91319222  0.48214312  0.67357668  1
  O  O595  1  0.90988334  0.48047928  0.92278994  1
  O  O596  1  0.91208475  0.81572179  0.17201222  1
  O  O597  1  0.91278542  0.81393683  0.42442176  1
  O  O598  1  0.91307371  0.81605969  0.67242111  1
  O  O599  1  0.91069569  0.81488264  0.92221817  1
  O  O600  1  0.08628137  0.18462590  0.07727227  1
  O  O601  1  0.08689691  0.18480434  0.32776505  1
  O  O602  1  0.08842997  0.18583460  0.57770888  1
  O  O603  1  0.08693001  0.18498045  0.82629156  1
  O  O604  1  0.08575126  0.51746756  0.07699540  1
  O  O605  1  0.08599330  0.51978643  0.32728073  1
  O  O606  1  0.08701892  0.51780432  0.57798602  1
  O  O607  1  0.08747983  0.51870840  0.82802993  1
  O  O608  1  0.08551537  0.85260528  0.07742724  1
  O  O609  1  0.08842367  0.85031986  0.32917623  1
  O  O610  1  0.08819117  0.85087706  0.57765402  1
  O  O611  1  0.08828497  0.85170492  0.82603164  1
  O  O612  1  0.58934449  0.18340233  0.07768970  1
  O  O613  1  0.58944411  0.18487683  0.32743417  1
  O  O614  1  0.58506522  0.18397986  0.57757622  1
  O  O615  1  0.58682964  0.18574562  0.82739220  1
  O  O616  1  0.58765839  0.51866154  0.07758789  1
  O  O617  1  0.58883019  0.51839270  0.32882304  1
  O  O618  1  0.59038379  0.51991375  0.57757935  1
  O  O619  1  0.58854141  0.51720607  0.82752262  1
  O  O620  1  0.58669601  0.85242248  0.07668208  1
  O  O621  1  0.58583806  0.85134873  0.32758714  1
  O  O622  1  0.58490701  0.85084205  0.57741802  1
  O  O623  1  0.58520016  0.85149446  0.82688448  1
  O  O624  1  0.33626081  0.18573859  0.04737743  1
  O  O625  1  0.33763094  0.18387535  0.29640121  1
  O  O626  1  0.33965810  0.18498439  0.54744773  1
  O  O627  1  0.33696561  0.18423781  0.79783208  1
  O  O628  1  0.33502281  0.51867064  0.04807547  1
  O  O629  1  0.33764134  0.51867611  0.29775941  1
  O  O630  1  0.33810526  0.51839259  0.54751089  1
  O  O631  1  0.33706139  0.51901322  0.79809004  1
  O  O632  1  0.33784468  0.85046678  0.04594497  1
  O  O633  1  0.33923713  0.85214102  0.29781304  1
  O  O634  1  0.33839286  0.85109319  0.54724848  1
  O  O635  1  0.33741890  0.85134702  0.79695834  1
  O  O636  1  0.83828665  0.18597020  0.04848225  1
  O  O637  1  0.83729788  0.18417488  0.29667465  1
  O  O638  1  0.83713170  0.18392536  0.54683641  1
  O  O639  1  0.83864645  0.18456710  0.79782116  1
  O  O640  1  0.83899496  0.51821436  0.04759082  1
  O  O641  1  0.83910668  0.51715255  0.29746155  1
  O  O642  1  0.83669104  0.51974662  0.54691471  1
  O  O643  1  0.83608071  0.51869810  0.79688748  1
  O  O644  1  0.83832477  0.85082554  0.04781776  1
  O  O645  1  0.83846502  0.85292948  0.29754574  1
  O  O646  1  0.83844457  0.85125972  0.54764850  1
  O  O647  1  0.83829968  0.85105265  0.79580691  1
  O  O648  1  0.16357392  0.14783717  0.20165590  1
  O  O649  1  0.16516092  0.14727078  0.45222871  1
  O  O650  1  0.16439461  0.14858906  0.70231618  1
  O  O651  1  0.16105990  0.14948219  0.95320985  1
  O  O652  1  0.16079733  0.48138890  0.20203894  1
  O  O653  1  0.16409030  0.48156985  0.45269137  1
  O  O654  1  0.16127375  0.48037310  0.70172390  1
  O  O655  1  0.16045033  0.48196679  0.95360698  1
  O  O656  1  0.16349608  0.81538662  0.20295862  1
  O  O657  1  0.16318724  0.81617479  0.45278611  1
  O  O658  1  0.16351584  0.81615746  0.70153236  1
  O  O659  1  0.16322922  0.81427137  0.95220916  1
  O  O660  1  0.66269499  0.14909394  0.20255904  1
  O  O661  1  0.66303827  0.14760306  0.45173147  1
  O  O662  1  0.66433783  0.14819817  0.70229215  1
  O  O663  1  0.66237159  0.14921747  0.95332101  1
  O  O664  1  0.66455925  0.48102713  0.20237555  1
  O  O665  1  0.66191653  0.48237884  0.45216822  1
  O  O666  1  0.66362708  0.48220623  0.70351162  1
  O  O667  1  0.66339806  0.48050100  0.95213908  1
  O  O668  1  0.66249667  0.81551053  0.20262791  1
  O  O669  1  0.66196752  0.81503390  0.45165357  1
  O  O670  1  0.66302009  0.81462698  0.70095321  1
  O  O671  1  0.66486258  0.81494797  0.95188846  1
