# generated using pymatgen
data_Na2MnFe(PO4)2
_symmetry_space_group_name_H-M   'P 1'
_cell_length_a   21.08739573
_cell_length_b   18.94014724
_cell_length_c   20.04611345
_cell_angle_alpha   89.99942408
_cell_angle_beta   90.00015636
_cell_angle_gamma   90.00047751
_symmetry_Int_Tables_number   1
_chemical_formula_structural   Na2MnFe(PO4)2
_chemical_formula_sum   'Na96 Mn48 Fe48 P96 O384'
_cell_volume   8006.38523643
_cell_formula_units_Z   48
loop_
 _symmetry_equiv_pos_site_id
 _symmetry_equiv_pos_as_xyz
  1  'x, y, z'
loop_
 _atom_site_type_symbol
 _atom_site_label
 _atom_site_symmetry_multiplicity
 _atom_site_fract_x
 _atom_site_fract_y
 _atom_site_fract_z
 _atom_site_occupancy
  Na  Na0  1  -0.00029412  0.00013176  -0.00024444  1
  Na  Na1  1  0.00023858  0.00011228  0.25119763  1
  Na  Na2  1  0.00263800  0.00092290  0.50004864  1
  Na  Na3  1  0.00079380  -0.00034068  0.74926690  1
  Na  Na4  1  0.00014866  0.33284225  0.00143330  1
  Na  Na5  1  -0.00122023  0.33255520  0.24983031  1
  Na  Na6  1  0.00024541  0.33379132  0.49866127  1
  Na  Na7  1  0.00148926  0.33399460  0.74995621  1
  Na  Na8  1  0.00070965  0.66651033  0.00039948  1
  Na  Na9  1  0.00016779  0.66651103  0.25030152  1
  Na  Na10  1  0.00112630  0.66701880  0.49934847  1
  Na  Na11  1  0.00228365  0.66691013  0.75025133  1
  Na  Na12  1  0.49863226  0.00050087  0.00040661  1
  Na  Na13  1  0.49865052  0.00003250  0.24937848  1
  Na  Na14  1  0.49918595  0.00036066  0.49924751  1
  Na  Na15  1  0.49666071  -0.00089335  0.75020109  1
  Na  Na16  1  0.49946149  0.33338052  0.00013044  1
  Na  Na17  1  0.50131128  0.33403971  0.24881045  1
  Na  Na18  1  0.49867071  0.33266443  0.50003019  1
  Na  Na19  1  0.49765580  0.33228287  0.75117831  1
  Na  Na20  1  0.49814808  0.66572892  -0.00006229  1
  Na  Na21  1  0.50270210  0.66723929  0.24937865  1
  Na  Na22  1  0.50187541  0.66754953  0.50051395  1
  Na  Na23  1  0.49850832  0.66671115  0.75015923  1
  Na  Na24  1  0.25111929  0.00074263  0.12531909  1
  Na  Na25  1  0.25031492  0.00040151  0.37459870  1
  Na  Na26  1  0.25005410  -0.00099904  0.62405142  1
  Na  Na27  1  0.25180022  0.00038172  0.87528344  1
  Na  Na28  1  0.25088434  0.33309704  0.12429020  1
  Na  Na29  1  0.25137761  0.33364028  0.37610068  1
  Na  Na30  1  0.25130249  0.33340965  0.62482696  1
  Na  Na31  1  0.25317859  0.33474958  0.87435333  1
  Na  Na32  1  0.24962601  0.66559845  0.12595180  1
  Na  Na33  1  0.24719364  0.66567790  0.37434432  1
  Na  Na34  1  0.24888697  0.66636068  0.62474345  1
  Na  Na35  1  0.25264836  0.66742635  0.87503386  1
  Na  Na36  1  0.75062152  0.00084497  0.12470077  1
  Na  Na37  1  0.74901766  -0.00034972  0.37507801  1
  Na  Na38  1  0.75011442  0.00059976  0.62600217  1
  Na  Na39  1  0.74971936  0.00005452  0.87453379  1
  Na  Na40  1  0.74803757  0.33270584  0.12493425  1
  Na  Na41  1  0.75041023  0.33368820  0.37514225  1
  Na  Na42  1  0.74864797  0.33261615  0.62420310  1
  Na  Na43  1  0.74922394  0.33319617  0.87581233  1
  Na  Na44  1  0.74965965  0.66694815  0.12538268  1
  Na  Na45  1  0.74975349  0.66696352  0.37552694  1
  Na  Na46  1  0.74801985  0.66639607  0.62410908  1
  Na  Na47  1  0.74853481  0.66669065  0.87512256  1
  Na  Na48  1  -0.00016929  0.16667985  0.00089700  1
  Na  Na49  1  0.00102159  0.16627365  0.24980702  1
  Na  Na50  1  0.00097017  0.16680994  0.49950583  1
  Na  Na51  1  -0.00036627  0.16748215  0.74979413  1
  Na  Na52  1  0.00163203  0.49984134  0.00064952  1
  Na  Na53  1  -0.00091602  0.50079985  0.25030171  1
  Na  Na54  1  0.00101907  0.49961997  0.49859825  1
  Na  Na55  1  0.00255812  0.49964976  0.75078455  1
  Na  Na56  1  -0.00084897  0.83410874  0.00019506  1
  Na  Na57  1  -0.00079446  0.83344251  0.25138357  1
  Na  Na58  1  0.00170607  0.83248076  0.49999720  1
  Na  Na59  1  0.00195469  0.83309249  0.74886334  1
  Na  Na60  1  0.49991697  0.16700786  0.00065150  1
  Na  Na61  1  0.50078370  0.16664004  0.24873653  1
  Na  Na62  1  0.49875488  0.16699342  0.49996089  1
  Na  Na63  1  0.49858679  0.16695942  0.75069753  1
  Na  Na64  1  0.49834340  0.50015314  0.00026600  1
  Na  Na65  1  0.50124686  0.49949263  0.24957368  1
  Na  Na66  1  0.50179886  0.49926063  0.49971862  1
  Na  Na67  1  0.49746541  0.50068460  0.75017254  1
  Na  Na68  1  0.49805219  0.83303884  -0.00052947  1
  Na  Na69  1  0.50066642  0.83249115  0.24924156  1
  Na  Na70  1  0.49877819  0.83365494  0.49992926  1
  Na  Na71  1  0.49733840  0.83349827  0.75087505  1
  Na  Na72  1  0.25049962  0.16684293  0.12471199  1
  Na  Na73  1  0.25020536  0.16710631  0.37513623  1
  Na  Na74  1  0.25263649  0.16597382  0.62422119  1
  Na  Na75  1  0.25312463  0.16611919  0.87549692  1
  Na  Na76  1  0.25111275  0.49949807  0.12465627  1
  Na  Na77  1  0.24919179  0.50031884  0.37499435  1
  Na  Na78  1  0.24971050  0.49956179  0.62535272  1
  Na  Na79  1  0.25021994  0.50037814  0.87491502  1
  Na  Na80  1  0.25097979  0.83277198  0.12577964  1
  Na  Na81  1  0.24868238  0.83393436  0.37545339  1
  Na  Na82  1  0.24965121  0.83369564  0.62370384  1
  Na  Na83  1  0.25226458  0.83275507  0.87486787  1
  Na  Na84  1  0.74878737  0.16705606  0.12469407  1
  Na  Na85  1  0.74936222  0.16683633  0.37527025  1
  Na  Na86  1  0.74892625  0.16698599  0.62507470  1
  Na  Na87  1  0.74808614  0.16746907  0.87458577  1
  Na  Na88  1  0.74967710  0.49963171  0.12561690  1
  Na  Na89  1  0.74972948  0.50008638  0.37513099  1
  Na  Na90  1  0.74857122  0.50058002  0.62395354  1
  Na  Na91  1  0.74860538  0.49996690  0.87557243  1
  Na  Na92  1  0.74967796  0.83306151  0.12465763  1
  Na  Na93  1  0.75102308  0.83197290  0.37517874  1
  Na  Na94  1  0.74905896  0.83324118  0.62542444  1
  Na  Na95  1  0.75087311  0.83256011  0.87532443  1
  Mn  Mn96  1  0.35796737  0.74964477  0.25316815  1
  Mn  Mn97  1  0.85792210  0.74955100  0.75158491  1
  Mn  Mn98  1  0.14312813  0.58383045  0.74782173  1
  Mn  Mn99  1  0.14283188  0.24987820  0.49748262  1
  Mn  Mn100  1  0.60639674  0.08242736  0.62323085  1
  Mn  Mn101  1  0.60668890  0.41666300  0.62359780  1
  Mn  Mn102  1  0.10913073  0.08391281  0.62307596  1
  Mn  Mn103  1  0.14344360  0.24925397  0.74833517  1
  Mn  Mn104  1  0.35822599  0.41757562  0.50161492  1
  Mn  Mn105  1  0.85779347  0.08258556  0.50198279  1
  Mn  Mn106  1  0.89303830  0.58312614  0.62750155  1
  Mn  Mn107  1  0.10786019  0.75083883  0.12290250  1
  Mn  Mn108  1  0.39264521  0.25080654  0.12776108  1
  Mn  Mn109  1  0.35736819  0.74938304  0.50121777  1
  Mn  Mn110  1  0.39291537  0.58370774  0.37693333  1
  Mn  Mn111  1  0.35806877  0.08309852  0.50133471  1
  Mn  Mn112  1  0.39178974  0.58358871  0.62683623  1
  Mn  Mn113  1  0.85776554  0.41692351  0.50239467  1
  Mn  Mn114  1  0.60652665  0.41659600  0.87214881  1
  Mn  Mn115  1  0.85771183  0.41667395  0.00196761  1
  Mn  Mn116  1  0.85743415  0.08366077  0.00143269  1
  Mn  Mn117  1  0.85750288  0.08369877  0.75248435  1
  Mn  Mn118  1  0.64099108  0.91641801  0.74791729  1
  Mn  Mn119  1  0.60602793  0.75049692  0.87250525  1
  Mn  Mn120  1  0.85785570  0.74971197  0.00196489  1
  Mn  Mn121  1  0.89189658  0.24955953  0.12763454  1
  Mn  Mn122  1  0.85798759  0.41689980  0.75215646  1
  Mn  Mn123  1  0.89233553  0.25069154  0.62733076  1
  Mn  Mn124  1  0.64115622  0.91662715  0.49816343  1
  Mn  Mn125  1  0.10754169  0.41640129  0.37157634  1
  Mn  Mn126  1  0.64225515  0.91663352  0.24786256  1
  Mn  Mn127  1  0.14312221  0.25064707  0.99711680  1
  Mn  Mn128  1  0.64119413  0.58301919  0.99781304  1
  Mn  Mn129  1  0.14262808  0.91727064  0.24770874  1
  Mn  Mn130  1  0.89237644  0.58308718  0.87697040  1
  Mn  Mn131  1  0.89235559  0.58347365  0.12748810  1
  Mn  Mn132  1  0.10831276  0.41607989  0.12340890  1
  Mn  Mn133  1  0.89240065  0.91685529  0.37796185  1
  Mn  Mn134  1  0.64169764  0.91719217  0.99716139  1
  Mn  Mn135  1  0.64213973  0.58354670  0.49739576  1
  Mn  Mn136  1  0.39221253  0.91596464  0.12767813  1
  Mn  Mn137  1  0.60780865  0.08314405  0.12270265  1
  Mn  Mn138  1  0.10852682  0.08387337  0.87273278  1
  Mn  Mn139  1  0.10890565  0.75021678  0.87303600  1
  Mn  Mn140  1  0.64106424  0.24979181  0.49742666  1
  Mn  Mn141  1  0.89198716  0.91701987  0.12749648  1
  Mn  Mn142  1  0.14293473  0.91603096  0.99757408  1
  Mn  Mn143  1  0.89341310  0.91651059  0.62712808  1
  Fe  Fe144  1  0.39221885  0.24966580  0.62739916  1
  Fe  Fe145  1  0.10867324  0.74944253  0.62255800  1
  Fe  Fe146  1  0.39141795  0.91657054  0.62676418  1
  Fe  Fe147  1  0.85639127  0.41666065  0.25149932  1
  Fe  Fe148  1  0.35717263  0.41685690  0.75212326  1
  Fe  Fe149  1  0.35789303  0.08296659  0.75219727  1
  Fe  Fe150  1  0.39302975  0.91669968  0.37598810  1
  Fe  Fe151  1  0.35771997  0.08339250  0.00223239  1
  Fe  Fe152  1  0.10766197  0.08373026  0.37240929  1
  Fe  Fe153  1  0.60687623  0.08342791  0.37281713  1
  Fe  Fe154  1  0.14376257  0.91680543  0.74874470  1
  Fe  Fe155  1  0.35747912  0.74943287  0.00260893  1
  Fe  Fe156  1  0.39334758  0.24994252  0.37528689  1
  Fe  Fe157  1  0.60632990  0.75067387  0.62401461  1
  Fe  Fe158  1  0.35719035  0.74993961  0.75101071  1
  Fe  Fe159  1  0.60799288  0.75042417  0.37324256  1
  Fe  Fe160  1  0.10642279  0.75012075  0.37308691  1
  Fe  Fe161  1  0.60568975  0.08308533  0.87345017  1
  Fe  Fe162  1  0.10778495  0.08316726  0.12367389  1
  Fe  Fe163  1  0.64222575  0.24985946  0.99766678  1
  Fe  Fe164  1  0.64313147  0.58293103  0.24857049  1
  Fe  Fe165  1  0.14278168  0.58234230  0.24805930  1
  Fe  Fe166  1  0.89303825  0.91702235  0.87572884  1
  Fe  Fe167  1  0.35717170  0.08424006  0.25207081  1
  Fe  Fe168  1  0.14328206  0.25050595  0.24896742  1
  Fe  Fe169  1  0.60754813  0.41628970  0.37241499  1
  Fe  Fe170  1  0.89226289  0.24994549  0.87635406  1
  Fe  Fe171  1  0.35732718  0.41718113  0.00205694  1
  Fe  Fe172  1  0.14198766  0.58337806  0.49786602  1
  Fe  Fe173  1  0.60733618  0.74953216  0.12317316  1
  Fe  Fe174  1  0.64114358  0.58298901  0.74852135  1
  Fe  Fe175  1  0.85734747  0.75014344  0.50228182  1
  Fe  Fe176  1  0.14320579  0.91641706  0.49784787  1
  Fe  Fe177  1  0.10818945  0.41597523  0.87387489  1
  Fe  Fe178  1  0.39164802  0.91680998  0.87720405  1
  Fe  Fe179  1  0.14408799  0.58322224  0.99880530  1
  Fe  Fe180  1  0.85676632  0.74954843  0.25220576  1
  Fe  Fe181  1  0.10859450  0.41683616  0.62336066  1
  Fe  Fe182  1  0.39284830  0.58316556  0.12740197  1
  Fe  Fe183  1  0.85755916  0.08379739  0.25228986  1
  Fe  Fe184  1  0.89259637  0.58339474  0.37635756  1
  Fe  Fe185  1  0.89255926  0.24985661  0.37599726  1
  Fe  Fe186  1  0.39307492  0.24988215  0.87704284  1
  Fe  Fe187  1  0.35789887  0.41621310  0.25176517  1
  Fe  Fe188  1  0.64285026  0.25031997  0.24907183  1
  Fe  Fe189  1  0.64177310  0.25062174  0.74867270  1
  Fe  Fe190  1  0.39184024  0.58317213  0.87718613  1
  Fe  Fe191  1  0.60709289  0.41735064  0.12333214  1
  P  P192  1  0.05525131  0.24899029  0.11148373  1
  P  P193  1  0.05310086  0.24953223  0.35913860  1
  P  P194  1  0.05415322  0.25099344  0.60981042  1
  P  P195  1  0.05250670  0.25067685  0.86028253  1
  P  P196  1  0.05572506  0.58315304  0.11062904  1
  P  P197  1  0.05392177  0.58406040  0.36030173  1
  P  P198  1  0.05489850  0.58312471  0.60934400  1
  P  P199  1  0.05558940  0.58247622  0.86173060  1
  P  P200  1  0.05365719  0.91783299  0.11019862  1
  P  P201  1  0.05498732  0.91666118  0.36159153  1
  P  P202  1  0.05667857  0.91602223  0.61042017  1
  P  P203  1  0.05351112  0.91689840  0.85920636  1
  P  P204  1  0.55572854  0.25112866  0.11071997  1
  P  P205  1  0.55272267  0.24992504  0.35909028  1
  P  P206  1  0.55237290  0.24986032  0.61145353  1
  P  P207  1  0.55333426  0.24911670  0.86113657  1
  P  P208  1  0.55362160  0.58303959  0.11140644  1
  P  P209  1  0.55440944  0.58339132  0.35924588  1
  P  P210  1  0.55403778  0.58423089  0.61131021  1
  P  P211  1  0.55139427  0.58330067  0.85971108  1
  P  P212  1  0.55334547  0.91580981  0.10981399  1
  P  P213  1  0.55213654  0.91683167  0.35980657  1
  P  P214  1  0.55073713  0.91583725  0.61037395  1
  P  P215  1  0.55075238  0.91764095  0.86040047  1
  P  P216  1  0.44480988  0.08373949  0.13973924  1
  P  P217  1  0.44646845  0.08390238  0.38791770  1
  P  P218  1  0.44510861  0.08303362  0.64036223  1
  P  P219  1  0.44519851  0.08354811  0.88974282  1
  P  P220  1  0.44592446  0.41759824  0.13939420  1
  P  P221  1  0.44712405  0.41607496  0.38818067  1
  P  P222  1  0.44542669  0.41609746  0.64067874  1
  P  P223  1  0.44419641  0.41669016  0.88960194  1
  P  P224  1  0.44649290  0.74856372  0.13910546  1
  P  P225  1  0.44844107  0.75018791  0.38970673  1
  P  P226  1  0.44630046  0.75063342  0.64017817  1
  P  P227  1  0.44347782  0.74969554  0.88933095  1
  P  P228  1  0.94712286  0.08331974  0.14093524  1
  P  P229  1  0.94683183  0.08435722  0.38889391  1
  P  P230  1  0.94730652  0.08344603  0.63995803  1
  P  P231  1  0.94691727  0.08346595  0.88962388  1
  P  P232  1  0.94596539  0.41665981  0.14100487  1
  P  P233  1  0.94464819  0.41661422  0.38791773  1
  P  P234  1  0.94877858  0.41720940  0.64003915  1
  P  P235  1  0.94824773  0.41590704  0.89032164  1
  P  P236  1  0.94603128  0.75008793  0.14124165  1
  P  P237  1  0.94536020  0.74905323  0.38948964  1
  P  P238  1  0.94800344  0.74967032  0.63874900  1
  P  P239  1  0.94725860  0.75082643  0.88966735  1
  P  P240  1  0.19648311  0.08469677  0.23569992  1
  P  P241  1  0.19629943  0.08266165  0.48399721  1
  P  P242  1  0.19921129  0.08282883  0.73528461  1
  P  P243  1  0.19750287  0.08335028  0.98616449  1
  P  P244  1  0.19836311  0.41600310  0.23515470  1
  P  P245  1  0.19548542  0.41735735  0.48571677  1
  P  P246  1  0.19677964  0.41614770  0.73594101  1
  P  P247  1  0.19786106  0.41734882  0.98465959  1
  P  P248  1  0.19543813  0.74936528  0.23642475  1
  P  P249  1  0.19462219  0.74971378  0.48510634  1
  P  P250  1  0.19781309  0.75100996  0.73456968  1
  P  P251  1  0.19867684  0.74904986  0.98549119  1
  P  P252  1  0.69658853  0.08411686  0.23629167  1
  P  P253  1  0.69520062  0.08303148  0.48432453  1
  P  P254  1  0.69440654  0.08427132  0.73643008  1
  P  P255  1  0.69530916  0.08408451  0.98384177  1
  P  P256  1  0.69558833  0.41664787  0.23596068  1
  P  P257  1  0.69531693  0.41647369  0.48420020  1
  P  P258  1  0.69615795  0.41648300  0.73502832  1
  P  P259  1  0.69464007  0.41607558  0.98612649  1
  P  P260  1  0.69579793  0.74915982  0.23577705  1
  P  P261  1  0.69565662  0.75050264  0.48567366  1
  P  P262  1  0.69521841  0.74920808  0.73447227  1
  P  P263  1  0.69481973  0.74985637  0.98566672  1
  P  P264  1  0.30552111  0.25037488  0.01374008  1
  P  P265  1  0.30317384  0.25037443  0.26536202  1
  P  P266  1  0.30595137  0.25019406  0.51400636  1
  P  P267  1  0.30571393  0.24972710  0.76448669  1
  P  P268  1  0.30469107  0.58313906  0.01473891  1
  P  P269  1  0.30358956  0.58212418  0.26407910  1
  P  P270  1  0.30169351  0.58360739  0.51452330  1
  P  P271  1  0.30420208  0.58346101  0.76516672  1
  P  P272  1  0.30500509  0.91651649  0.01431310  1
  P  P273  1  0.30426108  0.91741459  0.26583757  1
  P  P274  1  0.30439167  0.91632499  0.51353053  1
  P  P275  1  0.30423352  0.91640695  0.76402467  1
  P  P276  1  0.80312400  0.24997494  0.01395960  1
  P  P277  1  0.80259161  0.25012744  0.26531653  1
  P  P278  1  0.80402969  0.24960675  0.51389681  1
  P  P279  1  0.80217309  0.25055324  0.76559687  1
  P  P280  1  0.80292028  0.58315476  0.01535671  1
  P  P281  1  0.80275196  0.58323249  0.26539063  1
  P  P282  1  0.80485877  0.58434031  0.51378205  1
  P  P283  1  0.80137494  0.58329306  0.76484167  1
  P  P284  1  0.80425909  0.91689214  0.01379055  1
  P  P285  1  0.80344025  0.91667800  0.26512687  1
  P  P286  1  0.80312826  0.91578471  0.51551388  1
  P  P287  1  0.80354082  0.91629558  0.76545932  1
  O  O288  1  0.05977636  0.25012475  0.18815624  1
  O  O289  1  0.05706670  0.25029268  0.43580222  1
  O  O290  1  0.05761771  0.25023004  0.68657332  1
  O  O291  1  0.05647345  0.24989541  0.93700827  1
  O  O292  1  0.05996884  0.58274240  0.18746238  1
  O  O293  1  0.05845483  0.58311076  0.43697186  1
  O  O294  1  0.05793123  0.58338835  0.68620687  1
  O  O295  1  0.06003461  0.58343586  0.93846109  1
  O  O296  1  0.05688291  0.91692481  0.18696936  1
  O  O297  1  0.05889522  0.91677052  0.43831780  1
  O  O298  1  0.06091029  0.91673443  0.68720601  1
  O  O299  1  0.05730724  0.91674495  0.93596761  1
  O  O300  1  0.56007315  0.25024539  0.18746516  1
  O  O301  1  0.55534229  0.24995147  0.43587317  1
  O  O302  1  0.55716864  0.25017702  0.68811006  1
  O  O303  1  0.55783729  0.25001083  0.93782492  1
  O  O304  1  0.55885330  0.58297973  0.18799120  1
  O  O305  1  0.55674914  0.58341520  0.43609041  1
  O  O306  1  0.55749116  0.58331294  0.68806821  1
  O  O307  1  0.55538400  0.58299890  0.93641877  1
  O  O308  1  0.55664121  0.91647752  0.18659112  1
  O  O309  1  0.55516777  0.91691343  0.43650366  1
  O  O310  1  0.55444420  0.91630659  0.68702787  1
  O  O311  1  0.55484703  0.91715022  0.93703327  1
  O  O312  1  0.44069084  0.08391602  0.06295920  1
  O  O313  1  0.44188235  0.08411580  0.31123639  1
  O  O314  1  0.44297245  0.08296101  0.56354081  1
  O  O315  1  0.44104425  0.08332078  0.81299187  1
  O  O316  1  0.44112728  0.41692241  0.06273152  1
  O  O317  1  0.44221932  0.41667250  0.31151782  1
  O  O318  1  0.44342065  0.41715732  0.56379891  1
  O  O319  1  0.44037236  0.41681159  0.81282202  1
  O  O320  1  0.44150255  0.74898100  0.06245189  1
  O  O321  1  0.44457458  0.74925987  0.31302558  1
  O  O322  1  0.44298177  0.74982870  0.56346068  1
  O  O323  1  0.43982966  0.74973172  0.81254334  1
  O  O324  1  0.94282150  0.08358949  0.06425566  1
  O  O325  1  0.94150164  0.08364449  0.31224970  1
  O  O326  1  0.94408045  0.08325307  0.56317524  1
  O  O327  1  0.94402476  0.08366329  0.81286204  1
  O  O328  1  0.94300285  0.41671986  0.06421703  1
  O  O329  1  0.94010425  0.41675582  0.31122997  1
  O  O330  1  0.94429513  0.41724115  0.56335059  1
  O  O331  1  0.94458247  0.41675808  0.81360198  1
  O  O332  1  0.94298551  0.74979346  0.06443473  1
  O  O333  1  0.94030819  0.74954931  0.31280541  1
  O  O334  1  0.94257322  0.74984659  0.56214816  1
  O  O335  1  0.94435460  0.74977606  0.81287365  1
  O  O336  1  0.19239304  0.08344970  0.06277035  1
  O  O337  1  0.19153204  0.08395866  0.31239492  1
  O  O338  1  0.19395542  0.08360463  0.56081522  1
  O  O339  1  0.19542301  0.08373245  0.81199633  1
  O  O340  1  0.19397059  0.41613452  0.06131447  1
  O  O341  1  0.19447054  0.41614047  0.31187482  1
  O  O342  1  0.19186817  0.41653941  0.56249165  1
  O  O343  1  0.19196857  0.41599107  0.81260006  1
  O  O344  1  0.19467212  0.74981501  0.06215453  1
  O  O345  1  0.19082350  0.75002656  0.31312355  1
  O  O346  1  0.19172976  0.74967946  0.56197677  1
  O  O347  1  0.19461344  0.75038692  0.81130433  1
  O  O348  1  0.69281212  0.08307475  0.06072589  1
  O  O349  1  0.69111328  0.08323925  0.31290297  1
  O  O350  1  0.69170985  0.08314130  0.56112991  1
  O  O351  1  0.68970034  0.08315390  0.81309590  1
  O  O352  1  0.69074898  0.41702655  0.06290671  1
  O  O353  1  0.69125800  0.41654537  0.31268169  1
  O  O354  1  0.69151926  0.41624678  0.56093604  1
  O  O355  1  0.69314968  0.41645721  0.81183134  1
  O  O356  1  0.69045242  0.74987310  0.06248204  1
  O  O357  1  0.69109875  0.75020696  0.31252112  1
  O  O358  1  0.69017488  0.75082132  0.56225216  1
  O  O359  1  0.69190307  0.75019021  0.81127731  1
  O  O360  1  0.30656383  0.25030357  0.18865178  1
  O  O361  1  0.31037052  0.25022524  0.43726680  1
  O  O362  1  0.30859246  0.24971165  0.68760749  1
  O  O363  1  0.30939172  0.25018705  0.93698397  1
  O  O364  1  0.30861098  0.58292439  0.18743173  1
  O  O365  1  0.30610272  0.58364971  0.43785082  1
  O  O366  1  0.30646685  0.58331672  0.68835662  1
  O  O367  1  0.30866332  0.58320179  0.93800259  1
  O  O368  1  0.30718352  0.91637974  0.18902689  1
  O  O369  1  0.30979131  0.91641615  0.43690747  1
  O  O370  1  0.30791013  0.91643091  0.68721298  1
  O  O371  1  0.30847667  0.91681435  0.93746212  1
  O  O372  1  0.80573483  0.24980107  0.18855375  1
  O  O373  1  0.80886014  0.24970711  0.43720455  1
  O  O374  1  0.80626871  0.25042867  0.68885031  1
  O  O375  1  0.80854957  0.25013074  0.93735548  1
  O  O376  1  0.80615517  0.58338219  0.18868878  1
  O  O377  1  0.80911966  0.58371718  0.43707467  1
  O  O378  1  0.80575914  0.58327236  0.68813804  1
  O  O379  1  0.80637669  0.58314169  0.93857916  1
  O  O380  1  0.80594396  0.91695595  0.18832244  1
  O  O381  1  0.80646329  0.91628719  0.43872709  1
  O  O382  1  0.80728670  0.91656272  0.68868834  1
  O  O383  1  0.80892821  0.91680152  0.93711160  1
  O  O384  1  0.23560509  0.25024594  0.03819911  1
  O  O385  1  0.23318062  0.25045367  0.29026575  1
  O  O386  1  0.23583922  0.24976972  0.53782983  1
  O  O387  1  0.23599646  0.25008784  0.78981142  1
  O  O388  1  0.23439702  0.58266197  0.03880710  1
  O  O389  1  0.23316049  0.58245339  0.28756489  1
  O  O390  1  0.23172975  0.58338630  0.53889831  1
  O  O391  1  0.23458218  0.58379773  0.79064651  1
  O  O392  1  0.23529350  0.91657173  0.03943518  1
  O  O393  1  0.23446114  0.91714024  0.29050545  1
  O  O394  1  0.23387696  0.91624656  0.53645511  1
  O  O395  1  0.23411222  0.91672675  0.78875796  1
  O  O396  1  0.73273539  0.24968647  0.03733757  1
  O  O397  1  0.73245357  0.25035028  0.28998247  1
  O  O398  1  0.73383410  0.24965571  0.53755592  1
  O  O399  1  0.73197002  0.25048927  0.78966632  1
  O  O400  1  0.73321913  0.58322907  0.04028613  1
  O  O401  1  0.73259460  0.58327403  0.28994049  1
  O  O402  1  0.73469876  0.58381098  0.53756841  1
  O  O403  1  0.73126119  0.58332630  0.78925032  1
  O  O404  1  0.73424057  0.91702831  0.03795340  1
  O  O405  1  0.73383014  0.91606661  0.29066980  1
  O  O406  1  0.73345896  0.91660384  0.54061541  1
  O  O407  1  0.73354955  0.91605611  0.78981963  1
  O  O408  1  0.26701335  0.08395189  0.21242825  1
  O  O409  1  0.26605650  0.08332943  0.45893496  1
  O  O410  1  0.26915259  0.08257987  0.71046618  1
  O  O411  1  0.26793416  0.08348021  0.96274885  1
  O  O412  1  0.26833014  0.41601827  0.21037903  1
  O  O413  1  0.26541482  0.41724194  0.46118599  1
  O  O414  1  0.26726628  0.41645264  0.71257362  1
  O  O415  1  0.26808978  0.41749750  0.96065898  1
  O  O416  1  0.26557057  0.74957055  0.21254711  1
  O  O417  1  0.26446480  0.74983248  0.46004601  1
  O  O418  1  0.26782309  0.74994200  0.70971577  1
  O  O419  1  0.26871378  0.74940865  0.96106320  1
  O  O420  1  0.76699454  0.08416678  0.21272348  1
  O  O421  1  0.76503626  0.08292214  0.45975342  1
  O  O422  1  0.76447776  0.08404409  0.71230288  1
  O  O423  1  0.76495147  0.08385125  0.95866649  1
  O  O424  1  0.76598874  0.41649071  0.21208174  1
  O  O425  1  0.76528017  0.41687041  0.46009071  1
  O  O426  1  0.76560593  0.41645418  0.70908906  1
  O  O427  1  0.76453768  0.41641770  0.96162837  1
  O  O428  1  0.76631125  0.74968653  0.21241015  1
  O  O429  1  0.76609894  0.74987702  0.46244066  1
  O  O430  1  0.76501134  0.74980149  0.70955463  1
  O  O431  1  0.76482285  0.74953269  0.96167566  1
  O  O432  1  0.01732945  0.08323362  0.16493805  1
  O  O433  1  0.01730999  0.08402075  0.41218694  1
  O  O434  1  0.01708934  0.08353282  0.66486158  1
  O  O435  1  0.01650112  0.08358259  0.91526564  1
  O  O436  1  0.01578030  0.41662166  0.16581180  1
  O  O437  1  0.01486296  0.41656998  0.41170024  1
  O  O438  1  0.01890830  0.41720087  0.66413971  1
  O  O439  1  0.01816709  0.41605267  0.91541430  1
  O  O440  1  0.01581192  0.75014567  0.16606523  1
  O  O441  1  0.01594780  0.74989219  0.41250466  1
  O  O442  1  0.01850336  0.74966154  0.66200218  1
  O  O443  1  0.01688974  0.75060933  0.91519112  1
  O  O444  1  0.51501270  0.08346518  0.16330491  1
  O  O445  1  0.51664144  0.08389282  0.41225137  1
  O  O446  1  0.51456856  0.08294121  0.66620443  1
  O  O447  1  0.51543953  0.08371896  0.91392375  1
  O  O448  1  0.51640223  0.41699227  0.16266943  1
  O  O449  1  0.51743640  0.41623814  0.41197971  1
  O  O450  1  0.51482577  0.41651242  0.66664089  1
  O  O451  1  0.51421985  0.41654002  0.91390897  1
  O  O452  1  0.51686934  0.74928673  0.16261521  1
  O  O453  1  0.51846996  0.75019744  0.41425186  1
  O  O454  1  0.51613900  0.75024164  0.66531997  1
  O  O455  1  0.51349079  0.74962217  0.91377125  1
  O  O456  1  0.48549112  0.25051961  0.08715653  1
  O  O457  1  0.48283982  0.25003341  0.33371042  1
  O  O458  1  0.48209196  0.24969424  0.58761759  1
  O  O459  1  0.48282524  0.24969483  0.83784168  1
  O  O460  1  0.48327966  0.58278315  0.08767198  1
  O  O461  1  0.48479830  0.58343089  0.33368822  1
  O  O462  1  0.48426116  0.58370234  0.58618499  1
  O  O463  1  0.48111220  0.58347882  0.83596081  1
  O  O464  1  0.48360512  0.91631627  0.08499243  1
  O  O465  1  0.48225704  0.91653073  0.33446653  1
  O  O466  1  0.48077919  0.91659766  0.58553039  1
  O  O467  1  0.48051760  0.91687924  0.83637052  1
  O  O468  1  0.98511032  0.24955852  0.08763078  1
  O  O469  1  0.98292219  0.24976763  0.33496024  1
  O  O470  1  0.98452630  0.25050138  0.58453922  1
  O  O471  1  0.98253554  0.25040486  0.83557028  1
  O  O472  1  0.98557007  0.58319390  0.08695127  1
  O  O473  1  0.98347593  0.58354179  0.33676192  1
  O  O474  1  0.98526276  0.58321861  0.58404528  1
  O  O475  1  0.98566204  0.58302507  0.83716650  1
  O  O476  1  0.98402198  0.91748194  0.08513559  1
  O  O477  1  0.98498698  0.91663987  0.33725915  1
  O  O478  1  0.98662269  0.91665210  0.58620098  1
  O  O479  1  0.98351506  0.91667310  0.83461657  1
  O  O480  1  0.08886727  0.31386269  0.07794387  1
  O  O481  1  0.08701737  0.31443307  0.32590287  1
  O  O482  1  0.08802503  0.31622060  0.57753041  1
  O  O483  1  0.08655890  0.31579252  0.82805160  1
  O  O484  1  0.08939301  0.64816798  0.07759834  1
  O  O485  1  0.08715656  0.64927920  0.32743964  1
  O  O486  1  0.08924250  0.64813993  0.57693285  1
  O  O487  1  0.08940999  0.64729323  0.82826324  1
  O  O488  1  0.08772662  0.98304698  0.07814486  1
  O  O489  1  0.08854121  0.98174409  0.32850409  1
  O  O490  1  0.09074848  0.98080650  0.57723240  1
  O  O491  1  0.08752837  0.98199871  0.82662644  1
  O  O492  1  0.58870467  0.31648278  0.07780311  1
  O  O493  1  0.58702791  0.31485083  0.32659864  1
  O  O494  1  0.58557244  0.31485396  0.57789709  1
  O  O495  1  0.58672735  0.31389643  0.82725339  1
  O  O496  1  0.58657594  0.64817982  0.07789223  1
  O  O497  1  0.58888390  0.64843455  0.32718084  1
  O  O498  1  0.58759451  0.64964955  0.57898173  1
  O  O499  1  0.58526580  0.64820340  0.82694121  1
  O  O500  1  0.58732428  0.98101881  0.07743443  1
  O  O501  1  0.58591914  0.98196616  0.32711788  1
  O  O502  1  0.58484585  0.98067647  0.57752483  1
  O  O503  1  0.58398545  0.98276865  0.82746021  1
  O  O504  1  0.41100159  0.01895549  0.17278244  1
  O  O505  1  0.41308018  0.01875175  0.42104425  1
  O  O506  1  0.41058725  0.01796612  0.67241181  1
  O  O507  1  0.41161031  0.01851499  0.92283758  1
  O  O508  1  0.41250974  0.35270955  0.17308626  1
  O  O509  1  0.41374279  0.35095897  0.42107245  1
  O  O510  1  0.41113118  0.35092357  0.67243835  1
  O  O511  1  0.41059739  0.35162591  0.92261607  1
  O  O512  1  0.41360129  0.68341074  0.17258157  1
  O  O513  1  0.41476700  0.68513974  0.42281587  1
  O  O514  1  0.41195191  0.68582091  0.67296056  1
  O  O515  1  0.40993559  0.68457084  0.92239040  1
  O  O516  1  0.91319174  0.01845152  0.17392311  1
  O  O517  1  0.91374174  0.01932213  0.42265683  1
  O  O518  1  0.91329396  0.01842521  0.67243975  1
  O  O519  1  0.91291351  0.01806507  0.92161181  1
  O  O520  1  0.91156685  0.35169230  0.17327605  1
  O  O521  1  0.91150236  0.35129769  0.42099384  1
  O  O522  1  0.91499065  0.35218539  0.67285519  1
  O  O523  1  0.91419128  0.35072023  0.92257760  1
  O  O524  1  0.91187502  0.68509046  0.17388142  1
  O  O525  1  0.91268322  0.68370241  0.42277512  1
  O  O526  1  0.91491685  0.68465270  0.67241697  1
  O  O527  1  0.91302268  0.68586173  0.92233488  1
  O  O528  1  0.16293539  0.01986240  0.20201010  1
  O  O529  1  0.16243485  0.01739441  0.45195554  1
  O  O530  1  0.16512113  0.01788319  0.70300466  1
  O  O531  1  0.16449831  0.01827471  0.95266092  1
  O  O532  1  0.16461174  0.35083824  0.20257696  1
  O  O533  1  0.16193593  0.35237707  0.45241218  1
  O  O534  1  0.16372210  0.35118685  0.70229326  1
  O  O535  1  0.16433961  0.35245053  0.95103184  1
  O  O536  1  0.16215060  0.68417397  0.20359077  1
  O  O537  1  0.16064451  0.68465796  0.45249889  1
  O  O538  1  0.16316643  0.68631178  0.70188423  1
  O  O539  1  0.16522152  0.68386677  0.95285767  1
  O  O540  1  0.66350118  0.01909128  0.20247152  1
  O  O541  1  0.66096440  0.01806801  0.45179336  1
  O  O542  1  0.66098006  0.01919988  0.70296336  1
  O  O543  1  0.66069642  0.01937111  0.95113438  1
  O  O544  1  0.66202200  0.35172845  0.20278540  1
  O  O545  1  0.66148725  0.35148663  0.45126577  1
  O  O546  1  0.66180513  0.35121417  0.70300501  1
  O  O547  1  0.66108012  0.35080788  0.95351448  1
  O  O548  1  0.66274495  0.68375124  0.20283867  1
  O  O549  1  0.66205364  0.68568224  0.45210952  1
  O  O550  1  0.66126803  0.68396708  0.70235103  1
  O  O551  1  0.66100455  0.68491075  0.95275180  1
  O  O552  1  0.33889794  0.31574555  0.04656187  1
  O  O553  1  0.33741914  0.31533950  0.29789093  1
  O  O554  1  0.33929650  0.31519733  0.54729189  1
  O  O555  1  0.34000531  0.31466254  0.79699601  1
  O  O556  1  0.33793245  0.64821536  0.04819379  1
  O  O557  1  0.33677637  0.64706286  0.29786094  1
  O  O558  1  0.33534745  0.64869664  0.54730885  1
  O  O559  1  0.33854866  0.64850833  0.79720619  1
  O  O560  1  0.33890670  0.98153939  0.04694958  1
  O  O561  1  0.33823335  0.98270250  0.29779991  1
  O  O562  1  0.33745199  0.98134661  0.54716236  1
  O  O563  1  0.33816740  0.98124685  0.79723276  1
  O  O564  1  0.83617660  0.31493908  0.04766172  1
  O  O565  1  0.83659395  0.31522405  0.29771014  1
  O  O566  1  0.83728646  0.31480732  0.54717709  1
  O  O567  1  0.83602551  0.31556020  0.79844668  1
  O  O568  1  0.83706520  0.64813638  0.04784746  1
  O  O569  1  0.83672960  0.64819088  0.29826663  1
  O  O570  1  0.83794676  0.64963624  0.54686051  1
  O  O571  1  0.83528900  0.64832629  0.79753785  1
  O  O572  1  0.83765154  0.98208924  0.04689105  1
  O  O573  1  0.83730353  0.98192618  0.29757087  1
  O  O574  1  0.83757511  0.98072287  0.54780905  1
  O  O575  1  0.83748559  0.98132114  0.79823805  1
  O  O576  1  0.41152409  0.14883545  0.17299160  1
  O  O577  1  0.41310316  0.14895504  0.42112267  1
  O  O578  1  0.41081055  0.14806298  0.67265083  1
  O  O579  1  0.41175709  0.14865157  0.92287603  1
  O  O580  1  0.41275828  0.48256399  0.17284402  1
  O  O581  1  0.41391781  0.48113155  0.42185896  1
  O  O582  1  0.41061175  0.48093767  0.67287633  1
  O  O583  1  0.41070652  0.48186856  0.92261665  1
  O  O584  1  0.41299041  0.81344664  0.17253484  1
  O  O585  1  0.41432273  0.81520987  0.42189217  1
  O  O586  1  0.41219067  0.81572987  0.67248268  1
  O  O587  1  0.40986499  0.81483630  0.92221184  1
  O  O588  1  0.91327433  0.14830490  0.17396920  1
  O  O589  1  0.91374802  0.14958697  0.42189598  1
  O  O590  1  0.91313935  0.14847618  0.67228323  1
  O  O591  1  0.91269042  0.14857908  0.92200857  1
  O  O592  1  0.91165623  0.48156373  0.17347193  1
  O  O593  1  0.91159529  0.48184966  0.42123888  1
  O  O594  1  0.91518077  0.48218470  0.67318743  1
  O  O595  1  0.91423598  0.48097010  0.92303595  1
  O  O596  1  0.91176833  0.81505588  0.17360319  1
  O  O597  1  0.91186995  0.81382110  0.42333383  1
  O  O598  1  0.91482923  0.81465613  0.67221371  1
  O  O599  1  0.91320910  0.81625134  0.92140966  1
  O  O600  1  0.08840911  0.18360290  0.07867293  1
  O  O601  1  0.08721680  0.18460281  0.32659903  1
  O  O602  1  0.08849591  0.18597578  0.57733271  1
  O  O603  1  0.08659997  0.18575112  0.82731640  1
  O  O604  1  0.08944452  0.51820595  0.07754413  1
  O  O605  1  0.08760590  0.51927590  0.32654194  1
  O  O606  1  0.08910610  0.51800445  0.57706049  1
  O  O607  1  0.08894323  0.51704794  0.82916944  1
  O  O608  1  0.08775576  0.85281012  0.07742200  1
  O  O609  1  0.08836647  0.85146868  0.32861221  1
  O  O610  1  0.09003611  0.85073933  0.57758556  1
  O  O611  1  0.08792770  0.85206171  0.82659279  1
  O  O612  1  0.58937347  0.18625937  0.07726369  1
  O  O613  1  0.58697910  0.18495497  0.32663584  1
  O  O614  1  0.58565739  0.18481767  0.57813396  1
  O  O615  1  0.58626244  0.18396427  0.82790966  1
  O  O616  1  0.58676633  0.51787850  0.07798338  1
  O  O617  1  0.58869527  0.51830430  0.32695951  1
  O  O618  1  0.58810266  0.51946474  0.57822961  1
  O  O619  1  0.58506300  0.51834031  0.82664714  1
  O  O620  1  0.58700608  0.85059083  0.07753223  1
  O  O621  1  0.58634707  0.85176939  0.32752518  1
  O  O622  1  0.58438515  0.85062399  0.57780815  1
  O  O623  1  0.58452595  0.85270619  0.82740372  1
  O  O624  1  0.33926933  0.18555249  0.04688070  1
  O  O625  1  0.33715964  0.18535263  0.29808516  1
  O  O626  1  0.33967371  0.18519481  0.54699815  1
  O  O627  1  0.33951613  0.18453763  0.79714165  1
  O  O628  1  0.33845791  0.51815398  0.04779630  1
  O  O629  1  0.33668086  0.51691687  0.29717380  1
  O  O630  1  0.33579431  0.51878841  0.54728442  1
  O  O631  1  0.33819809  0.51837005  0.79767813  1
  O  O632  1  0.33863375  0.85112354  0.04681289  1
  O  O633  1  0.33854637  0.85259108  0.29869310  1
  O  O634  1  0.33749374  0.85137155  0.54719893  1
  O  O635  1  0.33761757  0.85115072  0.79679975  1
  O  O636  1  0.83636853  0.18490499  0.04741516  1
  O  O637  1  0.83663772  0.18525974  0.29826908  1
  O  O638  1  0.83728050  0.18456065  0.54717020  1
  O  O639  1  0.83610500  0.18564396  0.79857743  1
  O  O640  1  0.83689896  0.51807231  0.04782295  1
  O  O641  1  0.83659531  0.51810645  0.29797783  1
  O  O642  1  0.83829294  0.51934657  0.54716030  1
  O  O643  1  0.83520245  0.51824598  0.79770730  1
  O  O644  1  0.83773018  0.85191004  0.04709634  1
  O  O645  1  0.83789925  0.85161739  0.29713562  1
  O  O646  1  0.83700021  0.85040318  0.54763076  1
  O  O647  1  0.83774188  0.85132191  0.79791318  1
  O  O648  1  0.16363850  0.14997984  0.20255791  1
  O  O649  1  0.16177183  0.14742479  0.45133169  1
  O  O650  1  0.16566743  0.14797178  0.70229333  1
  O  O651  1  0.16442549  0.14834969  0.95244695  1
  O  O652  1  0.16439332  0.48095915  0.20245967  1
  O  O653  1  0.16173886  0.48243647  0.45298655  1
  O  O654  1  0.16334173  0.48116738  0.70267139  1
  O  O655  1  0.16395387  0.48242399  0.95232880  1
  O  O656  1  0.16223896  0.81450851  0.20297366  1
  O  O657  1  0.16061636  0.81481015  0.45258270  1
  O  O658  1  0.16434392  0.81625118  0.70212136  1
  O  O659  1  0.16498180  0.81402227  0.95233768  1
  O  O660  1  0.66325108  0.14922735  0.20323962  1
  O  O661  1  0.66102618  0.14794977  0.45159628  1
  O  O662  1  0.66109635  0.14968947  0.70377840  1
  O  O663  1  0.66094232  0.14928329  0.95213237  1
  O  O664  1  0.66233307  0.48187902  0.20272064  1
  O  O665  1  0.66121471  0.48141073  0.45156553  1
  O  O666  1  0.66183684  0.48167313  0.70303759  1
  O  O667  1  0.66074724  0.48084168  0.95280888  1
  O  O668  1  0.66212438  0.81382351  0.20201462  1
  O  O669  1  0.66269276  0.81554141  0.45181823  1
  O  O670  1  0.66061951  0.81404331  0.70172592  1
  O  O671  1  0.66144249  0.81492600  0.95242671  1
