# generated using pymatgen
data_Na2MnFe(PO4)2
_symmetry_space_group_name_H-M   'P 1'
_cell_length_a   21.08848774
_cell_length_b   18.94105486
_cell_length_c   20.04688552
_cell_angle_alpha   89.99975139
_cell_angle_beta   90.00277984
_cell_angle_gamma   89.99856514
_symmetry_Int_Tables_number   1
_chemical_formula_structural   Na2MnFe(PO4)2
_chemical_formula_sum   'Na96 Mn48 Fe48 P96 O384'
_cell_volume   8007.49192315
_cell_formula_units_Z   48
loop_
 _symmetry_equiv_pos_site_id
 _symmetry_equiv_pos_as_xyz
  1  'x, y, z'
loop_
 _atom_site_type_symbol
 _atom_site_label
 _atom_site_symmetry_multiplicity
 _atom_site_fract_x
 _atom_site_fract_y
 _atom_site_fract_z
 _atom_site_occupancy
  Na  Na0  1  -0.00247795  -0.00109902  0.00097681  1
  Na  Na1  1  -0.00025248  -0.00001461  0.24892234  1
  Na  Na2  1  -0.00059060  -0.00123058  0.50044319  1
  Na  Na3  1  -0.00050016  -0.00013848  0.75010977  1
  Na  Na4  1  0.00013327  0.33372610  -0.00045151  1
  Na  Na5  1  -0.00070853  0.33319219  0.25080010  1
  Na  Na6  1  0.00037962  0.33382454  0.49904942  1
  Na  Na7  1  0.00064272  0.33390274  0.75015106  1
  Na  Na8  1  -0.00265147  0.66650437  0.00024938  1
  Na  Na9  1  -0.00283535  0.66639121  0.24910872  1
  Na  Na10  1  -0.00263583  0.66614509  0.49926682  1
  Na  Na11  1  -0.00317279  0.66567820  0.75041785  1
  Na  Na12  1  0.50089864  -0.00011727  -0.00055446  1
  Na  Na13  1  0.49961941  -0.00019346  0.24979354  1
  Na  Na14  1  0.49677368  -0.00082839  0.49917362  1
  Na  Na15  1  0.50051544  0.00041399  0.75095529  1
  Na  Na16  1  0.50018937  0.33376191  -0.00052294  1
  Na  Na17  1  0.49565507  0.33186255  0.25032402  1
  Na  Na18  1  0.49993432  0.33401827  0.50067226  1
  Na  Na19  1  0.50148556  0.33447711  0.75042169  1
  Na  Na20  1  0.50148582  0.66658314  0.00153249  1
  Na  Na21  1  0.50082528  0.66623000  0.25033825  1
  Na  Na22  1  0.50350306  0.66762098  0.49911869  1
  Na  Na23  1  0.50176987  0.66649243  0.74965256  1
  Na  Na24  1  0.25210026  0.00007260  0.12512984  1
  Na  Na25  1  0.25399688  0.00034571  0.37500640  1
  Na  Na26  1  0.25207181  -0.00008863  0.62443272  1
  Na  Na27  1  0.25066188  -0.00007151  0.87526357  1
  Na  Na28  1  0.25103055  0.33413615  0.12525220  1
  Na  Na29  1  0.25117245  0.33380417  0.37453533  1
  Na  Na30  1  0.24895692  0.33358593  0.62495122  1
  Na  Na31  1  0.24909190  0.33397680  0.87495175  1
  Na  Na32  1  0.25051823  0.66696134  0.12474371  1
  Na  Na33  1  0.25093725  0.66719933  0.37517504  1
  Na  Na34  1  0.25001176  0.66645064  0.62542416  1
  Na  Na35  1  0.24954276  0.66638951  0.87474789  1
  Na  Na36  1  0.74889074  -0.00057024  0.12499027  1
  Na  Na37  1  0.74927399  0.00029053  0.37523246  1
  Na  Na38  1  0.74902991  -0.00021523  0.62403419  1
  Na  Na39  1  0.75131256  0.00076275  0.87617167  1
  Na  Na40  1  0.75165830  0.33415675  0.12541727  1
  Na  Na41  1  0.75133366  0.33420139  0.37486724  1
  Na  Na42  1  0.74916840  0.33377588  0.62549629  1
  Na  Na43  1  0.74787213  0.33237778  0.87495898  1
  Na  Na44  1  0.75112470  0.66713730  0.12471530  1
  Na  Na45  1  0.74896575  0.66615757  0.37511019  1
  Na  Na46  1  0.75087799  0.66656458  0.62502935  1
  Na  Na47  1  0.75234527  0.66707182  0.87441566  1
  Na  Na48  1  -0.00059876  0.16687221  0.00016006  1
  Na  Na49  1  -0.00094735  0.16738227  0.25004279  1
  Na  Na50  1  0.00229834  0.16604624  0.49952703  1
  Na  Na51  1  0.00027846  0.16717294  0.75093101  1
  Na  Na52  1  -0.00119378  0.49888909  0.00018586  1
  Na  Na53  1  -0.00154925  0.49925153  0.24956256  1
  Na  Na54  1  -0.00307848  0.49966334  0.49974093  1
  Na  Na55  1  -0.00289611  0.49963510  0.74983826  1
  Na  Na56  1  -0.00277114  0.83435146  0.00044525  1
  Na  Na57  1  -0.00116889  0.83378197  0.24902420  1
  Na  Na58  1  -0.00002626  0.83331424  0.49978966  1
  Na  Na59  1  -0.00097753  0.83383747  0.74972979  1
  Na  Na60  1  0.50132503  0.16640027  -0.00138734  1
  Na  Na61  1  0.49837203  0.16733057  0.25069874  1
  Na  Na62  1  0.50064471  0.16641910  0.50024611  1
  Na  Na63  1  0.50090118  0.16737408  0.75016907  1
  Na  Na64  1  0.49943501  0.49988557  0.00106492  1
  Na  Na65  1  0.50004140  0.49929855  0.25029959  1
  Na  Na66  1  0.49975712  0.49988792  0.49924893  1
  Na  Na67  1  0.50128788  0.49898933  0.74974664  1
  Na  Na68  1  0.50136133  0.83352450  0.00096181  1
  Na  Na69  1  0.49912912  0.83392388  0.24958316  1
  Na  Na70  1  0.49989845  0.83343313  0.49962210  1
  Na  Na71  1  0.50048477  0.83388992  0.75092713  1
  Na  Na72  1  0.25112604  0.16703585  0.12538461  1
  Na  Na73  1  0.25296648  0.16633928  0.37384585  1
  Na  Na74  1  0.25143001  0.16678111  0.62491975  1
  Na  Na75  1  0.25009831  0.16721306  0.87495503  1
  Na  Na76  1  0.24983572  0.49917481  0.12456201  1
  Na  Na77  1  0.25128072  0.49892113  0.37576257  1
  Na  Na78  1  0.25015805  0.49897834  0.62557323  1
  Na  Na79  1  0.24963812  0.49881799  0.87541185  1
  Na  Na80  1  0.25211771  0.83300148  0.12522494  1
  Na  Na81  1  0.25107649  0.83391305  0.37499344  1
  Na  Na82  1  0.25033713  0.83386405  0.62436134  1
  Na  Na83  1  0.24916600  0.83420193  0.87451182  1
  Na  Na84  1  0.74958502  0.16674198  0.12571352  1
  Na  Na85  1  0.74824354  0.16727458  0.37442919  1
  Na  Na86  1  0.74666384  0.16802308  0.62449951  1
  Na  Na87  1  0.74937750  0.16647475  0.87572274  1
  Na  Na88  1  0.75034727  0.50008031  0.12399745  1
  Na  Na89  1  0.75074379  0.49961019  0.37589865  1
  Na  Na90  1  0.75001654  0.49963982  0.62524872  1
  Na  Na91  1  0.75217034  0.49839295  0.87409183  1
  Na  Na92  1  0.75131621  0.83312385  0.12549966  1
  Na  Na93  1  0.74970804  0.83393893  0.37498658  1
  Na  Na94  1  0.75209561  0.83266062  0.62491476  1
  Na  Na95  1  0.75133192  0.83346039  0.87540286  1
  Mn  Mn96  1  0.39212428  0.58330819  0.12792907  1
  Mn  Mn97  1  0.10778724  0.08371210  0.12297350  1
  Mn  Mn98  1  0.14232122  0.24930667  0.74766673  1
  Mn  Mn99  1  0.10704163  0.41724603  0.37300069  1
  Mn  Mn100  1  0.14122308  0.58301376  0.49766251  1
  Mn  Mn101  1  0.10713325  0.74978179  0.12302918  1
  Mn  Mn102  1  0.64345301  0.58307785  0.74795255  1
  Mn  Mn103  1  0.35830733  0.74955549  0.75287629  1
  Mn  Mn104  1  0.39305143  0.25018622  0.62749843  1
  Mn  Mn105  1  0.39289897  0.25061205  0.87724567  1
  Mn  Mn106  1  0.64145171  0.91675644  0.49758175  1
  Mn  Mn107  1  0.60759350  0.41542697  0.12318044  1
  Mn  Mn108  1  0.89196935  0.24917229  0.37789891  1
  Mn  Mn109  1  0.10893697  0.08234967  0.37260973  1
  Mn  Mn110  1  0.89226061  0.91689526  0.62728134  1
  Mn  Mn111  1  0.10643763  0.74970325  0.87297346  1
  Mn  Mn112  1  0.14329063  0.24953489  0.24749058  1
  Mn  Mn113  1  0.14206897  0.91705096  0.99825610  1
  Mn  Mn114  1  0.35860099  0.74943525  0.00180418  1
  Mn  Mn115  1  0.10743902  0.08303290  0.87320883  1
  Mn  Mn116  1  0.39289051  0.91573038  0.87722444  1
  Mn  Mn117  1  0.60744124  0.41669813  0.37251835  1
  Mn  Mn118  1  0.60826284  0.75052303  0.12308686  1
  Mn  Mn119  1  0.89151500  0.24971980  0.87778820  1
  Mn  Mn120  1  0.64304107  0.91712117  0.74753209  1
  Mn  Mn121  1  0.60631523  0.08295160  0.37271318  1
  Mn  Mn122  1  0.85716733  0.74972444  0.50173395  1
  Mn  Mn123  1  0.64300450  0.58308825  0.99716098  1
  Mn  Mn124  1  0.85707163  0.08322732  0.25263950  1
  Mn  Mn125  1  0.35872489  0.74938462  0.50258567  1
  Mn  Mn126  1  0.39273834  0.58371800  0.87691899  1
  Mn  Mn127  1  0.64147709  0.25060797  0.24730476  1
  Mn  Mn128  1  0.60884276  0.08347174  0.87254244  1
  Mn  Mn129  1  0.39297911  0.58383480  0.62720603  1
  Mn  Mn130  1  0.10907685  0.08396633  0.62254914  1
  Mn  Mn131  1  0.85749165  0.08382372  0.75178072  1
  Mn  Mn132  1  0.14106107  0.58367572  0.74762824  1
  Mn  Mn133  1  0.14176181  0.58398606  0.24817933  1
  Mn  Mn134  1  0.89214673  0.24983385  0.62673901  1
  Mn  Mn135  1  0.85734858  0.08446797  0.50227508  1
  Mn  Mn136  1  0.89151795  0.58265327  0.12769760  1
  Mn  Mn137  1  0.10718873  0.74994236  0.37238828  1
  Mn  Mn138  1  0.35847397  0.08408246  0.00263363  1
  Mn  Mn139  1  0.10708408  0.74883209  0.62303676  1
  Mn  Mn140  1  0.14161135  0.58306116  0.99750484  1
  Mn  Mn141  1  0.60867989  0.75044805  0.62304841  1
  Mn  Mn142  1  0.14333066  0.91733991  0.49717112  1
  Mn  Mn143  1  0.39274268  0.58343269  0.37746265  1
  Fe  Fe144  1  0.64366678  0.91670590  0.99896077  1
  Fe  Fe145  1  0.89225826  0.58322854  0.87693317  1
  Fe  Fe146  1  0.60904864  0.74940308  0.87353641  1
  Fe  Fe147  1  0.35790453  0.08422528  0.50258334  1
  Fe  Fe148  1  0.64256351  0.25008538  0.74807970  1
  Fe  Fe149  1  0.35847840  0.08310987  0.25109625  1
  Fe  Fe150  1  0.10646290  0.41696170  0.87329587  1
  Fe  Fe151  1  0.60692541  0.08372990  0.12387416  1
  Fe  Fe152  1  0.85647547  0.41601402  0.50220705  1
  Fe  Fe153  1  0.89251442  0.91688709  0.37596675  1
  Fe  Fe154  1  0.64273216  0.25006976  0.99939917  1
  Fe  Fe155  1  0.64349448  0.58338050  0.24882037  1
  Fe  Fe156  1  0.89165816  0.58274997  0.62648918  1
  Fe  Fe157  1  0.89239049  0.24965969  0.12620073  1
  Fe  Fe158  1  0.60658114  0.08343418  0.62321251  1
  Fe  Fe159  1  0.10697677  0.41622574  0.12341868  1
  Fe  Fe160  1  0.89224907  0.91675623  0.87707363  1
  Fe  Fe161  1  0.39299438  0.91647240  0.62738810  1
  Fe  Fe162  1  0.85677089  0.41571717  0.75187396  1
  Fe  Fe163  1  0.85716709  0.41557180  0.00165690  1
  Fe  Fe164  1  0.39223560  0.25000080  0.37780678  1
  Fe  Fe165  1  0.64236505  0.91636538  0.24811191  1
  Fe  Fe166  1  0.60770668  0.41665277  0.62294847  1
  Fe  Fe167  1  0.85676918  0.08378914  0.00232215  1
  Fe  Fe168  1  0.89114238  0.58389145  0.37668246  1
  Fe  Fe169  1  0.85736330  0.41699604  0.25159186  1
  Fe  Fe170  1  0.39350465  0.91707448  0.12672612  1
  Fe  Fe171  1  0.14380323  0.24992825  0.49837016  1
  Fe  Fe172  1  0.39316534  0.91618642  0.37608132  1
  Fe  Fe173  1  0.35699741  0.41652124  0.00146079  1
  Fe  Fe174  1  0.39244236  0.24943640  0.12581787  1
  Fe  Fe175  1  0.35693479  0.41678887  0.50256238  1
  Fe  Fe176  1  0.85644781  0.74997434  0.25223490  1
  Fe  Fe177  1  0.35731591  0.41661384  0.75192254  1
  Fe  Fe178  1  0.14251108  0.25008759  0.99920943  1
  Fe  Fe179  1  0.85784125  0.75018824  0.75231121  1
  Fe  Fe180  1  0.64213645  0.25083369  0.49801398  1
  Fe  Fe181  1  0.35688765  0.41739970  0.25167345  1
  Fe  Fe182  1  0.85690867  0.75034036  0.00179430  1
  Fe  Fe183  1  0.35793400  0.08367518  0.75149666  1
  Fe  Fe184  1  0.89156337  0.91753058  0.12771957  1
  Fe  Fe185  1  0.64335797  0.58269322  0.49817291  1
  Fe  Fe186  1  0.14272132  0.91681708  0.74845389  1
  Fe  Fe187  1  0.35781241  0.74971663  0.25190784  1
  Fe  Fe188  1  0.60764857  0.75037985  0.37248117  1
  Fe  Fe189  1  0.10648093  0.41699647  0.62330749  1
  Fe  Fe190  1  0.60783654  0.41755508  0.87353867  1
  Fe  Fe191  1  0.14381952  0.91654913  0.24830549  1
  P  P192  1  0.05271126  0.25067018  0.10982449  1
  P  P193  1  0.05493218  0.24979269  0.36086887  1
  P  P194  1  0.05423271  0.25122099  0.60913414  1
  P  P195  1  0.05413923  0.25071548  0.86145766  1
  P  P196  1  0.05269351  0.58244682  0.11003976  1
  P  P197  1  0.05059721  0.58329979  0.35962617  1
  P  P198  1  0.05088162  0.58215551  0.60986007  1
  P  P199  1  0.05119111  0.58237025  0.86025706  1
  P  P200  1  0.05291893  0.91664527  0.11136989  1
  P  P201  1  0.05298563  0.91648411  0.35872726  1
  P  P202  1  0.05494587  0.91654955  0.61084572  1
  P  P203  1  0.05218687  0.91664745  0.85989155  1
  P  P204  1  0.55212803  0.24915365  0.10951501  1
  P  P205  1  0.55256035  0.25037355  0.36113008  1
  P  P206  1  0.55536423  0.25035797  0.61080007  1
  P  P207  1  0.55605819  0.25127994  0.86079046  1
  P  P208  1  0.55513330  0.58282076  0.11155858  1
  P  P209  1  0.55567725  0.58368507  0.36045441  1
  P  P210  1  0.55492001  0.58227825  0.60922252  1
  P  P211  1  0.55432094  0.58313072  0.86025149  1
  P  P212  1  0.55448873  0.91772399  0.11083798  1
  P  P213  1  0.55277882  0.91603886  0.35919640  1
  P  P214  1  0.55212613  0.91782241  0.61017772  1
  P  P215  1  0.55598252  0.91567005  0.86155744  1
  P  P216  1  0.44753962  0.08352907  0.13995238  1
  P  P217  1  0.44404588  0.08335222  0.38917038  1
  P  P218  1  0.44629872  0.08316389  0.63971609  1
  P  P219  1  0.44611690  0.08347716  0.88877590  1
  P  P220  1  0.44474900  0.41552217  0.13939571  1
  P  P221  1  0.44445047  0.41606574  0.38970230  1
  P  P222  1  0.44658643  0.41673663  0.63959358  1
  P  P223  1  0.44654032  0.41710938  0.88959463  1
  P  P224  1  0.44647877  0.75061260  0.14076561  1
  P  P225  1  0.44719645  0.75037574  0.38858417  1
  P  P226  1  0.44762990  0.75060127  0.64034546  1
  P  P227  1  0.44947225  0.74948939  0.89057955  1
  P  P228  1  0.94475729  0.08392562  0.13892488  1
  P  P229  1  0.94695645  0.08204242  0.39009237  1
  P  P230  1  0.94750179  0.08401826  0.64020407  1
  P  P231  1  0.94538447  0.08272483  0.89102610  1
  P  P232  1  0.94557438  0.41501311  0.13925516  1
  P  P233  1  0.94364833  0.41736701  0.38945959  1
  P  P234  1  0.94507477  0.41640256  0.63927904  1
  P  P235  1  0.94513130  0.41666060  0.88938901  1
  P  P236  1  0.94344783  0.75093790  0.13948964  1
  P  P237  1  0.94454536  0.75058946  0.38822725  1
  P  P238  1  0.94522522  0.74910428  0.64032682  1
  P  P239  1  0.94416472  0.75029087  0.88958827  1
  P  P240  1  0.19880647  0.08214965  0.23515581  1
  P  P241  1  0.19905271  0.08439084  0.48470686  1
  P  P242  1  0.19835788  0.08249368  0.73515223  1
  P  P243  1  0.19693746  0.08441466  0.98536144  1
  P  P244  1  0.19689271  0.41684008  0.23478276  1
  P  P245  1  0.19613877  0.41592502  0.48621822  1
  P  P246  1  0.19533950  0.41672815  0.73552239  1
  P  P247  1  0.19521695  0.41551825  0.98584055  1
  P  P248  1  0.19794920  0.75100515  0.23522213  1
  P  P249  1  0.19680986  0.74988468  0.48480757  1
  P  P250  1  0.19644786  0.75084880  0.73505584  1
  P  P251  1  0.19670119  0.75022864  0.98479630  1
  P  P252  1  0.69507308  0.08265154  0.23462174  1
  P  P253  1  0.69455007  0.08439243  0.48576494  1
  P  P254  1  0.69605631  0.08408608  0.73418661  1
  P  P255  1  0.69624809  0.08352482  0.98719318  1
  P  P256  1  0.69791728  0.41766444  0.23517187  1
  P  P257  1  0.69615408  0.41656298  0.48617443  1
  P  P258  1  0.69594140  0.41615479  0.73575478  1
  P  P259  1  0.69734702  0.41570367  0.98483576  1
  P  P260  1  0.69653544  0.74996728  0.23639976  1
  P  P261  1  0.69561655  0.74930691  0.48431416  1
  P  P262  1  0.69793629  0.74994004  0.73619720  1
  P  P263  1  0.69774696  0.75074162  0.98494934  1
  P  P264  1  0.30295564  0.25128365  0.01519454  1
  P  P265  1  0.30612694  0.25026947  0.26386465  1
  P  P266  1  0.30415170  0.25054712  0.51413938  1
  P  P267  1  0.30405659  0.25064431  0.76463220  1
  P  P268  1  0.30340987  0.58218401  0.01481172  1
  P  P269  1  0.30325672  0.58333678  0.26516616  1
  P  P270  1  0.30315844  0.58239247  0.51545779  1
  P  P271  1  0.30306678  0.58201852  0.76511416  1
  P  P272  1  0.30457364  0.91661589  0.01572296  1
  P  P273  1  0.30528031  0.91647542  0.26393642  1
  P  P274  1  0.30648590  0.91730988  0.51426471  1
  P  P275  1  0.30401840  0.91732512  0.76395840  1
  P  P276  1  0.80250269  0.24995077  0.01521250  1
  P  P277  1  0.80413889  0.25058177  0.26397716  1
  P  P278  1  0.80147905  0.25072076  0.51506630  1
  P  P279  1  0.80188972  0.25050427  0.76502261  1
  P  P280  1  0.80492614  0.58283127  0.01337048  1
  P  P281  1  0.80280384  0.58328147  0.26519558  1
  P  P282  1  0.80368939  0.58247758  0.51444180  1
  P  P283  1  0.80586819  0.58268160  0.76396842  1
  P  P284  1  0.80416972  0.91698925  0.01464564  1
  P  P285  1  0.80309865  0.91637254  0.26457898  1
  P  P286  1  0.80401128  0.91699984  0.51367815  1
  P  P287  1  0.80411378  0.91666490  0.76572949  1
  O  O288  1  0.05672447  0.25007289  0.18654224  1
  O  O289  1  0.05999094  0.24974830  0.43754040  1
  O  O290  1  0.05694343  0.25020267  0.68598031  1
  O  O291  1  0.05844216  0.25001628  0.93830163  1
  O  O292  1  0.05588249  0.58316606  0.18684375  1
  O  O293  1  0.05470494  0.58315296  0.43631662  1
  O  O294  1  0.05468204  0.58267393  0.68655590  1
  O  O295  1  0.05502577  0.58286578  0.93692141  1
  O  O296  1  0.05911239  0.91672229  0.18788032  1
  O  O297  1  0.05727332  0.91660009  0.43547443  1
  O  O298  1  0.05944977  0.91707052  0.68760202  1
  O  O299  1  0.05600210  0.91666519  0.93664975  1
  O  O300  1  0.55542315  0.25030352  0.18627585  1
  O  O301  1  0.55786719  0.25096253  0.43774893  1
  O  O302  1  0.55901827  0.25069777  0.68769259  1
  O  O303  1  0.56010278  0.25028368  0.93756609  1
  O  O304  1  0.55980652  0.58266786  0.18829596  1
  O  O305  1  0.55987621  0.58266314  0.43718260  1
  O  O306  1  0.55797058  0.58264188  0.68603502  1
  O  O307  1  0.55678704  0.58289780  0.93707282  1
  O  O308  1  0.55898193  0.91656776  0.18754035  1
  O  O309  1  0.55609198  0.91663594  0.43590956  1
  O  O310  1  0.55626083  0.91733704  0.68687132  1
  O  O311  1  0.56033571  0.91638961  0.93832989  1
  O  O312  1  0.44469066  0.08341926  0.06318205  1
  O  O313  1  0.44082786  0.08358301  0.31231604  1
  O  O314  1  0.44187227  0.08412578  0.56294426  1
  O  O315  1  0.44152022  0.08386330  0.81204362  1
  O  O316  1  0.44094259  0.41659801  0.06263408  1
  O  O317  1  0.44030659  0.41700395  0.31293342  1
  O  O318  1  0.44131681  0.41668020  0.56291704  1
  O  O319  1  0.44166544  0.41681950  0.81291743  1
  O  O320  1  0.44381319  0.74975126  0.06398327  1
  O  O321  1  0.44213680  0.74943910  0.31196920  1
  O  O322  1  0.44462949  0.74975234  0.56355765  1
  O  O323  1  0.44513294  0.74953995  0.81388947  1
  O  O324  1  0.94041665  0.08371707  0.06221817  1
  O  O325  1  0.94336222  0.08324421  0.31332744  1
  O  O326  1  0.94379706  0.08412211  0.56345896  1
  O  O327  1  0.94272719  0.08389831  0.81418477  1
  O  O328  1  0.94082771  0.41559410  0.06256559  1
  O  O329  1  0.93981842  0.41662570  0.31261584  1
  O  O330  1  0.94025772  0.41542912  0.56254511  1
  O  O331  1  0.94058296  0.41538083  0.81267434  1
  O  O332  1  0.93943123  0.75050776  0.06264386  1
  O  O333  1  0.94059127  0.75029891  0.31144400  1
  O  O334  1  0.94244895  0.75004035  0.56349356  1
  O  O335  1  0.94093873  0.75045141  0.81275430  1
  O  O336  1  0.19378609  0.08366841  0.06210875  1
  O  O337  1  0.19527054  0.08253559  0.31183698  1
  O  O338  1  0.19518618  0.08371028  0.56138173  1
  O  O339  1  0.19413805  0.08299759  0.81184345  1
  O  O340  1  0.19043434  0.41627996  0.06249614  1
  O  O341  1  0.19293534  0.41675836  0.31151331  1
  O  O342  1  0.19104526  0.41702046  0.56279876  1
  O  O343  1  0.19020730  0.41711763  0.81228208  1
  O  O344  1  0.19334335  0.75016950  0.06157416  1
  O  O345  1  0.19380765  0.75049047  0.31189550  1
  O  O346  1  0.19304289  0.74958133  0.56154007  1
  O  O347  1  0.19271270  0.75008763  0.81182320  1
  O  O348  1  0.69138758  0.08355666  0.06384234  1
  O  O349  1  0.69176665  0.08332996  0.31139143  1
  O  O350  1  0.69036094  0.08318388  0.56251928  1
  O  O351  1  0.69390841  0.08309428  0.81100339  1
  O  O352  1  0.69355776  0.41655228  0.06156998  1
  O  O353  1  0.69398012  0.41664679  0.31180512  1
  O  O354  1  0.69191658  0.41654838  0.56289091  1
  O  O355  1  0.69158127  0.41703247  0.81236127  1
  O  O356  1  0.69395576  0.75015289  0.06166355  1
  O  O357  1  0.69194426  0.75053540  0.31305678  1
  O  O358  1  0.69334290  0.75034636  0.56118533  1
  O  O359  1  0.69316327  0.74986011  0.81283016  1
  O  O360  1  0.30959650  0.24984192  0.18708374  1
  O  O361  1  0.30807742  0.25054944  0.43729974  1
  O  O362  1  0.30704975  0.25081597  0.68812202  1
  O  O363  1  0.30667732  0.25070031  0.93847410  1
  O  O364  1  0.30588253  0.58329569  0.18842636  1
  O  O365  1  0.30673107  0.58324288  0.43869515  1
  O  O366  1  0.30662190  0.58271219  0.68841328  1
  O  O367  1  0.30662599  0.58278347  0.93805936  1
  O  O368  1  0.30975618  0.91662356  0.18723578  1
  O  O369  1  0.31055273  0.91606041  0.43746665  1
  O  O370  1  0.30891751  0.91652904  0.68727166  1
  O  O371  1  0.30756443  0.91656445  0.93890561  1
  O  O372  1  0.80844717  0.24986710  0.18722020  1
  O  O373  1  0.80551884  0.24978459  0.43841828  1
  O  O374  1  0.80567871  0.25024262  0.68812354  1
  O  O375  1  0.80560417  0.24974298  0.93908447  1
  O  O376  1  0.80591751  0.58314127  0.18858374  1
  O  O377  1  0.80778432  0.58340331  0.43772241  1
  O  O378  1  0.80873279  0.58277683  0.68708529  1
  O  O379  1  0.80849904  0.58266017  0.93653470  1
  O  O380  1  0.80761628  0.91721702  0.18783948  1
  O  O381  1  0.80823808  0.91729937  0.43697599  1
  O  O382  1  0.80676761  0.91716907  0.68887288  1
  O  O383  1  0.80836570  0.91720724  0.93798128  1
  O  O384  1  0.23299784  0.25070458  0.03998922  1
  O  O385  1  0.23608830  0.25018274  0.28835032  1
  O  O386  1  0.23412665  0.25032945  0.53874198  1
  O  O387  1  0.23435718  0.25061159  0.78998686  1
  O  O388  1  0.23371330  0.58252904  0.03989853  1
  O  O389  1  0.23375691  0.58328970  0.29101553  1
  O  O390  1  0.23344792  0.58257000  0.54040920  1
  O  O391  1  0.23333438  0.58245456  0.79011846  1
  O  O392  1  0.23483769  0.91675338  0.04069578  1
  O  O393  1  0.23501568  0.91673842  0.28816752  1
  O  O394  1  0.23634111  0.91693919  0.53808091  1
  O  O395  1  0.23374619  0.91707572  0.78789706  1
  O  O396  1  0.73237070  0.25033444  0.04046912  1
  O  O397  1  0.73407072  0.25032965  0.28807946  1
  O  O398  1  0.73146716  0.25099097  0.53944357  1
  O  O399  1  0.73184385  0.24988501  0.78945770  1
  O  O400  1  0.73509654  0.58326392  0.03818773  1
  O  O401  1  0.73285298  0.58320185  0.29027520  1
  O  O402  1  0.73347545  0.58307600  0.53854688  1
  O  O403  1  0.73604876  0.58257540  0.78891209  1
  O  O404  1  0.73375551  0.91672733  0.03863176  1
  O  O405  1  0.73265976  0.91698061  0.28813647  1
  O  O406  1  0.73399709  0.91620115  0.53792291  1
  O  O407  1  0.73450145  0.91733597  0.79104946  1
  O  O408  1  0.26894146  0.08303350  0.21071667  1
  O  O409  1  0.26913317  0.08393549  0.46036168  1
  O  O410  1  0.26842388  0.08328392  0.71066032  1
  O  O411  1  0.26660244  0.08410890  0.96023460  1
  O  O412  1  0.26715443  0.41671978  0.21092304  1
  O  O413  1  0.26648397  0.41623057  0.46256920  1
  O  O414  1  0.26583158  0.41626276  0.71233038  1
  O  O415  1  0.26564096  0.41616252  0.96225839  1
  O  O416  1  0.26809218  0.75032113  0.21101805  1
  O  O417  1  0.26672410  0.75018502  0.46039806  1
  O  O418  1  0.26624463  0.75018139  0.71023603  1
  O  O419  1  0.26639740  0.75014956  0.95966573  1
  O  O420  1  0.76491037  0.08307792  0.21009182  1
  O  O421  1  0.76442545  0.08426439  0.46120685  1
  O  O422  1  0.76552618  0.08383035  0.70843601  1
  O  O423  1  0.76658091  0.08363319  0.96335422  1
  O  O424  1  0.76797244  0.41736761  0.21063575  1
  O  O425  1  0.76635472  0.41641706  0.46206839  1
  O  O426  1  0.76631213  0.41670138  0.71201178  1
  O  O427  1  0.76748619  0.41548579  0.96054370  1
  O  O428  1  0.76677541  0.74983480  0.21232398  1
  O  O429  1  0.76525047  0.74993463  0.45910192  1
  O  O430  1  0.76818810  0.74959920  0.71235781  1
  O  O431  1  0.76798670  0.75027279  0.96090889  1
  O  O432  1  0.01476021  0.08384766  0.16326839  1
  O  O433  1  0.01670051  0.08207327  0.41499107  1
  O  O434  1  0.01720811  0.08393820  0.66513490  1
  O  O435  1  0.01510678  0.08291038  0.91631496  1
  O  O436  1  0.01594015  0.41585759  0.16304583  1
  O  O437  1  0.01376496  0.41674424  0.41343258  1
  O  O438  1  0.01540836  0.41642271  0.66296422  1
  O  O439  1  0.01555743  0.41648638  0.91308776  1
  O  O440  1  0.01357465  0.75014729  0.16342893  1
  O  O441  1  0.01431665  0.75027483  0.41317609  1
  O  O442  1  0.01483387  0.74959888  0.66570586  1
  O  O443  1  0.01394734  0.75027881  0.91469076  1
  O  O444  1  0.51735984  0.08363241  0.16533568  1
  O  O445  1  0.51397131  0.08313282  0.41381398  1
  O  O446  1  0.51662585  0.08407260  0.66361329  1
  O  O447  1  0.51626787  0.08326572  0.91245764  1
  O  O448  1  0.51473617  0.41569473  0.16400178  1
  O  O449  1  0.51462616  0.41685642  0.41344908  1
  O  O450  1  0.51721389  0.41645279  0.66252350  1
  O  O451  1  0.51696664  0.41694500  0.91311178  1
  O  O452  1  0.51627786  0.75006196  0.16569020  1
  O  O453  1  0.51754468  0.75047001  0.41221898  1
  O  O454  1  0.51733478  0.75039102  0.66548303  1
  O  O455  1  0.51941439  0.74955106  0.91525549  1
  O  O456  1  0.48223786  0.24956483  0.08449927  1
  O  O457  1  0.48213541  0.24974143  0.33801657  1
  O  O458  1  0.48546953  0.25029935  0.58644344  1
  O  O459  1  0.48598423  0.25082576  0.83664524  1
  O  O460  1  0.48500152  0.58333621  0.08786351  1
  O  O461  1  0.48553510  0.58284152  0.33659253  1
  O  O462  1  0.48526322  0.58341433  0.58400794  1
  O  O463  1  0.48500999  0.58297850  0.83411315  1
  O  O464  1  0.48408230  0.91698326  0.08720399  1
  O  O465  1  0.48265869  0.91668156  0.33482692  1
  O  O466  1  0.48215526  0.91696875  0.58556205  1
  O  O467  1  0.48598159  0.91651460  0.83736623  1
  O  O468  1  0.98260333  0.25010621  0.08542372  1
  O  O469  1  0.98469454  0.25010312  0.33747753  1
  O  O470  1  0.98458822  0.25021287  0.58379955  1
  O  O471  1  0.98432720  0.25042699  0.83721313  1
  O  O472  1  0.98295139  0.58255136  0.08522454  1
  O  O473  1  0.98053254  0.58323970  0.33525043  1
  O  O474  1  0.98081615  0.58247702  0.58532758  1
  O  O475  1  0.98111699  0.58266159  0.83585161  1
  O  O476  1  0.98222260  0.91677123  0.08885875  1
  O  O477  1  0.98276849  0.91672801  0.33473818  1
  O  O478  1  0.98480922  0.91622207  0.58701674  1
  O  O479  1  0.98195181  0.91680010  0.83587975  1
  O  O480  1  0.08638864  0.31580661  0.07712755  1
  O  O481  1  0.08820566  0.31487781  0.32758587  1
  O  O482  1  0.08788284  0.31678985  0.57725421  1
  O  O483  1  0.08764943  0.31596397  0.82871773  1
  O  O484  1  0.08655423  0.64752453  0.07739624  1
  O  O485  1  0.08439322  0.64833112  0.32681627  1
  O  O486  1  0.08471034  0.64713389  0.57696560  1
  O  O487  1  0.08483832  0.64742272  0.82729603  1
  O  O488  1  0.08576510  0.98174378  0.07759357  1
  O  O489  1  0.08714387  0.98132310  0.32581249  1
  O  O490  1  0.08822388  0.98167106  0.57743561  1
  O  O491  1  0.08613803  0.98166122  0.82710187  1
  O  O492  1  0.58658069  0.31387561  0.07662432  1
  O  O493  1  0.58532032  0.31535697  0.32707015  1
  O  O494  1  0.58906072  0.31541600  0.57767338  1
  O  O495  1  0.58938071  0.31661905  0.82815308  1
  O  O496  1  0.58889469  0.64778311  0.07856067  1
  O  O497  1  0.58885706  0.64908803  0.32766153  1
  O  O498  1  0.58992912  0.64694330  0.57702363  1
  O  O499  1  0.58882784  0.64826602  0.82831265  1
  O  O500  1  0.58746539  0.98306048  0.07785901  1
  O  O501  1  0.58682546  0.98089470  0.32635211  1
  O  O502  1  0.58529296  0.98311197  0.57727594  1
  O  O503  1  0.58964180  0.98063038  0.82834876  1
  O  O504  1  0.41346382  0.01848447  0.17254063  1
  O  O505  1  0.41034600  0.01811422  0.42149185  1
  O  O506  1  0.41328106  0.01780270  0.67263246  1
  O  O507  1  0.41269158  0.01853220  0.92186443  1
  O  O508  1  0.41111952  0.35018812  0.17161039  1
  O  O509  1  0.41136067  0.35070927  0.42267233  1
  O  O510  1  0.41338108  0.35186853  0.67323962  1
  O  O511  1  0.41297529  0.35222357  0.92308722  1
  O  O512  1  0.41193189  0.68594639  0.17359616  1
  O  O513  1  0.41421726  0.68542238  0.42256219  1
  O  O514  1  0.41362424  0.68551488  0.67291102  1
  O  O515  1  0.41560834  0.68441178  0.92323195  1
  O  O516  1  0.91108901  0.01891466  0.17205931  1
  O  O517  1  0.91282434  0.01681376  0.42192822  1
  O  O518  1  0.91329254  0.01901084  0.67251565  1
  O  O519  1  0.91121641  0.01742939  0.92288371  1
  O  O520  1  0.91248024  0.34981794  0.17241084  1
  O  O521  1  0.90977500  0.35260023  0.42293171  1
  O  O522  1  0.91180911  0.35149446  0.67320350  1
  O  O523  1  0.91169269  0.35201236  0.92327324  1
  O  O524  1  0.90946679  0.68601089  0.17245587  1
  O  O525  1  0.91061197  0.68549674  0.42100102  1
  O  O526  1  0.91120746  0.68374903  0.67210140  1
  O  O527  1  0.91025723  0.68508967  0.92207175  1
  O  O528  1  0.16521060  0.01708317  0.20243796  1
  O  O529  1  0.16531669  0.01931946  0.45172968  1
  O  O530  1  0.16487201  0.01743846  0.70229404  1
  O  O531  1  0.16279433  0.01940177  0.95277557  1
  O  O532  1  0.16323234  0.35181529  0.20174185  1
  O  O533  1  0.16321226  0.35059132  0.45305887  1
  O  O534  1  0.16184366  0.35177573  0.70230513  1
  O  O535  1  0.16216516  0.35017253  0.95277432  1
  O  O536  1  0.16381257  0.68608694  0.20242706  1
  O  O537  1  0.16294206  0.68477224  0.45212771  1
  O  O538  1  0.16221594  0.68572540  0.70249302  1
  O  O539  1  0.16248695  0.68513659  0.95244969  1
  O  O540  1  0.66123301  0.01750166  0.20224848  1
  O  O541  1  0.66089165  0.01942760  0.45246316  1
  O  O542  1  0.66136541  0.01933427  0.70157028  1
  O  O543  1  0.66322802  0.01842407  0.95370112  1
  O  O544  1  0.66400443  0.35267457  0.20212421  1
  O  O545  1  0.66255261  0.35171178  0.45272517  1
  O  O546  1  0.66263916  0.35098756  0.70269201  1
  O  O547  1  0.66311806  0.35074566  0.95268984  1
  O  O548  1  0.66337212  0.68472931  0.20339784  1
  O  O549  1  0.66176471  0.68387393  0.45257520  1
  O  O550  1  0.66442453  0.68502787  0.70296678  1
  O  O551  1  0.66396101  0.68588170  0.95171746  1
  O  O552  1  0.33689108  0.31634547  0.04761377  1
  O  O553  1  0.33957455  0.31555879  0.29668673  1
  O  O554  1  0.33765543  0.31555418  0.54721203  1
  O  O555  1  0.33801844  0.31588060  0.79721841  1
  O  O556  1  0.33773989  0.64707092  0.04737312  1
  O  O557  1  0.33767676  0.64842107  0.29734679  1
  O  O558  1  0.33734742  0.64740835  0.54803038  1
  O  O559  1  0.33734746  0.64698991  0.79778675  1
  O  O560  1  0.33894353  0.98164986  0.04806310  1
  O  O561  1  0.33904729  0.98149001  0.29689210  1
  O  O562  1  0.33974458  0.98282530  0.54680555  1
  O  O563  1  0.33742619  0.98247051  0.79685057  1
  O  O564  1  0.83684612  0.31497126  0.04793617  1
  O  O565  1  0.83760989  0.31574923  0.29660676  1
  O  O566  1  0.83543705  0.31573762  0.54759289  1
  O  O567  1  0.83531700  0.31566579  0.79765633  1
  O  O568  1  0.83868376  0.64783493  0.04609120  1
  O  O569  1  0.83666317  0.64841383  0.29790537  1
  O  O570  1  0.83757271  0.64722485  0.54774107  1
  O  O571  1  0.83975803  0.64766263  0.79675644  1
  O  O572  1  0.83735839  0.98202407  0.04822319  1
  O  O573  1  0.83681182  0.98107833  0.29816158  1
  O  O574  1  0.83715920  0.98209503  0.54706003  1
  O  O575  1  0.83866345  0.98148285  0.79816912  1
  O  O576  1  0.41316242  0.14851586  0.17219079  1
  O  O577  1  0.41053491  0.14841977  0.42243752  1
  O  O578  1  0.41246467  0.14788424  0.67311632  1
  O  O579  1  0.41303468  0.14863747  0.92212296  1
  O  O580  1  0.41095660  0.48031438  0.17302725  1
  O  O581  1  0.41055452  0.48074697  0.42321521  1
  O  O582  1  0.41357968  0.48180372  0.67313485  1
  O  O583  1  0.41314321  0.48202170  0.92298104  1
  O  O584  1  0.41271115  0.81602027  0.17271386  1
  O  O585  1  0.41389383  0.81556078  0.42142043  1
  O  O586  1  0.41364098  0.81573272  0.67256100  1
  O  O587  1  0.41549479  0.81448767  0.92319154  1
  O  O588  1  0.91141385  0.14922630  0.17178852  1
  O  O589  1  0.91301441  0.14709738  0.42303858  1
  O  O590  1  0.91355728  0.14910512  0.67282711  1
  O  O591  1  0.91088607  0.14741957  0.92370076  1
  O  O592  1  0.91172123  0.47985020  0.17266280  1
  O  O593  1  0.91025197  0.48265469  0.42208582  1
  O  O594  1  0.91142108  0.48145262  0.67201396  1
  O  O595  1  0.91184467  0.48190792  0.92226818  1
  O  O596  1  0.91000563  0.81601911  0.17249050  1
  O  O597  1  0.91115430  0.81597464  0.42086311  1
  O  O598  1  0.91062627  0.81382364  0.67306073  1
  O  O599  1  0.91026671  0.81536651  0.92235928  1
  O  O600  1  0.08703499  0.18590601  0.07690643  1
  O  O601  1  0.08805355  0.18463854  0.32743162  1
  O  O602  1  0.08949216  0.18674891  0.57660330  1
  O  O603  1  0.08788414  0.18571940  0.82827007  1
  O  O604  1  0.08653750  0.51715184  0.07794988  1
  O  O605  1  0.08448007  0.51828053  0.32697391  1
  O  O606  1  0.08450421  0.51698848  0.57719536  1
  O  O607  1  0.08478796  0.51724846  0.82754317  1
  O  O608  1  0.08552728  0.85155106  0.07747513  1
  O  O609  1  0.08664224  0.85140688  0.32579381  1
  O  O610  1  0.08831000  0.85146899  0.57779587  1
  O  O611  1  0.08595575  0.85171097  0.82698529  1
  O  O612  1  0.58622877  0.18398436  0.07738919  1
  O  O613  1  0.58595567  0.18542836  0.32787990  1
  O  O614  1  0.58898213  0.18520512  0.57803631  1
  O  O615  1  0.58989636  0.18648804  0.82735642  1
  O  O616  1  0.58813748  0.51766670  0.07815550  1
  O  O617  1  0.58960957  0.51902704  0.32690462  1
  O  O618  1  0.58849045  0.51681788  0.57686637  1
  O  O619  1  0.58873587  0.51800390  0.82818307  1
  O  O620  1  0.58845645  0.85304063  0.07733358  1
  O  O621  1  0.58662581  0.85102301  0.32647715  1
  O  O622  1  0.58638886  0.85294483  0.57749254  1
  O  O623  1  0.58906637  0.85029015  0.82867251  1
  O  O624  1  0.33738496  0.18652528  0.04810743  1
  O  O625  1  0.33992903  0.18526445  0.29682613  1
  O  O626  1  0.33796398  0.18551799  0.54692175  1
  O  O627  1  0.33820387  0.18549773  0.79698377  1
  O  O628  1  0.33733220  0.51691758  0.04700513  1
  O  O629  1  0.33754610  0.51816413  0.29722688  1
  O  O630  1  0.33721902  0.51721015  0.54762636  1
  O  O631  1  0.33691710  0.51666561  0.79726038  1
  O  O632  1  0.33903128  0.85175739  0.04803522  1
  O  O633  1  0.33862776  0.85133614  0.29728929  1
  O  O634  1  0.34031563  0.85265822  0.54792736  1
  O  O635  1  0.33748285  0.85232117  0.79755055  1
  O  O636  1  0.83643327  0.18501356  0.04849823  1
  O  O637  1  0.83756384  0.18559439  0.29747731  1
  O  O638  1  0.83502797  0.18573983  0.54827848  1
  O  O639  1  0.83588331  0.18568739  0.79770513  1
  O  O640  1  0.83824219  0.51747389  0.04614447  1
  O  O641  1  0.83694280  0.51835163  0.29781003  1
  O  O642  1  0.83696406  0.51720872  0.54732751  1
  O  O643  1  0.83975173  0.51751544  0.79645372  1
  O  O644  1  0.83753125  0.85190824  0.04779138  1
  O  O645  1  0.83627544  0.85117145  0.29752454  1
  O  O646  1  0.83790224  0.85202755  0.54646516  1
  O  O647  1  0.83806886  0.85142169  0.79790199  1
  O  O648  1  0.16460664  0.14708933  0.20254046  1
  O  O649  1  0.16546862  0.14953789  0.45212879  1
  O  O650  1  0.16452269  0.14759657  0.70232599  1
  O  O651  1  0.16295963  0.14974536  0.95335781  1
  O  O652  1  0.16304044  0.48178746  0.20200148  1
  O  O653  1  0.16266198  0.48075244  0.45234385  1
  O  O654  1  0.16202911  0.48164229  0.70184890  1
  O  O655  1  0.16143809  0.48018718  0.95197828  1
  O  O656  1  0.16453502  0.81625133  0.20242756  1
  O  O657  1  0.16293697  0.81497386  0.45221853  1
  O  O658  1  0.16283816  0.81613622  0.70280934  1
  O  O659  1  0.16261817  0.81534821  0.95256051  1
  O  O660  1  0.66071663  0.14753993  0.20187961  1
  O  O661  1  0.66089782  0.14973666  0.45335722  1
  O  O662  1  0.66150915  0.14928358  0.70267205  1
  O  O663  1  0.66297119  0.14860579  0.95391308  1
  O  O664  1  0.66430061  0.48274363  0.20264768  1
  O  O665  1  0.66307410  0.48181370  0.45306195  1
  O  O666  1  0.66236515  0.48085946  0.70194639  1
  O  O667  1  0.66382280  0.48069226  0.95144109  1
  O  O668  1  0.66333966  0.81502166  0.20289073  1
  O  O669  1  0.66083786  0.81393310  0.45162375  1
  O  O670  1  0.66484672  0.81506411  0.70275179  1
  O  O671  1  0.66425866  0.81591912  0.95240037  1
