# generated using pymatgen
data_Na2MnFe(PO4)2
_symmetry_space_group_name_H-M   'P 1'
_cell_length_a   21.08716620
_cell_length_b   18.94138320
_cell_length_c   20.04685563
_cell_angle_alpha   89.99943813
_cell_angle_beta   89.99294995
_cell_angle_gamma   89.99798710
_symmetry_Int_Tables_number   1
_chemical_formula_structural   Na2MnFe(PO4)2
_chemical_formula_sum   'Na96 Mn48 Fe48 P96 O384'
_cell_volume   8007.11692694
_cell_formula_units_Z   48
loop_
 _symmetry_equiv_pos_site_id
 _symmetry_equiv_pos_as_xyz
  1  'x, y, z'
loop_
 _atom_site_type_symbol
 _atom_site_label
 _atom_site_symmetry_multiplicity
 _atom_site_fract_x
 _atom_site_fract_y
 _atom_site_fract_z
 _atom_site_occupancy
  Na  Na0  1  0.00209421  0.00057474  -0.00024226  1
  Na  Na1  1  -0.00007059  -0.00068674  0.24953904  1
  Na  Na2  1  0.00047316  -0.00001812  0.50052953  1
  Na  Na3  1  0.00009947  -0.00064606  0.75060617  1
  Na  Na4  1  -0.00169815  0.33308057  -0.00050276  1
  Na  Na5  1  -0.00175040  0.33273786  0.25021496  1
  Na  Na6  1  -0.00099678  0.33293210  0.50110444  1
  Na  Na7  1  -0.00099479  0.33293440  0.74941918  1
  Na  Na8  1  -0.00092719  0.66766286  -0.00098023  1
  Na  Na9  1  0.00178438  0.66820884  0.24978467  1
  Na  Na10  1  0.00023286  0.66756257  0.50027424  1
  Na  Na11  1  -0.00210979  0.66660437  0.74973465  1
  Na  Na12  1  0.50082355  0.00028182  -0.00089275  1
  Na  Na13  1  0.49959192  -0.00046147  0.24969709  1
  Na  Na14  1  0.50073778  0.00003272  0.50110707  1
  Na  Na15  1  0.49939481  -0.00086815  0.75040941  1
  Na  Na16  1  0.49826427  0.33323214  -0.00076931  1
  Na  Na17  1  0.49708616  0.33228834  0.25040691  1
  Na  Na18  1  0.49906060  0.33342972  0.49975339  1
  Na  Na19  1  0.49865794  0.33292520  0.75013889  1
  Na  Na20  1  0.50116679  0.66713142  0.00078243  1
  Na  Na21  1  0.50245633  0.66720599  0.24982021  1
  Na  Na22  1  0.50296923  0.66732470  0.49968410  1
  Na  Na23  1  0.50164923  0.66714564  0.75071593  1
  Na  Na24  1  0.25023282  -0.00042703  0.12550974  1
  Na  Na25  1  0.24982110  -0.00028935  0.37665892  1
  Na  Na26  1  0.25131987  0.00017916  0.62510901  1
  Na  Na27  1  0.25140778  -0.00009577  0.87344863  1
  Na  Na28  1  0.25237993  0.33352894  0.12516465  1
  Na  Na29  1  0.25140961  0.33393373  0.37600990  1
  Na  Na30  1  0.24853822  0.33263648  0.62392923  1
  Na  Na31  1  0.24985572  0.33265884  0.87398787  1
  Na  Na32  1  0.24978785  0.66753381  0.12580863  1
  Na  Na33  1  0.24705447  0.66627342  0.37554482  1
  Na  Na34  1  0.24826238  0.66642050  0.62481752  1
  Na  Na35  1  0.25017584  0.66705575  0.87378641  1
  Na  Na36  1  0.74901966  -0.00057250  0.12415309  1
  Na  Na37  1  0.75047835  0.00012198  0.37635208  1
  Na  Na38  1  0.74803362  -0.00104606  0.62508023  1
  Na  Na39  1  0.74767860  -0.00104006  0.87360295  1
  Na  Na40  1  0.75136708  0.33328592  0.12456287  1
  Na  Na41  1  0.75279398  0.33396089  0.37710933  1
  Na  Na42  1  0.75281177  0.33356500  0.62456015  1
  Na  Na43  1  0.75335371  0.33401019  0.87412057  1
  Na  Na44  1  0.74836464  0.66700121  0.12542776  1
  Na  Na45  1  0.74738781  0.66624009  0.37623621  1
  Na  Na46  1  0.75062048  0.66779646  0.62573073  1
  Na  Na47  1  0.74891454  0.66657244  0.87323835  1
  Na  Na48  1  0.00038332  0.16700086  -0.00010142  1
  Na  Na49  1  0.00077356  0.16642352  0.25024485  1
  Na  Na50  1  0.00109555  0.16704457  0.50068949  1
  Na  Na51  1  0.00192030  0.16612532  0.74975737  1
  Na  Na52  1  -0.00047309  0.49956930  -0.00069956  1
  Na  Na53  1  -0.00069127  0.50053856  0.25031212  1
  Na  Na54  1  -0.00067746  0.50036379  0.49994786  1
  Na  Na55  1  -0.00086456  0.49950499  0.74980107  1
  Na  Na56  1  -0.00066164  0.83331016  -0.00105353  1
  Na  Na57  1  -0.00000297  0.83309990  0.24905456  1
  Na  Na58  1  -0.00209762  0.83365560  0.50090215  1
  Na  Na59  1  -0.00180743  0.83330515  0.75064950  1
  Na  Na60  1  0.49873876  0.16606619  -0.00084121  1
  Na  Na61  1  0.49809309  0.16706139  0.24929450  1
  Na  Na62  1  0.49863713  0.16734709  0.50017793  1
  Na  Na63  1  0.50018132  0.16560948  0.75003530  1
  Na  Na64  1  0.50091789  0.49987425  -0.00044654  1
  Na  Na65  1  0.50079179  0.50034696  0.25090539  1
  Na  Na66  1  0.50101794  0.49980153  0.49918375  1
  Na  Na67  1  0.49899724  0.50079044  0.75103999  1
  Na  Na68  1  0.50014145  0.83372824  0.00018077  1
  Na  Na69  1  0.50019569  0.83357267  0.24968096  1
  Na  Na70  1  0.50081173  0.83398131  0.50090813  1
  Na  Na71  1  0.50112911  0.83336873  0.75035458  1
  Na  Na72  1  0.25166722  0.16559558  0.12636833  1
  Na  Na73  1  0.24949538  0.16664204  0.37538049  1
  Na  Na74  1  0.24843419  0.16691026  0.62455915  1
  Na  Na75  1  0.24958858  0.16657077  0.87357031  1
  Na  Na76  1  0.25155264  0.49992837  0.12489917  1
  Na  Na77  1  0.25007224  0.49988950  0.37643141  1
  Na  Na78  1  0.24958960  0.50024053  0.62520910  1
  Na  Na79  1  0.25105028  0.49979977  0.87377302  1
  Na  Na80  1  0.24910884  0.83371718  0.12519728  1
  Na  Na81  1  0.24988902  0.83225464  0.37621864  1
  Na  Na82  1  0.25012252  0.83334501  0.62429363  1
  Na  Na83  1  0.25128780  0.83338207  0.87391943  1
  Na  Na84  1  0.75039058  0.16685235  0.12400185  1
  Na  Na85  1  0.75101013  0.16604639  0.37688722  1
  Na  Na86  1  0.75033771  0.16659393  0.62546833  1
  Na  Na87  1  0.74907802  0.16724225  0.87361251  1
  Na  Na88  1  0.74844207  0.50071335  0.12488526  1
  Na  Na89  1  0.74956766  0.49969626  0.37623590  1
  Na  Na90  1  0.75059171  0.49958916  0.62459520  1
  Na  Na91  1  0.75043921  0.50003136  0.87340857  1
  Na  Na92  1  0.74935171  0.83391006  0.12535485  1
  Na  Na93  1  0.75128969  0.83282579  0.37630541  1
  Na  Na94  1  0.75053122  0.83352270  0.62530502  1
  Na  Na95  1  0.75045531  0.83350121  0.87394468  1
  Mn  Mn96  1  0.85835134  0.08333056  0.25246959  1
  Mn  Mn97  1  0.35869600  0.74984251  0.75150412  1
  Mn  Mn98  1  0.64232308  0.91711719  0.24855578  1
  Mn  Mn99  1  0.14184093  0.58274123  0.24761299  1
  Mn  Mn100  1  0.14278801  0.24952355  0.99787101  1
  Mn  Mn101  1  0.39277099  0.58470569  0.87745969  1
  Mn  Mn102  1  0.89183390  0.24964785  0.12740518  1
  Mn  Mn103  1  0.10709019  0.41675082  0.37261161  1
  Mn  Mn104  1  0.64196582  0.25025460  0.24813717  1
  Mn  Mn105  1  0.39270112  0.58303311  0.12738010  1
  Mn  Mn106  1  0.10721885  0.75025918  0.87267410  1
  Mn  Mn107  1  0.64250296  0.58294827  0.74668176  1
  Mn  Mn108  1  0.35818352  0.41662466  0.00236681  1
  Mn  Mn109  1  0.14178314  0.91643726  0.24865332  1
  Mn  Mn110  1  0.14158990  0.91625958  0.49812307  1
  Mn  Mn111  1  0.35744742  0.41725701  0.50322042  1
  Mn  Mn112  1  0.85752378  0.08300216  0.00125370  1
  Mn  Mn113  1  0.35760219  0.74938202  0.25307377  1
  Mn  Mn114  1  0.89227826  0.91686469  0.12618930  1
  Mn  Mn115  1  0.85769558  0.74976109  0.25232026  1
  Mn  Mn116  1  0.14264245  0.25067511  0.24842586  1
  Mn  Mn117  1  0.89159217  0.58380406  0.37781492  1
  Mn  Mn118  1  0.89137438  0.58317836  0.87781374  1
  Mn  Mn119  1  0.60768222  0.41564757  0.12289556  1
  Mn  Mn120  1  0.39189164  0.91671441  0.12701238  1
  Mn  Mn121  1  0.85830475  0.08278413  0.50331618  1
  Mn  Mn122  1  0.60764858  0.08403791  0.12256211  1
  Mn  Mn123  1  0.64203035  0.25035124  0.99733842  1
  Mn  Mn124  1  0.60758707  0.08360352  0.37274132  1
  Mn  Mn125  1  0.60837150  0.41607874  0.87220879  1
  Mn  Mn126  1  0.39288878  0.58413016  0.37776037  1
  Mn  Mn127  1  0.85791965  0.08325315  0.75235463  1
  Mn  Mn128  1  0.64247276  0.25002141  0.49843546  1
  Mn  Mn129  1  0.14189080  0.58298020  0.74714016  1
  Mn  Mn130  1  0.35791508  0.74922144  0.50234751  1
  Mn  Mn131  1  0.89145644  0.58391774  0.12700309  1
  Mn  Mn132  1  0.10872203  0.08291801  0.12207395  1
  Mn  Mn133  1  0.14262842  0.91670805  0.74761180  1
  Mn  Mn134  1  0.64261135  0.25013125  0.74713485  1
  Mn  Mn135  1  0.35792583  0.08312553  0.25328526  1
  Mn  Mn136  1  0.10743200  0.41624175  0.87251930  1
  Mn  Mn137  1  0.85766025  0.41691327  0.25252755  1
  Mn  Mn138  1  0.14248129  0.58373378  0.99739517  1
  Mn  Mn139  1  0.60830282  0.75036814  0.12215608  1
  Mn  Mn140  1  0.60792358  0.41616883  0.37284518  1
  Mn  Mn141  1  0.35724713  0.08315931  0.50259160  1
  Mn  Mn142  1  0.39154727  0.24919561  0.87691601  1
  Mn  Mn143  1  0.10827601  0.41721061  0.12259748  1
  Fe  Fe144  1  0.39218602  0.24998889  0.12679035  1
  Fe  Fe145  1  0.35711152  0.41631194  0.75028595  1
  Fe  Fe146  1  0.35725811  0.08244665  0.00101391  1
  Fe  Fe147  1  0.60799651  0.74982927  0.62333978  1
  Fe  Fe148  1  0.89243297  0.58355522  0.62593221  1
  Fe  Fe149  1  0.39353901  0.91608677  0.87681215  1
  Fe  Fe150  1  0.10823349  0.08322982  0.87336994  1
  Fe  Fe151  1  0.35755449  0.75050043  0.00160535  1
  Fe  Fe152  1  0.85697018  0.74961950  0.50200979  1
  Fe  Fe153  1  0.35739031  0.08390898  0.75127383  1
  Fe  Fe154  1  0.10612317  0.75085902  0.37384337  1
  Fe  Fe155  1  0.89250559  0.91709890  0.37694770  1
  Fe  Fe156  1  0.89243222  0.91775502  0.87707410  1
  Fe  Fe157  1  0.64295577  0.58338990  0.49960262  1
  Fe  Fe158  1  0.60675559  0.08301781  0.87294182  1
  Fe  Fe159  1  0.60782622  0.75087204  0.37366175  1
  Fe  Fe160  1  0.10667721  0.41708369  0.62343147  1
  Fe  Fe161  1  0.10594912  0.74991278  0.62358776  1
  Fe  Fe162  1  0.39390561  0.91639313  0.62678503  1
  Fe  Fe163  1  0.64285043  0.91615776  0.49845974  1
  Fe  Fe164  1  0.89358365  0.24873021  0.87622202  1
  Fe  Fe165  1  0.60783275  0.75083729  0.87365491  1
  Fe  Fe166  1  0.39300766  0.58352225  0.62592396  1
  Fe  Fe167  1  0.64241156  0.91637113  0.99744753  1
  Fe  Fe168  1  0.89406127  0.24957222  0.62704146  1
  Fe  Fe169  1  0.14225300  0.25051422  0.49795510  1
  Fe  Fe170  1  0.10656799  0.08273833  0.37373035  1
  Fe  Fe171  1  0.60729145  0.41623406  0.62392773  1
  Fe  Fe172  1  0.64295442  0.58354659  0.99833054  1
  Fe  Fe173  1  0.89281886  0.24916967  0.37717251  1
  Fe  Fe174  1  0.10754529  0.08271253  0.62377873  1
  Fe  Fe175  1  0.85800238  0.41694723  0.75108961  1
  Fe  Fe176  1  0.39291290  0.91645143  0.37709229  1
  Fe  Fe177  1  0.85668960  0.75019714  0.75148669  1
  Fe  Fe178  1  0.60638984  0.08385026  0.62374569  1
  Fe  Fe179  1  0.14341363  0.91661539  0.99763637  1
  Fe  Fe180  1  0.89234132  0.91700600  0.62691259  1
  Fe  Fe181  1  0.10750462  0.75004747  0.12197546  1
  Fe  Fe182  1  0.35783563  0.41729731  0.25201799  1
  Fe  Fe183  1  0.85764644  0.41746611  0.50255529  1
  Fe  Fe184  1  0.39210142  0.24941105  0.37730399  1
  Fe  Fe185  1  0.39202615  0.25027568  0.62655318  1
  Fe  Fe186  1  0.64261160  0.91673378  0.74806311  1
  Fe  Fe187  1  0.85610577  0.74987576  0.00130133  1
  Fe  Fe188  1  0.14148065  0.58302045  0.49900882  1
  Fe  Fe189  1  0.14250107  0.25020638  0.74793980  1
  Fe  Fe190  1  0.64262971  0.58285873  0.24844030  1
  Fe  Fe191  1  0.85701517  0.41761421  0.00178064  1
  P  P192  1  0.05343624  0.25042696  0.10984279  1
  P  P193  1  0.05321215  0.24953099  0.36159953  1
  P  P194  1  0.05478377  0.25017067  0.61119883  1
  P  P195  1  0.05357961  0.24926350  0.85933760  1
  P  P196  1  0.05295447  0.58430066  0.10927607  1
  P  P197  1  0.05377522  0.58437178  0.36141615  1
  P  P198  1  0.05208360  0.58343014  0.60996882  1
  P  P199  1  0.05276153  0.58348270  0.85956743  1
  P  P200  1  0.05454656  0.91559508  0.10869762  1
  P  P201  1  0.05171595  0.91635684  0.36074221  1
  P  P202  1  0.05198937  0.91614398  0.61068414  1
  P  P203  1  0.05370189  0.91722228  0.86110978  1
  P  P204  1  0.55137896  0.25010423  0.10951369  1
  P  P205  1  0.55167922  0.24981255  0.36012040  1
  P  P206  1  0.55179295  0.25013008  0.61044895  1
  P  P207  1  0.55318423  0.24898987  0.85952468  1
  P  P208  1  0.55547581  0.58286514  0.11034642  1
  P  P209  1  0.55609076  0.58427493  0.36117404  1
  P  P210  1  0.55305952  0.58284786  0.61009899  1
  P  P211  1  0.55560588  0.58445698  0.86119046  1
  P  P212  1  0.55411707  0.91705573  0.10904384  1
  P  P213  1  0.55342727  0.91615857  0.36158185  1
  P  P214  1  0.55477627  0.91689149  0.61141061  1
  P  P215  1  0.55464562  0.91647981  0.86057434  1
  P  P216  1  0.44498025  0.08351587  0.13861653  1
  P  P217  1  0.44634123  0.08286227  0.39033553  1
  P  P218  1  0.44666466  0.08333636  0.64041355  1
  P  P219  1  0.44561943  0.08199806  0.88865690  1
  P  P220  1  0.44610669  0.41624985  0.14080791  1
  P  P221  1  0.44519744  0.41638152  0.38929475  1
  P  P222  1  0.44733540  0.41703974  0.64031438  1
  P  P223  1  0.44550961  0.41679985  0.88840964  1
  P  P224  1  0.44579550  0.75010834  0.13932636  1
  P  P225  1  0.44837347  0.75069656  0.39029190  1
  P  P226  1  0.44871312  0.74964011  0.63976477  1
  P  P227  1  0.44778434  0.75108837  0.89029599  1
  P  P228  1  0.94717566  0.08299684  0.13975008  1
  P  P229  1  0.94765153  0.08301784  0.39045938  1
  P  P230  1  0.94815319  0.08319145  0.64016517  1
  P  P231  1  0.94826180  0.08336341  0.88960829  1
  P  P232  1  0.94548618  0.41729848  0.13907236  1
  P  P233  1  0.94555089  0.41601876  0.39106778  1
  P  P234  1  0.94589029  0.41702421  0.63891460  1
  P  P235  1  0.94463597  0.41534793  0.88892656  1
  P  P236  1  0.94624676  0.75026133  0.13842960  1
  P  P237  1  0.94640438  0.75088524  0.39071086  1
  P  P238  1  0.94496652  0.74996475  0.63917991  1
  P  P239  1  0.94379387  0.75118829  0.88906835  1
  P  P240  1  0.19547628  0.08305134  0.23670474  1
  P  P241  1  0.19394594  0.08376674  0.48608748  1
  P  P242  1  0.19611001  0.08375662  0.73529751  1
  P  P243  1  0.19787968  0.08223907  0.98395910  1
  P  P244  1  0.19829032  0.41652020  0.23519503  1
  P  P245  1  0.19441912  0.41687422  0.48672119  1
  P  P246  1  0.19674707  0.41573628  0.73401503  1
  P  P247  1  0.19738891  0.41651942  0.98429863  1
  P  P248  1  0.19440872  0.75023335  0.23573556  1
  P  P249  1  0.19395875  0.74916925  0.48618656  1
  P  P250  1  0.19612664  0.75036728  0.73382681  1
  P  P251  1  0.19717070  0.75097797  0.98526855  1
  P  P252  1  0.69717732  0.08358945  0.23484647  1
  P  P253  1  0.69517883  0.08259843  0.48705011  1
  P  P254  1  0.69473136  0.08257647  0.73528062  1
  P  P255  1  0.69575073  0.08283085  0.98352064  1
  P  P256  1  0.69682811  0.41674231  0.23525244  1
  P  P257  1  0.69645834  0.41700893  0.48719568  1
  P  P258  1  0.69791240  0.41621141  0.73374818  1
  P  P259  1  0.69802411  0.41717445  0.98449890  1
  P  P260  1  0.69534684  0.74986854  0.23654830  1
  P  P261  1  0.69565858  0.75022085  0.48678516  1
  P  P262  1  0.69569735  0.75114662  0.73552006  1
  P  P263  1  0.69704808  0.75023171  0.98405099  1
  P  P264  1  0.30405638  0.24820710  0.01530680  1
  P  P265  1  0.30526496  0.25079994  0.26526838  1
  P  P266  1  0.30346408  0.24976221  0.51472129  1
  P  P267  1  0.30353933  0.25009939  0.76272552  1
  P  P268  1  0.30364744  0.58484466  0.01488648  1
  P  P269  1  0.30332066  0.58287846  0.26581030  1
  P  P270  1  0.30218304  0.58374679  0.51582874  1
  P  P271  1  0.30508335  0.58271806  0.76311890  1
  P  P272  1  0.30374685  0.91659851  0.01322901  1
  P  P273  1  0.30373878  0.91624153  0.26667491  1
  P  P274  1  0.30511676  0.91611377  0.51497485  1
  P  P275  1  0.30630383  0.91717954  0.76377669  1
  P  P276  1  0.80470827  0.25028068  0.01306225  1
  P  P277  1  0.80362930  0.24970476  0.26662893  1
  P  P278  1  0.80597733  0.25008145  0.51523308  1
  P  P279  1  0.80600549  0.25044049  0.76378638  1
  P  P280  1  0.80182509  0.58409085  0.01453400  1
  P  P281  1  0.80155557  0.58370439  0.26564275  1
  P  P282  1  0.80275248  0.58394576  0.51571124  1
  P  P283  1  0.80496648  0.58339361  0.76296839  1
  P  P284  1  0.80279752  0.91611944  0.01312983  1
  P  P285  1  0.80403153  0.91670718  0.26604145  1
  P  P286  1  0.80421058  0.91583423  0.51487400  1
  P  P287  1  0.80430126  0.91640091  0.76400023  1
  O  O288  1  0.05684276  0.25059420  0.18666262  1
  O  O289  1  0.05784292  0.25055451  0.43826253  1
  O  O290  1  0.05914273  0.25035489  0.68793417  1
  O  O291  1  0.05701355  0.25020277  0.93602371  1
  O  O292  1  0.05593650  0.58352950  0.18612576  1
  O  O293  1  0.05768698  0.58331032  0.43812423  1
  O  O294  1  0.05543250  0.58318693  0.68671386  1
  O  O295  1  0.05633302  0.58369372  0.93624998  1
  O  O296  1  0.05704943  0.91636133  0.18553807  1
  O  O297  1  0.05517739  0.91622991  0.43727082  1
  O  O298  1  0.05573593  0.91596085  0.68751484  1
  O  O299  1  0.05896839  0.91656484  0.93760770  1
  O  O300  1  0.55536064  0.25016993  0.18615594  1
  O  O301  1  0.55636997  0.25011120  0.43683569  1
  O  O302  1  0.55574505  0.25010385  0.68701535  1
  O  O303  1  0.55620727  0.24994862  0.93629490  1
  O  O304  1  0.55950487  0.58297374  0.18712780  1
  O  O305  1  0.56031592  0.58315410  0.43798734  1
  O  O306  1  0.55623509  0.58286871  0.68650480  1
  O  O307  1  0.55979227  0.58354282  0.93807226  1
  O  O308  1  0.55733825  0.91692771  0.18580752  1
  O  O309  1  0.55829395  0.91662301  0.43832986  1
  O  O310  1  0.55885460  0.91655129  0.68809132  1
  O  O311  1  0.55894994  0.91632861  0.93731080  1
  O  O312  1  0.44115962  0.08246541  0.06173194  1
  O  O313  1  0.44382497  0.08275254  0.31385675  1
  O  O314  1  0.44317011  0.08352217  0.56346681  1
  O  O315  1  0.44097486  0.08311114  0.81202125  1
  O  O316  1  0.44345757  0.41741063  0.06390914  1
  O  O317  1  0.44128784  0.41731083  0.31265721  1
  O  O318  1  0.44391544  0.41705983  0.56337308  1
  O  O319  1  0.44086400  0.41664685  0.81176633  1
  O  O320  1  0.44121428  0.75020119  0.06248888  1
  O  O321  1  0.44456191  0.74986654  0.31367949  1
  O  O322  1  0.44486786  0.74958519  0.56286302  1
  O  O323  1  0.44411284  0.75009890  0.81394634  1
  O  O324  1  0.94346100  0.08313155  0.06304735  1
  O  O325  1  0.94453587  0.08310708  0.31374513  1
  O  O326  1  0.94462253  0.08322121  0.56359816  1
  O  O327  1  0.94448946  0.08299923  0.81289257  1
  O  O328  1  0.94072008  0.41763837  0.06229662  1
  O  O329  1  0.94287935  0.41702033  0.31422309  1
  O  O330  1  0.94133781  0.41743742  0.56223458  1
  O  O331  1  0.94104229  0.41676657  0.81209204  1
  O  O332  1  0.94051843  0.74999163  0.06182540  1
  O  O333  1  0.94335405  0.74987731  0.31393827  1
  O  O334  1  0.94056515  0.74985843  0.56249902  1
  O  O335  1  0.93974919  0.75030637  0.81226132  1
  O  O336  1  0.19464533  0.08266170  0.06073846  1
  O  O337  1  0.19043186  0.08277944  0.31352969  1
  O  O338  1  0.18999287  0.08260778  0.56290422  1
  O  O339  1  0.19143750  0.08289639  0.81196755  1
  O  O340  1  0.19439370  0.41666170  0.06108305  1
  O  O341  1  0.19386004  0.41645553  0.31191837  1
  O  O342  1  0.19003661  0.41697562  0.56338152  1
  O  O343  1  0.19329762  0.41634112  0.81072767  1
  O  O344  1  0.19246962  0.75034749  0.06191697  1
  O  O345  1  0.18964464  0.75059140  0.31250836  1
  O  O346  1  0.18933667  0.75033563  0.56288640  1
  O  O347  1  0.19269586  0.75059449  0.81067310  1
  O  O348  1  0.69311160  0.08357994  0.06035544  1
  O  O349  1  0.69398091  0.08359533  0.31168845  1
  O  O350  1  0.69038377  0.08370717  0.56374611  1
  O  O351  1  0.69040946  0.08337179  0.81196969  1
  O  O352  1  0.69410399  0.41607592  0.06116955  1
  O  O353  1  0.69400885  0.41566078  0.31209422  1
  O  O354  1  0.69107124  0.41589650  0.56376737  1
  O  O355  1  0.69391742  0.41595659  0.81048334  1
  O  O356  1  0.69401786  0.75072050  0.06076028  1
  O  O357  1  0.69175230  0.75089395  0.31337233  1
  O  O358  1  0.69126558  0.75047862  0.56354797  1
  O  O359  1  0.69121439  0.75077751  0.81218441  1
  O  O360  1  0.30907964  0.24979387  0.18844771  1
  O  O361  1  0.30856981  0.24955627  0.43811096  1
  O  O362  1  0.30812464  0.24985256  0.68601390  1
  O  O363  1  0.30637817  0.24905545  0.93842048  1
  O  O364  1  0.30685520  0.58380930  0.18907063  1
  O  O365  1  0.30667048  0.58407811  0.43921704  1
  O  O366  1  0.30957239  0.58384864  0.68638370  1
  O  O367  1  0.30657492  0.58448152  0.93804130  1
  O  O368  1  0.30679494  0.91627357  0.18980225  1
  O  O369  1  0.30961059  0.91600405  0.43825704  1
  O  O370  1  0.31065087  0.91617860  0.68699430  1
  O  O371  1  0.30850949  0.91630074  0.93655486  1
  O  O372  1  0.80648541  0.24949702  0.18975885  1
  O  O373  1  0.81007811  0.24894344  0.43849194  1
  O  O374  1  0.81061227  0.24908046  0.68701941  1
  O  O375  1  0.80900141  0.24901708  0.93633585  1
  O  O376  1  0.80532142  0.58407312  0.18896506  1
  O  O377  1  0.80579359  0.58386683  0.43899796  1
  O  O378  1  0.80915975  0.58339014  0.68612185  1
  O  O379  1  0.80519068  0.58391388  0.93772518  1
  O  O380  1  0.80708678  0.91678521  0.18922542  1
  O  O381  1  0.80917582  0.91700305  0.43823200  1
  O  O382  1  0.80924546  0.91746972  0.68728753  1
  O  O383  1  0.80771693  0.91740407  0.93645264  1
  O  O384  1  0.23461238  0.24920244  0.04115795  1
  O  O385  1  0.23526065  0.25024606  0.28977926  1
  O  O386  1  0.23297016  0.24980112  0.53771392  1
  O  O387  1  0.23324940  0.24982905  0.78677318  1
  O  O388  1  0.23416302  0.58408365  0.04048392  1
  O  O389  1  0.23355913  0.58299375  0.29067809  1
  O  O390  1  0.23191976  0.58334292  0.53954488  1
  O  O391  1  0.23490465  0.58332967  0.78709087  1
  O  O392  1  0.23363426  0.91681941  0.03763991  1
  O  O393  1  0.23394298  0.91612634  0.29159429  1
  O  O394  1  0.23492659  0.91656607  0.53852851  1
  O  O395  1  0.23597953  0.91649596  0.78739471  1
  O  O396  1  0.73473615  0.24998420  0.03755209  1
  O  O397  1  0.73410718  0.25012889  0.29224613  1
  O  O398  1  0.73577580  0.24984111  0.53914309  1
  O  O399  1  0.73578660  0.25028070  0.78732759  1
  O  O400  1  0.73193279  0.58408356  0.03947258  1
  O  O401  1  0.73169603  0.58314707  0.29053237  1
  O  O402  1  0.73271159  0.58395207  0.54059747  1
  O  O403  1  0.73506750  0.58325541  0.78698515  1
  O  O404  1  0.73248450  0.91639096  0.03693585  1
  O  O405  1  0.73436374  0.91660381  0.29119490  1
  O  O406  1  0.73371649  0.91592659  0.53822443  1
  O  O407  1  0.73369467  0.91656311  0.78690006  1
  O  O408  1  0.26548129  0.08283341  0.21315053  1
  O  O409  1  0.26418910  0.08326975  0.46226519  1
  O  O410  1  0.26651609  0.08358989  0.71165766  1
  O  O411  1  0.26777644  0.08272552  0.95893892  1
  O  O412  1  0.26833997  0.41682718  0.21100534  1
  O  O413  1  0.26462999  0.41693208  0.46284447  1
  O  O414  1  0.26676788  0.41628583  0.70923683  1
  O  O415  1  0.26702143  0.41626081  0.95902136  1
  O  O416  1  0.26465881  0.75031804  0.21227082  1
  O  O417  1  0.26426384  0.74939477  0.46248582  1
  O  O418  1  0.26591902  0.75005777  0.70940843  1
  O  O419  1  0.26738778  0.75060560  0.96098583  1
  O  O420  1  0.76665697  0.08316984  0.20928862  1
  O  O421  1  0.76536925  0.08272317  0.46344453  1
  O  O422  1  0.76497784  0.08289192  0.71147909  1
  O  O423  1  0.76539213  0.08303738  0.95807466  1
  O  O424  1  0.76631805  0.41695746  0.20967517  1
  O  O425  1  0.76706419  0.41705980  0.46420507  1
  O  O426  1  0.76820416  0.41658447  0.70994004  1
  O  O427  1  0.76807084  0.41728218  0.95982901  1
  O  O428  1  0.76512810  0.75043374  0.21158189  1
  O  O429  1  0.76608381  0.74991304  0.46306064  1
  O  O430  1  0.76622678  0.75072438  0.71207904  1
  O  O431  1  0.76692915  0.75003187  0.95882229  1
  O  O432  1  0.01694117  0.08272821  0.16451010  1
  O  O433  1  0.01754705  0.08306314  0.41562367  1
  O  O434  1  0.01826175  0.08288223  0.66478522  1
  O  O435  1  0.01827246  0.08363569  0.91426061  1
  O  O436  1  0.01541937  0.41681464  0.16338398  1
  O  O437  1  0.01523841  0.41653172  0.41613585  1
  O  O438  1  0.01636334  0.41650621  0.66259144  1
  O  O439  1  0.01461046  0.41623844  0.91329375  1
  O  O440  1  0.01660263  0.75057750  0.16174458  1
  O  O441  1  0.01635403  0.75075564  0.41554780  1
  O  O442  1  0.01536848  0.74978597  0.66314354  1
  O  O443  1  0.01394511  0.75066811  0.91285025  1
  O  O444  1  0.51485086  0.08313862  0.16330046  1
  O  O445  1  0.51584809  0.08342775  0.41626913  1
  O  O446  1  0.51683512  0.08282995  0.66464078  1
  O  O447  1  0.51602885  0.08259020  0.91220969  1
  O  O448  1  0.51566294  0.41638936  0.16626742  1
  O  O449  1  0.51522711  0.41661458  0.41360219  1
  O  O450  1  0.51737754  0.41676906  0.66504445  1
  O  O451  1  0.51558139  0.41659777  0.91245054  1
  O  O452  1  0.51586377  0.75035529  0.16297474  1
  O  O453  1  0.51837829  0.75056788  0.41497059  1
  O  O454  1  0.51885482  0.75001815  0.66416562  1
  O  O455  1  0.51796244  0.75095824  0.91478943  1
  O  O456  1  0.48141188  0.25006334  0.08485258  1
  O  O457  1  0.48149968  0.24954638  0.33639063  1
  O  O458  1  0.48159565  0.25024190  0.58595684  1
  O  O459  1  0.48344710  0.24894729  0.83458266  1
  O  O460  1  0.48544918  0.58309995  0.08622452  1
  O  O461  1  0.48599699  0.58382169  0.33714507  1
  O  O462  1  0.48304291  0.58319603  0.58475492  1
  O  O463  1  0.48555438  0.58435523  0.83718560  1
  O  O464  1  0.48429015  0.91703046  0.08439753  1
  O  O465  1  0.48328268  0.91632386  0.33743572  1
  O  O466  1  0.48428770  0.91706455  0.58765250  1
  O  O467  1  0.48430287  0.91635312  0.83679917  1
  O  O468  1  0.98374391  0.25011907  0.08495065  1
  O  O469  1  0.98294360  0.24958635  0.33765451  1
  O  O470  1  0.98422806  0.25018354  0.58772918  1
  O  O471  1  0.98355862  0.24921623  0.83466459  1
  O  O472  1  0.98339733  0.58419007  0.08379008  1
  O  O473  1  0.98385299  0.58425429  0.33676951  1
  O  O474  1  0.98191493  0.58376428  0.58538272  1
  O  O475  1  0.98286139  0.58330569  0.83507584  1
  O  O476  1  0.98488257  0.91647692  0.08343546  1
  O  O477  1  0.98186976  0.91627291  0.33544271  1
  O  O478  1  0.98187247  0.91668060  0.58628003  1
  O  O479  1  0.98326721  0.91683137  0.83762955  1
  O  O480  1  0.08731060  0.31537074  0.07709482  1
  O  O481  1  0.08639076  0.31452856  0.32782586  1
  O  O482  1  0.08784516  0.31522256  0.57766422  1
  O  O483  1  0.08742469  0.31417429  0.82607373  1
  O  O484  1  0.08712599  0.64958288  0.07726625  1
  O  O485  1  0.08732453  0.64975390  0.32917503  1
  O  O486  1  0.08614555  0.64840708  0.57749966  1
  O  O487  1  0.08649667  0.64857217  0.82686869  1
  O  O488  1  0.08951234  0.98024024  0.07624241  1
  O  O489  1  0.08570883  0.98148320  0.32818007  1
  O  O490  1  0.08618175  0.98099360  0.57824632  1
  O  O491  1  0.08688538  0.98239495  0.82784889  1
  O  O492  1  0.58522745  0.31513125  0.07661615  1
  O  O493  1  0.58506681  0.31491460  0.32707097  1
  O  O494  1  0.58558837  0.31516280  0.57758695  1
  O  O495  1  0.58725542  0.31389867  0.82671431  1
  O  O496  1  0.58935571  0.64781461  0.07733329  1
  O  O497  1  0.58938909  0.64971115  0.32871063  1
  O  O498  1  0.58757598  0.64785530  0.57762955  1
  O  O499  1  0.58896956  0.64979719  0.82868440  1
  O  O500  1  0.58830774  0.98190998  0.07641262  1
  O  O501  1  0.58672450  0.98119677  0.32816738  1
  O  O502  1  0.58810650  0.98196423  0.57822426  1
  O  O503  1  0.58799734  0.98155123  0.82727539  1
  O  O504  1  0.41113610  0.01881150  0.17196123  1
  O  O505  1  0.41238833  0.01764584  0.42290189  1
  O  O506  1  0.41267540  0.01839160  0.67285088  1
  O  O507  1  0.41270067  0.01658095  0.92176236  1
  O  O508  1  0.41166985  0.35098633  0.17226162  1
  O  O509  1  0.41159551  0.35119092  0.42203211  1
  O  O510  1  0.41292735  0.35205072  0.67259951  1
  O  O511  1  0.41193522  0.35167090  0.92134437  1
  O  O512  1  0.41265453  0.68496403  0.17260607  1
  O  O513  1  0.41467208  0.68562881  0.42344971  1
  O  O514  1  0.41526043  0.68449814  0.67240595  1
  O  O515  1  0.41377880  0.68637994  0.92381442  1
  O  O516  1  0.91314869  0.01788405  0.17212106  1
  O  O517  1  0.91373554  0.01786048  0.42300314  1
  O  O518  1  0.91401630  0.01830603  0.67283507  1
  O  O519  1  0.91438821  0.01834108  0.92244300  1
  O  O520  1  0.91161383  0.35229995  0.17187411  1
  O  O521  1  0.91156670  0.35082422  0.42310379  1
  O  O522  1  0.91245690  0.35198370  0.67203203  1
  O  O523  1  0.91155606  0.34966497  0.92098992  1
  O  O524  1  0.91323925  0.68529259  0.17240810  1
  O  O525  1  0.91224862  0.68607793  0.42380995  1
  O  O526  1  0.91145150  0.68491734  0.67232054  1
  O  O527  1  0.90999158  0.68635041  0.92249911  1
  O  O528  1  0.16219105  0.01802060  0.20333661  1
  O  O529  1  0.16020387  0.01892830  0.45272600  1
  O  O530  1  0.16278394  0.01870660  0.70165131  1
  O  O531  1  0.16386704  0.01727008  0.95123081  1
  O  O532  1  0.16482499  0.35143140  0.20227560  1
  O  O533  1  0.16139720  0.35155291  0.45347549  1
  O  O534  1  0.16285067  0.35065791  0.70157125  1
  O  O535  1  0.16321042  0.35137685  0.95209817  1
  O  O536  1  0.16096529  0.68521528  0.20243761  1
  O  O537  1  0.16050854  0.68397449  0.45351739  1
  O  O538  1  0.16148768  0.68556520  0.70152690  1
  O  O539  1  0.16346559  0.68612162  0.95182599  1
  O  O540  1  0.66270209  0.01860597  0.20275359  1
  O  O541  1  0.66204032  0.01716014  0.45427593  1
  O  O542  1  0.66133294  0.01733630  0.70258275  1
  O  O543  1  0.66150587  0.01762797  0.95149669  1
  O  O544  1  0.66290179  0.35170934  0.20240691  1
  O  O545  1  0.66358707  0.35208170  0.45303531  1
  O  O546  1  0.66432357  0.35121585  0.70065996  1
  O  O547  1  0.66440088  0.35217772  0.95123309  1
  O  O548  1  0.66187293  0.68444606  0.20422351  1
  O  O549  1  0.66206722  0.68519096  0.45400821  1
  O  O550  1  0.66233706  0.68628379  0.70196872  1
  O  O551  1  0.66284662  0.68518571  0.95175354  1
  O  O552  1  0.33919917  0.31283542  0.04757295  1
  O  O553  1  0.33867995  0.31615230  0.29778323  1
  O  O554  1  0.33685185  0.31471003  0.54821834  1
  O  O555  1  0.33672497  0.31530543  0.79571964  1
  O  O556  1  0.33753783  0.65007008  0.04713711  1
  O  O557  1  0.33713661  0.64796059  0.29880838  1
  O  O558  1  0.33593040  0.64865533  0.54903749  1
  O  O559  1  0.33873183  0.64750056  0.79663455  1
  O  O560  1  0.33707407  0.98186932  0.04625298  1
  O  O561  1  0.33790540  0.98112910  0.29914259  1
  O  O562  1  0.33885781  0.98107453  0.54815468  1
  O  O563  1  0.33923596  0.98264460  0.79656130  1
  O  O564  1  0.83803066  0.31574389  0.04557977  1
  O  O565  1  0.83846041  0.31454307  0.29865267  1
  O  O566  1  0.83956860  0.31532935  0.54770307  1
  O  O567  1  0.83948252  0.31568340  0.79617708  1
  O  O568  1  0.83548589  0.64935998  0.04703448  1
  O  O569  1  0.83508686  0.64884613  0.29855165  1
  O  O570  1  0.83679514  0.64898634  0.54820798  1
  O  O571  1  0.83813728  0.64863892  0.79599713  1
  O  O572  1  0.83622696  0.98091840  0.04680066  1
  O  O573  1  0.83824179  0.98165376  0.29872009  1
  O  O574  1  0.83753744  0.98061971  0.54895765  1
  O  O575  1  0.83753778  0.98123922  0.79801184  1
  O  O576  1  0.41144162  0.14888238  0.17095168  1
  O  O577  1  0.41161237  0.14786105  0.42258547  1
  O  O578  1  0.41297036  0.14847565  0.67305932  1
  O  O579  1  0.41175040  0.14655488  0.92233069  1
  O  O580  1  0.41174184  0.48107358  0.17362555  1
  O  O581  1  0.41166576  0.48134693  0.42278832  1
  O  O582  1  0.41343551  0.48216145  0.67263173  1
  O  O583  1  0.41231637  0.48191593  0.92170593  1
  O  O584  1  0.41222493  0.81507731  0.17235655  1
  O  O585  1  0.41436526  0.81559275  0.42294336  1
  O  O586  1  0.41490684  0.81463524  0.67233290  1
  O  O587  1  0.41380562  0.81630281  0.92288098  1
  O  O588  1  0.91338951  0.14800310  0.17259847  1
  O  O589  1  0.91369103  0.14790231  0.42325729  1
  O  O590  1  0.91464408  0.14836023  0.67292964  1
  O  O591  1  0.91431291  0.14848380  0.92193675  1
  O  O592  1  0.91220747  0.48249590  0.17228169  1
  O  O593  1  0.91094521  0.48090513  0.42365150  1
  O  O594  1  0.91274925  0.48214389  0.67230554  1
  O  O595  1  0.91030157  0.47991790  0.92246422  1
  O  O596  1  0.91292600  0.81532445  0.17171343  1
  O  O597  1  0.91222525  0.81590113  0.42297982  1
  O  O598  1  0.91167979  0.81510027  0.67244565  1
  O  O599  1  0.91046536  0.81645474  0.92181460  1
  O  O600  1  0.08758210  0.18524924  0.07756594  1
  O  O601  1  0.08669732  0.18433176  0.32892507  1
  O  O602  1  0.08796067  0.18500208  0.57812749  1
  O  O603  1  0.08787370  0.18418492  0.82715194  1
  O  O604  1  0.08720153  0.51927134  0.07690747  1
  O  O605  1  0.08732735  0.51937882  0.32798229  1
  O  O606  1  0.08589210  0.51840489  0.57716665  1
  O  O607  1  0.08670831  0.51841357  0.82704945  1
  O  O608  1  0.08843162  0.85032170  0.07644275  1
  O  O609  1  0.08565879  0.85128164  0.32805544  1
  O  O610  1  0.08528489  0.85100857  0.57777473  1
  O  O611  1  0.08698000  0.85235127  0.82725577  1
  O  O612  1  0.58529758  0.18512988  0.07678284  1
  O  O613  1  0.58526453  0.18481979  0.32717797  1
  O  O614  1  0.58540167  0.18493072  0.57768998  1
  O  O615  1  0.58725362  0.18378890  0.82753463  1
  O  O616  1  0.58907624  0.51787934  0.07720113  1
  O  O617  1  0.58987991  0.51945525  0.32774372  1
  O  O618  1  0.58704978  0.51772088  0.57735475  1
  O  O619  1  0.58912062  0.51962370  0.82768515  1
  O  O620  1  0.58826211  0.85206891  0.07635548  1
  O  O621  1  0.58692124  0.85106579  0.32862534  1
  O  O622  1  0.58810485  0.85192456  0.57786769  1
  O  O623  1  0.58821646  0.85151915  0.82727907  1
  O  O624  1  0.33781851  0.18266118  0.04701539  1
  O  O625  1  0.33914353  0.18600280  0.29861838  1
  O  O626  1  0.33679209  0.18487280  0.54843297  1
  O  O627  1  0.33694560  0.18508447  0.79608438  1
  O  O628  1  0.33823045  0.51981418  0.04695990  1
  O  O629  1  0.33735481  0.51775184  0.29798663  1
  O  O630  1  0.33629307  0.51888151  0.54869732  1
  O  O631  1  0.33805941  0.51711689  0.79556950  1
  O  O632  1  0.33710555  0.85160023  0.04674040  1
  O  O633  1  0.33802911  0.85128233  0.29915714  1
  O  O634  1  0.33864232  0.85110701  0.54821531  1
  O  O635  1  0.34013463  0.85256706  0.79734387  1
  O  O636  1  0.83826095  0.18535550  0.04653916  1
  O  O637  1  0.83793541  0.18461926  0.29902616  1
  O  O638  1  0.83971083  0.18525972  0.54878811  1
  O  O639  1  0.83942946  0.18553545  0.79758924  1
  O  O640  1  0.83577692  0.51910141  0.04709310  1
  O  O641  1  0.83580600  0.51883739  0.29815137  1
  O  O642  1  0.83706733  0.51910101  0.54831530  1
  O  O643  1  0.83846978  0.51826219  0.79591244  1
  O  O644  1  0.83585373  0.85075778  0.04607702  1
  O  O645  1  0.83833523  0.85175748  0.29848436  1
  O  O646  1  0.83745639  0.85063584  0.54780842  1
  O  O647  1  0.83748688  0.85130490  0.79697076  1
  O  O648  1  0.16238074  0.14825870  0.20349675  1
  O  O649  1  0.16073021  0.14911785  0.45346035  1
  O  O650  1  0.16249367  0.14868375  0.70230839  1
  O  O651  1  0.16354825  0.14720800  0.95139929  1
  O  O652  1  0.16435846  0.48144832  0.20234723  1
  O  O653  1  0.16107581  0.48202790  0.45366682  1
  O  O654  1  0.16228712  0.48054797  0.70124885  1
  O  O655  1  0.16334248  0.48156048  0.95179147  1
  O  O656  1  0.16102762  0.81515956  0.20223928  1
  O  O657  1  0.16055370  0.81412596  0.45247765  1
  O  O658  1  0.16213481  0.81546429  0.70122215  1
  O  O659  1  0.16392347  0.81618674  0.95210182  1
  O  O660  1  0.66315764  0.14876886  0.20248447  1
  O  O661  1  0.66192763  0.14755818  0.45340139  1
  O  O662  1  0.66104109  0.14739870  0.70172289  1
  O  O663  1  0.66113302  0.14761966  0.95101762  1
  O  O664  1  0.66247863  0.48193062  0.20360027  1
  O  O665  1  0.66346355  0.48228003  0.45424074  1
  O  O666  1  0.66382287  0.48099635  0.70110404  1
  O  O667  1  0.66426557  0.48237602  0.95214928  1
  O  O668  1  0.66138736  0.81458315  0.20329206  1
  O  O669  1  0.66248277  0.81534872  0.45324856  1
  O  O670  1  0.66256823  0.81619460  0.70216629  1
  O  O671  1  0.66299428  0.81518195  0.95116179  1
