# generated using pymatgen
data_Na2MnFe(PO4)2
_symmetry_space_group_name_H-M   'P 1'
_cell_length_a   21.07359808
_cell_length_b   18.92482213
_cell_length_c   20.03393924
_cell_angle_alpha   89.99935720
_cell_angle_beta   90.00264105
_cell_angle_gamma   89.99972432
_symmetry_Int_Tables_number   1
_chemical_formula_structural   Na2MnFe(PO4)2
_chemical_formula_sum   'Na96 Mn48 Fe48 P96 O384'
_cell_volume   7989.81734835
_cell_formula_units_Z   48
loop_
 _symmetry_equiv_pos_site_id
 _symmetry_equiv_pos_as_xyz
  1  'x, y, z'
loop_
 _atom_site_type_symbol
 _atom_site_label
 _atom_site_symmetry_multiplicity
 _atom_site_fract_x
 _atom_site_fract_y
 _atom_site_fract_z
 _atom_site_occupancy
  Na  Na0  1  0.00021864  -0.00031512  0.00023388  1
  Na  Na1  1  0.00189463  -0.00002770  0.24988173  1
  Na  Na2  1  0.00143206  0.00023414  0.50014108  1
  Na  Na3  1  -0.00038440  0.00022342  0.75056335  1
  Na  Na4  1  0.00150836  0.33307236  -0.00057780  1
  Na  Na5  1  0.00152468  0.33369638  0.24938839  1
  Na  Na6  1  -0.00159597  0.33257329  0.50114551  1
  Na  Na7  1  -0.00233363  0.33212449  0.75032355  1
  Na  Na8  1  -0.00153185  0.66611734  -0.00036878  1
  Na  Na9  1  0.00104902  0.66674546  0.24963425  1
  Na  Na10  1  -0.00174108  0.66560608  0.50006185  1
  Na  Na11  1  -0.00173026  0.66670348  0.75038009  1
  Na  Na12  1  0.49814410  0.00030357  -0.00087752  1
  Na  Na13  1  0.49751860  -0.00008165  0.25005994  1
  Na  Na14  1  0.49857958  -0.00007728  0.49965609  1
  Na  Na15  1  0.49763853  -0.00063767  0.75050380  1
  Na  Na16  1  0.49894067  0.33240467  -0.00025954  1
  Na  Na17  1  0.49807857  0.33237757  0.25036281  1
  Na  Na18  1  0.50165703  0.33430348  0.49904836  1
  Na  Na19  1  0.50118397  0.33320953  0.75031864  1
  Na  Na20  1  0.49775933  0.66638593  0.00069121  1
  Na  Na21  1  0.49845289  0.66681537  0.24887113  1
  Na  Na22  1  0.49993231  0.66672146  0.49980936  1
  Na  Na23  1  0.49925055  0.66640074  0.75019519  1
  Na  Na24  1  0.25017138  0.00051215  0.12474297  1
  Na  Na25  1  0.24919304  -0.00054859  0.37516149  1
  Na  Na26  1  0.25038273  0.00075461  0.62652987  1
  Na  Na27  1  0.24952732  0.00012921  0.87417479  1
  Na  Na28  1  0.24985728  0.33303616  0.12429287  1
  Na  Na29  1  0.24886329  0.33273186  0.37465024  1
  Na  Na30  1  0.24889861  0.33271582  0.62518319  1
  Na  Na31  1  0.24883561  0.33203211  0.87500926  1
  Na  Na32  1  0.25018961  0.66691164  0.12393383  1
  Na  Na33  1  0.25104726  0.66699850  0.37693327  1
  Na  Na34  1  0.25196472  0.66679746  0.62482933  1
  Na  Na35  1  0.25288050  0.66752778  0.87493460  1
  Na  Na36  1  0.75120304  0.00012955  0.12506474  1
  Na  Na37  1  0.75057787  0.00003132  0.37372470  1
  Na  Na38  1  0.75172385  0.00049571  0.62576797  1
  Na  Na39  1  0.75173367  0.00017947  0.87545257  1
  Na  Na40  1  0.74915437  0.33245037  0.12450897  1
  Na  Na41  1  0.75121862  0.33367669  0.37582734  1
  Na  Na42  1  0.75218823  0.33390991  0.62548541  1
  Na  Na43  1  0.75187876  0.33341901  0.87441091  1
  Na  Na44  1  0.75006360  0.66620563  0.12455444  1
  Na  Na45  1  0.75047460  0.66675940  0.37596576  1
  Na  Na46  1  0.75028389  0.66686143  0.62406728  1
  Na  Na47  1  0.75086671  0.66695459  0.87532751  1
  Na  Na48  1  0.00168771  0.16608665  0.00007771  1
  Na  Na49  1  0.00265459  0.16568299  0.24870509  1
  Na  Na50  1  -0.00177307  0.16728502  0.50110303  1
  Na  Na51  1  -0.00018261  0.16629018  0.75044303  1
  Na  Na52  1  -0.00170024  0.50079135  -0.00009896  1
  Na  Na53  1  -0.00068078  0.50084850  0.24957993  1
  Na  Na54  1  -0.00249063  0.50098407  0.50060314  1
  Na  Na55  1  -0.00315424  0.50083353  0.74938183  1
  Na  Na56  1  0.00146662  0.83314167  -0.00039497  1
  Na  Na57  1  0.00184808  0.83377054  0.25051648  1
  Na  Na58  1  0.00340128  0.83215920  0.49991772  1
  Na  Na59  1  -0.00149269  0.83448603  0.75116986  1
  Na  Na60  1  0.49709930  0.16675105  -0.00045198  1
  Na  Na61  1  0.49717188  0.16638017  0.24963927  1
  Na  Na62  1  0.49862695  0.16621834  0.50014211  1
  Na  Na63  1  0.49758776  0.16690715  0.75003752  1
  Na  Na64  1  0.49929252  0.50048261  0.00093640  1
  Na  Na65  1  0.49928481  0.49994202  0.24966265  1
  Na  Na66  1  0.49925948  0.50138028  0.49975919  1
  Na  Na67  1  0.50090124  0.50052047  0.74989671  1
  Na  Na68  1  0.49875953  0.83356438  -0.00087881  1
  Na  Na69  1  0.49798761  0.83407397  0.25013024  1
  Na  Na70  1  0.50113580  0.83285487  0.49857895  1
  Na  Na71  1  0.49971462  0.83370612  0.75111492  1
  Na  Na72  1  0.24880578  0.16703844  0.12416958  1
  Na  Na73  1  0.25061584  0.16565777  0.37523181  1
  Na  Na74  1  0.25015485  0.16588935  0.62625998  1
  Na  Na75  1  0.25007609  0.16577117  0.87560560  1
  Na  Na76  1  0.25055815  0.50061449  0.12420542  1
  Na  Na77  1  0.25131442  0.49999665  0.37609553  1
  Na  Na78  1  0.25122874  0.50032604  0.62536151  1
  Na  Na79  1  0.25194156  0.49965205  0.87394319  1
  Na  Na80  1  0.24891525  0.83364629  0.12493591  1
  Na  Na81  1  0.24856341  0.83349536  0.37526970  1
  Na  Na82  1  0.24952914  0.83325585  0.62516211  1
  Na  Na83  1  0.25088685  0.83270692  0.87420939  1
  Na  Na84  1  0.74949746  0.16677175  0.12443225  1
  Na  Na85  1  0.75094956  0.16621779  0.37507385  1
  Na  Na86  1  0.75300597  0.16544485  0.62545561  1
  Na  Na87  1  0.75213110  0.16610176  0.87472956  1
  Na  Na88  1  0.75056322  0.50077875  0.12459338  1
  Na  Na89  1  0.75216823  0.49971625  0.37578785  1
  Na  Na90  1  0.75162853  0.50019883  0.62458070  1
  Na  Na91  1  0.75065362  0.50054895  0.87515399  1
  Na  Na92  1  0.75010920  0.83431455  0.12506755  1
  Na  Na93  1  0.74905936  0.83400735  0.37456175  1
  Na  Na94  1  0.74932221  0.83382902  0.62526253  1
  Na  Na95  1  0.75145538  0.83327161  0.87533575  1
  Mn  Mn96  1  0.89315388  0.24972767  0.12706799  1
  Mn  Mn97  1  0.39145398  0.91643427  0.87795293  1
  Mn  Mn98  1  0.64164139  0.91651102  0.24677371  1
  Mn  Mn99  1  0.14242452  0.58285735  0.74783258  1
  Mn  Mn100  1  0.60732022  0.08362114  0.37307161  1
  Mn  Mn101  1  0.10765709  0.41704889  0.37317115  1
  Mn  Mn102  1  0.85826724  0.41665391  0.25198433  1
  Mn  Mn103  1  0.35860309  0.41605919  0.75213076  1
  Mn  Mn104  1  0.39227589  0.25038004  0.62770458  1
  Mn  Mn105  1  0.85829642  0.75107123  0.00307140  1
  Mn  Mn106  1  0.60748290  0.74966985  0.37215219  1
  Mn  Mn107  1  0.64318218  0.25001027  0.74779386  1
  Mn  Mn108  1  0.85796499  0.75106181  0.50256254  1
  Mn  Mn109  1  0.60725104  0.08353228  0.87312284  1
  Mn  Mn110  1  0.85880508  0.08368385  0.25169250  1
  Mn  Mn111  1  0.64263241  0.58361877  0.49759661  1
  Mn  Mn112  1  0.60662285  0.75085423  0.12292440  1
  Mn  Mn113  1  0.60746899  0.74981550  0.87303624  1
  Mn  Mn114  1  0.39085957  0.25063707  0.37749741  1
  Mn  Mn115  1  0.10758945  0.74974848  0.87227834  1
  Mn  Mn116  1  0.85849151  0.74999050  0.25175543  1
  Mn  Mn117  1  0.64140563  0.25026336  0.24741577  1
  Mn  Mn118  1  0.14221306  0.58333967  0.49858500  1
  Mn  Mn119  1  0.64276075  0.91661320  0.74765814  1
  Mn  Mn120  1  0.60707195  0.41580333  0.12313455  1
  Mn  Mn121  1  0.10651481  0.41715373  0.62310447  1
  Mn  Mn122  1  0.35839773  0.41568178  0.50308069  1
  Mn  Mn123  1  0.39082855  0.91615936  0.37749608  1
  Mn  Mn124  1  0.14139682  0.24964304  0.49813184  1
  Mn  Mn125  1  0.89255014  0.91630837  0.62672217  1
  Mn  Mn126  1  0.89299665  0.91635914  0.37762284  1
  Mn  Mn127  1  0.35813035  0.75091289  0.50318944  1
  Mn  Mn128  1  0.64321962  0.24896142  0.49840533  1
  Mn  Mn129  1  0.10846775  0.08382902  0.37318471  1
  Mn  Mn130  1  0.89258953  0.25029533  0.37674159  1
  Mn  Mn131  1  0.60798495  0.41657890  0.87285705  1
  Mn  Mn132  1  0.14224335  0.58348835  0.99681423  1
  Mn  Mn133  1  0.39133254  0.58315228  0.12841864  1
  Mn  Mn134  1  0.14217141  0.91631197  0.74761372  1
  Mn  Mn135  1  0.60635717  0.08319718  0.12250240  1
  Mn  Mn136  1  0.85787295  0.41575856  0.00250531  1
  Mn  Mn137  1  0.60818794  0.41696396  0.37249004  1
  Mn  Mn138  1  0.64240113  0.58357174  0.99782530  1
  Mn  Mn139  1  0.35773086  0.41618707  0.00219663  1
  Mn  Mn140  1  0.60778389  0.08293708  0.62307183  1
  Mn  Mn141  1  0.10871860  0.41721460  0.12257919  1
  Mn  Mn142  1  0.10848832  0.74891728  0.37273289  1
  Mn  Mn143  1  0.10709351  0.41674045  0.87199823  1
  Fe  Fe144  1  0.85705989  0.41705475  0.75195912  1
  Fe  Fe145  1  0.35564575  0.08323259  0.25141558  1
  Fe  Fe146  1  0.89206593  0.58395015  0.62739148  1
  Fe  Fe147  1  0.89424003  0.91624853  0.12646602  1
  Fe  Fe148  1  0.89265011  0.24974427  0.62741632  1
  Fe  Fe149  1  0.89332625  0.24942430  0.87753937  1
  Fe  Fe150  1  0.35594609  0.74990021  0.25135355  1
  Fe  Fe151  1  0.14308322  0.91692650  0.49952155  1
  Fe  Fe152  1  0.35822491  0.75031651  0.75092539  1
  Fe  Fe153  1  0.10679054  0.08337961  0.87355995  1
  Fe  Fe154  1  0.14281437  0.58316744  0.24862558  1
  Fe  Fe155  1  0.35593144  0.08272001  0.00167518  1
  Fe  Fe156  1  0.64286122  0.58333281  0.24860632  1
  Fe  Fe157  1  0.35631422  0.08346100  0.75179024  1
  Fe  Fe158  1  0.39219590  0.58327504  0.37593249  1
  Fe  Fe159  1  0.35688711  0.08304871  0.50231492  1
  Fe  Fe160  1  0.14316431  0.25021451  0.24794802  1
  Fe  Fe161  1  0.89283493  0.91708069  0.87775022  1
  Fe  Fe162  1  0.85871683  0.08292154  0.75253050  1
  Fe  Fe163  1  0.39119212  0.91721079  0.12638639  1
  Fe  Fe164  1  0.85784529  0.41601646  0.50231499  1
  Fe  Fe165  1  0.60749837  0.75026356  0.62417318  1
  Fe  Fe166  1  0.39139597  0.24946584  0.12674022  1
  Fe  Fe167  1  0.10696984  0.08298484  0.62367814  1
  Fe  Fe168  1  0.89320465  0.58409070  0.12742633  1
  Fe  Fe169  1  0.64281052  0.91757579  0.99883434  1
  Fe  Fe170  1  0.85747381  0.75026294  0.75122185  1
  Fe  Fe171  1  0.85772782  0.08338670  0.00201207  1
  Fe  Fe172  1  0.39257313  0.91587045  0.62633459  1
  Fe  Fe173  1  0.14315592  0.24960201  0.99772283  1
  Fe  Fe174  1  0.64316026  0.58366162  0.74819064  1
  Fe  Fe175  1  0.10739220  0.74982007  0.62457614  1
  Fe  Fe176  1  0.85804496  0.08303922  0.50164579  1
  Fe  Fe177  1  0.64206448  0.24898784  0.99789954  1
  Fe  Fe178  1  0.14232152  0.25008225  0.74877119  1
  Fe  Fe179  1  0.14282307  0.91689826  0.99834283  1
  Fe  Fe180  1  0.39320936  0.58264334  0.87613637  1
  Fe  Fe181  1  0.89177977  0.58349252  0.87647375  1
  Fe  Fe182  1  0.10804608  0.74987933  0.12327208  1
  Fe  Fe183  1  0.39181340  0.25078528  0.87682826  1
  Fe  Fe184  1  0.64220424  0.91753534  0.49888906  1
  Fe  Fe185  1  0.35669012  0.75096025  0.00213436  1
  Fe  Fe186  1  0.10840081  0.08245136  0.12263099  1
  Fe  Fe187  1  0.35666831  0.41701588  0.25190276  1
  Fe  Fe188  1  0.89266149  0.58359435  0.37600874  1
  Fe  Fe189  1  0.39384305  0.58378352  0.62693179  1
  Fe  Fe190  1  0.14299849  0.91631511  0.24772086  1
  Fe  Fe191  1  0.60858515  0.41708603  0.62363098  1
  P  P192  1  0.05625705  0.24931611  0.11003742  1
  P  P193  1  0.05398965  0.25011059  0.35903926  1
  P  P194  1  0.05301312  0.24918157  0.61203103  1
  P  P195  1  0.05409794  0.24892011  0.86072878  1
  P  P196  1  0.05397616  0.58429020  0.11079535  1
  P  P197  1  0.05274877  0.58291252  0.35950219  1
  P  P198  1  0.05157252  0.58425390  0.61061759  1
  P  P199  1  0.05140718  0.58330560  0.85957027  1
  P  P200  1  0.05526339  0.91621348  0.11050893  1
  P  P201  1  0.05602164  0.91677730  0.36054098  1
  P  P202  1  0.05413507  0.91664031  0.61013835  1
  P  P203  1  0.05356382  0.91761297  0.86150304  1
  P  P204  1  0.55144518  0.24932860  0.10914616  1
  P  P205  1  0.55268709  0.24960239  0.35992562  1
  P  P206  1  0.55360647  0.25034679  0.61000462  1
  P  P207  1  0.55292846  0.24940138  0.86081752  1
  P  P208  1  0.55387199  0.58347972  0.11116836  1
  P  P209  1  0.55258592  0.58353677  0.35888530  1
  P  P210  1  0.55439448  0.58385249  0.61134799  1
  P  P211  1  0.55316834  0.58350721  0.85955447  1
  P  P212  1  0.55122420  0.91708507  0.10889785  1
  P  P213  1  0.55371308  0.91715197  0.36060020  1
  P  P214  1  0.55240292  0.91600989  0.60971560  1
  P  P215  1  0.55422201  0.91701510  0.86113990  1
  P  P216  1  0.44325202  0.08298626  0.13897609  1
  P  P217  1  0.44357303  0.08319214  0.38964066  1
  P  P218  1  0.44455438  0.08205761  0.63973663  1
  P  P219  1  0.44359047  0.08428273  0.88936365  1
  P  P220  1  0.44517102  0.41532438  0.14085473  1
  P  P221  1  0.44523751  0.41787838  0.38888469  1
  P  P222  1  0.44896658  0.41736139  0.64012517  1
  P  P223  1  0.44673688  0.41677720  0.88996183  1
  P  P224  1  0.44369334  0.75168606  0.13947404  1
  P  P225  1  0.44453032  0.74898313  0.38847002  1
  P  P226  1  0.44780812  0.75053135  0.64037682  1
  P  P227  1  0.44448497  0.74894966  0.88953309  1
  P  P228  1  0.94786667  0.08232437  0.13842740  1
  P  P229  1  0.94692035  0.08334274  0.39070371  1
  P  P230  1  0.94614768  0.08326418  0.63979303  1
  P  P231  1  0.94600281  0.08337835  0.88988526  1
  P  P232  1  0.94726899  0.41702999  0.13970259  1
  P  P233  1  0.94617112  0.41744233  0.39071863  1
  P  P234  1  0.94413166  0.41665965  0.63974699  1
  P  P235  1  0.94492677  0.41641517  0.88870910  1
  P  P236  1  0.94864045  0.75067986  0.13991766  1
  P  P237  1  0.94716636  0.74938515  0.39000879  1
  P  P238  1  0.94735855  0.74996570  0.64071821  1
  P  P239  1  0.94506294  0.75032508  0.88892761  1
  P  P240  1  0.19672999  0.08326254  0.23449675  1
  P  P241  1  0.19643697  0.08241342  0.48691064  1
  P  P242  1  0.19500349  0.08414371  0.73630423  1
  P  P243  1  0.19543405  0.08273171  0.98543370  1
  P  P244  1  0.19796038  0.41736735  0.23527499  1
  P  P245  1  0.19669584  0.41675442  0.48536881  1
  P  P246  1  0.19679749  0.41582160  0.73489973  1
  P  P247  1  0.19665612  0.41620310  0.98420985  1
  P  P248  1  0.19697284  0.74927182  0.23466464  1
  P  P249  1  0.19537290  0.75062906  0.48709063  1
  P  P250  1  0.19780938  0.74935423  0.73452670  1
  P  P251  1  0.19643656  0.75096606  0.98562644  1
  P  P252  1  0.69656647  0.08337854  0.23428558  1
  P  P253  1  0.69815979  0.08239188  0.48521871  1
  P  P254  1  0.69864015  0.08331946  0.73557478  1
  P  P255  1  0.69745704  0.08307060  0.98515637  1
  P  P256  1  0.69698352  0.41788136  0.23479058  1
  P  P257  1  0.69717800  0.41657240  0.48639676  1
  P  P258  1  0.69769535  0.41761417  0.73473818  1
  P  P259  1  0.69645543  0.41561703  0.98494640  1
  P  P260  1  0.69674384  0.74888571  0.23459644  1
  P  P261  1  0.69504554  0.75136851  0.48625223  1
  P  P262  1  0.69746575  0.74932975  0.73482750  1
  P  P263  1  0.69655267  0.75143797  0.98534360  1
  P  P264  1  0.30360094  0.24888553  0.01402557  1
  P  P265  1  0.30286337  0.24978468  0.26339344  1
  P  P266  1  0.30261752  0.24895180  0.51574042  1
  P  P267  1  0.30255005  0.24916711  0.76565826  1
  P  P268  1  0.30477200  0.58402716  0.01342863  1
  P  P269  1  0.30209375  0.58382909  0.26560554  1
  P  P270  1  0.30556508  0.58327071  0.51522647  1
  P  P271  1  0.30590025  0.58418037  0.76410110  1
  P  P272  1  0.30216167  0.91685760  0.01507041  1
  P  P273  1  0.30255316  0.91652438  0.26351724  1
  P  P274  1  0.30253741  0.91738882  0.51618926  1
  P  P275  1  0.30466627  0.91641162  0.76353718  1
  P  P276  1  0.80351873  0.24865242  0.01388359  1
  P  P277  1  0.80314950  0.25001493  0.26495188  1
  P  P278  1  0.80489358  0.24951955  0.51578547  1
  P  P279  1  0.80610060  0.24992362  0.76462006  1
  P  P280  1  0.80559114  0.58354514  0.01479749  1
  P  P281  1  0.80416823  0.58374849  0.26474827  1
  P  P282  1  0.80571965  0.58309540  0.51444529  1
  P  P283  1  0.80395190  0.58395599  0.76411739  1
  P  P284  1  0.80459802  0.91799395  0.01491494  1
  P  P285  1  0.80509003  0.91654062  0.26374836  1
  P  P286  1  0.80210491  0.91754349  0.51501726  1
  P  P287  1  0.80482346  0.91635800  0.76571999  1
  O  O288  1  0.06046530  0.25014793  0.18689194  1
  O  O289  1  0.05629873  0.24993112  0.43595621  1
  O  O290  1  0.05778016  0.24973309  0.68870009  1
  O  O291  1  0.05916344  0.24962349  0.93745260  1
  O  O292  1  0.05922352  0.58349161  0.18747542  1
  O  O293  1  0.05664222  0.58297590  0.43622465  1
  O  O294  1  0.05564805  0.58357983  0.68729180  1
  O  O295  1  0.05569354  0.58327638  0.93629564  1
  O  O296  1  0.05972209  0.91653656  0.18731537  1
  O  O297  1  0.06010007  0.91689804  0.43732500  1
  O  O298  1  0.05623075  0.91688245  0.68703519  1
  O  O299  1  0.05855483  0.91685633  0.93817316  1
  O  O300  1  0.55546033  0.24911021  0.18590100  1
  O  O301  1  0.55685230  0.24927408  0.43668695  1
  O  O302  1  0.55686065  0.24946777  0.68687021  1
  O  O303  1  0.55809415  0.24885579  0.93750768  1
  O  O304  1  0.55840613  0.58363599  0.18786465  1
  O  O305  1  0.55676846  0.58372500  0.43568431  1
  O  O306  1  0.55914115  0.58371601  0.68805801  1
  O  O307  1  0.55668705  0.58377061  0.93634589  1
  O  O308  1  0.55516249  0.91712143  0.18570210  1
  O  O309  1  0.55847144  0.91746877  0.43735136  1
  O  O310  1  0.55608683  0.91703520  0.68652611  1
  O  O311  1  0.55897602  0.91736294  0.93782992  1
  O  O312  1  0.43946409  0.08280685  0.06213900  1
  O  O313  1  0.43881814  0.08299750  0.31282016  1
  O  O314  1  0.44066584  0.08292748  0.56289319  1
  O  O315  1  0.43969132  0.08346643  0.81254993  1
  O  O316  1  0.44255766  0.41624535  0.06400940  1
  O  O317  1  0.44030311  0.41679054  0.31213694  1
  O  O318  1  0.44515577  0.41662358  0.56339753  1
  O  O319  1  0.44442717  0.41647548  0.81315053  1
  O  O320  1  0.43990514  0.75109666  0.06261721  1
  O  O321  1  0.43972574  0.75000764  0.31173329  1
  O  O322  1  0.44461017  0.75068752  0.56358049  1
  O  O323  1  0.44111862  0.75037601  0.81271840  1
  O  O324  1  0.94278184  0.08321816  0.06178408  1
  O  O325  1  0.94430297  0.08308159  0.31383145  1
  O  O326  1  0.94161235  0.08264101  0.56307035  1
  O  O327  1  0.94191881  0.08322271  0.81308137  1
  O  O328  1  0.94409416  0.41600775  0.06289360  1
  O  O329  1  0.94388696  0.41658260  0.31385430  1
  O  O330  1  0.94096170  0.41641195  0.56287451  1
  O  O331  1  0.94104041  0.41657836  0.81189868  1
  O  O332  1  0.94489931  0.75082098  0.06318132  1
  O  O333  1  0.94430311  0.75037498  0.31324831  1
  O  O334  1  0.94401602  0.75063585  0.56396642  1
  O  O335  1  0.94106252  0.75043922  0.81217878  1
  O  O336  1  0.19153557  0.08269029  0.06221812  1
  O  O337  1  0.19400509  0.08329817  0.31128434  1
  O  O338  1  0.19165023  0.08332631  0.56361708  1
  O  O339  1  0.19045909  0.08333671  0.81302636  1
  O  O340  1  0.19394641  0.41723198  0.06104083  1
  O  O341  1  0.19448943  0.41739021  0.31197900  1
  O  O342  1  0.19284507  0.41714243  0.56215629  1
  O  O343  1  0.19342787  0.41670169  0.81169212  1
  O  O344  1  0.19170355  0.75001272  0.06231406  1
  O  O345  1  0.19400954  0.74905654  0.31147961  1
  O  O346  1  0.19096205  0.74934720  0.56381600  1
  O  O347  1  0.19378802  0.74924519  0.81130855  1
  O  O348  1  0.69332780  0.08315279  0.06182511  1
  O  O349  1  0.69313589  0.08325605  0.31107506  1
  O  O350  1  0.69435189  0.08293490  0.56196462  1
  O  O351  1  0.69392733  0.08342750  0.81219607  1
  O  O352  1  0.69320738  0.41618017  0.06173607  1
  O  O353  1  0.69447440  0.41724768  0.31168527  1
  O  O354  1  0.69209248  0.41702257  0.56309914  1
  O  O355  1  0.69387276  0.41707370  0.81147889  1
  O  O356  1  0.69303213  0.75080725  0.06210123  1
  O  O357  1  0.69380186  0.74952742  0.31145382  1
  O  O358  1  0.69080150  0.75052479  0.56303656  1
  O  O359  1  0.69371293  0.74969834  0.81154981  1
  O  O360  1  0.30682470  0.24994741  0.18666226  1
  O  O361  1  0.30538745  0.24996342  0.43889448  1
  O  O362  1  0.30637297  0.25009591  0.68892808  1
  O  O363  1  0.30803609  0.24996159  0.93732365  1
  O  O364  1  0.30521267  0.58374786  0.18879537  1
  O  O365  1  0.30929486  0.58336782  0.43844091  1
  O  O366  1  0.31033215  0.58333510  0.68727884  1
  O  O367  1  0.30896126  0.58303416  0.93668327  1
  O  O368  1  0.30664918  0.91660399  0.18685020  1
  O  O369  1  0.30537133  0.91624892  0.43938232  1
  O  O370  1  0.30847759  0.91606029  0.68682694  1
  O  O371  1  0.30534006  0.91665377  0.93828227  1
  O  O372  1  0.80672886  0.24981560  0.18813650  1
  O  O373  1  0.80720063  0.24976414  0.43896338  1
  O  O374  1  0.80971875  0.24948665  0.68776400  1
  O  O375  1  0.80874520  0.24935067  0.93721101  1
  O  O376  1  0.80924215  0.58412556  0.18796364  1
  O  O377  1  0.80961595  0.58384825  0.43764428  1
  O  O378  1  0.80823787  0.58423098  0.68732284  1
  O  O379  1  0.80958122  0.58369802  0.93791173  1
  O  O380  1  0.81032426  0.91638206  0.18699478  1
  O  O381  1  0.80585511  0.91663184  0.43830570  1
  O  O382  1  0.80749874  0.91645494  0.68890525  1
  O  O383  1  0.80929125  0.91702682  0.93817094  1
  O  O384  1  0.23314042  0.24948894  0.03754750  1
  O  O385  1  0.23267413  0.24936485  0.28800668  1
  O  O386  1  0.23304442  0.24912964  0.54119201  1
  O  O387  1  0.23238769  0.24912682  0.79000065  1
  O  O388  1  0.23473853  0.58383474  0.03769772  1
  O  O389  1  0.23212860  0.58374775  0.29078494  1
  O  O390  1  0.23546982  0.58349926  0.53943786  1
  O  O391  1  0.23576044  0.58349509  0.78819413  1
  O  O392  1  0.23215126  0.91728338  0.03981754  1
  O  O393  1  0.23230398  0.91630902  0.28791119  1
  O  O394  1  0.23270001  0.91705829  0.54139319  1
  O  O395  1  0.23466457  0.91649823  0.78816295  1
  O  O396  1  0.73310182  0.24884487  0.03742283  1
  O  O397  1  0.73354665  0.25006625  0.29020426  1
  O  O398  1  0.73533259  0.24950860  0.54161967  1
  O  O399  1  0.73600265  0.24992507  0.78896029  1
  O  O400  1  0.73538388  0.58363442  0.03841028  1
  O  O401  1  0.73394812  0.58338223  0.28875829  1
  O  O402  1  0.73554599  0.58374314  0.53837811  1
  O  O403  1  0.73359377  0.58367293  0.78823186  1
  O  O404  1  0.73418948  0.91756306  0.03857029  1
  O  O405  1  0.73481463  0.91665272  0.28706159  1
  O  O406  1  0.73228281  0.91742900  0.54027419  1
  O  O407  1  0.73504343  0.91665677  0.79092567  1
  O  O408  1  0.26672337  0.08350572  0.20945509  1
  O  O409  1  0.26656333  0.08245576  0.46258037  1
  O  O410  1  0.26553197  0.08354345  0.71296169  1
  O  O411  1  0.26577868  0.08264732  0.96147466  1
  O  O412  1  0.26788925  0.41722816  0.21004128  1
  O  O413  1  0.26646692  0.41628139  0.46067558  1
  O  O414  1  0.26660511  0.41614851  0.70997319  1
  O  O415  1  0.26631225  0.41587318  0.95896855  1
  O  O416  1  0.26697230  0.74982309  0.20972470  1
  O  O417  1  0.26542252  0.75053580  0.46293927  1
  O  O418  1  0.26798266  0.74998180  0.71040264  1
  O  O419  1  0.26678455  0.75077053  0.96189423  1
  O  O420  1  0.76639597  0.08339803  0.20944690  1
  O  O421  1  0.76819000  0.08297398  0.46047838  1
  O  O422  1  0.76907947  0.08298323  0.71214976  1
  O  O423  1  0.76760097  0.08308177  0.96072382  1
  O  O424  1  0.76642865  0.41714116  0.20887630  1
  O  O425  1  0.76766435  0.41635920  0.46310100  1
  O  O426  1  0.76797127  0.41727674  0.71073039  1
  O  O427  1  0.76618324  0.41624878  0.95987882  1
  O  O428  1  0.76633536  0.74983886  0.20914566  1
  O  O429  1  0.76509064  0.75064246  0.46200518  1
  O  O430  1  0.76761593  0.75012338  0.71032299  1
  O  O431  1  0.76641621  0.75076152  0.96069848  1
  O  O432  1  0.01833200  0.08245314  0.16197427  1
  O  O433  1  0.01659291  0.08383333  0.41592666  1
  O  O434  1  0.01653012  0.08273846  0.66367356  1
  O  O435  1  0.01640704  0.08331698  0.91370139  1
  O  O436  1  0.01698647  0.41725506  0.16476751  1
  O  O437  1  0.01564487  0.41678852  0.41670115  1
  O  O438  1  0.01405411  0.41672988  0.66461326  1
  O  O439  1  0.01485356  0.41647982  0.91339910  1
  O  O440  1  0.01862448  0.75056047  0.16474488  1
  O  O441  1  0.01683069  0.74880343  0.41522656  1
  O  O442  1  0.01736123  0.75060265  0.66574396  1
  O  O443  1  0.01508383  0.74987388  0.91340562  1
  O  O444  1  0.51322908  0.08299738  0.16356506  1
  O  O445  1  0.51376259  0.08327294  0.41333597  1
  O  O446  1  0.51458810  0.08294583  0.66424445  1
  O  O447  1  0.51365323  0.08349985  0.91358711  1
  O  O448  1  0.51483709  0.41587197  0.16612459  1
  O  O449  1  0.51534448  0.41784539  0.41287079  1
  O  O450  1  0.51898935  0.41706062  0.66491921  1
  O  O451  1  0.51612969  0.41665142  0.91605387  1
  O  O452  1  0.51369686  0.75073855  0.16382621  1
  O  O453  1  0.51462065  0.74939184  0.41239448  1
  O  O454  1  0.51778039  0.75025004  0.66549060  1
  O  O455  1  0.51443493  0.74980312  0.91418450  1
  O  O456  1  0.48112170  0.24944310  0.08529100  1
  O  O457  1  0.48272152  0.24956448  0.33562612  1
  O  O458  1  0.48387482  0.25026587  0.58483197  1
  O  O459  1  0.48250276  0.24999657  0.83734503  1
  O  O460  1  0.48361362  0.58344950  0.08752097  1
  O  O461  1  0.48239515  0.58350257  0.33477806  1
  O  O462  1  0.48400978  0.58410290  0.58738132  1
  O  O463  1  0.48308380  0.58325959  0.83515425  1
  O  O464  1  0.48102783  0.91715992  0.08472312  1
  O  O465  1  0.48345696  0.91685260  0.33700213  1
  O  O466  1  0.48232962  0.91618329  0.58497832  1
  O  O467  1  0.48391717  0.91674794  0.83774474  1
  O  O468  1  0.98612111  0.24976432  0.08602661  1
  O  O469  1  0.98449171  0.24978268  0.33333522  1
  O  O470  1  0.98260627  0.24971669  0.58834541  1
  O  O471  1  0.98355843  0.24915236  0.83762759  1
  O  O472  1  0.98350319  0.58391136  0.08734369  1
  O  O473  1  0.98261467  0.58358675  0.33519086  1
  O  O474  1  0.98136666  0.58363631  0.58643305  1
  O  O475  1  0.98118812  0.58362181  0.83563508  1
  O  O476  1  0.98489462  0.91627042  0.08659948  1
  O  O477  1  0.98597310  0.91694815  0.33639738  1
  O  O478  1  0.98464594  0.91626221  0.58422892  1
  O  O479  1  0.98316104  0.91762105  0.83798454  1
  O  O480  1  0.09015842  0.31415421  0.07669020  1
  O  O481  1  0.08841115  0.31524141  0.32694728  1
  O  O482  1  0.08633350  0.31408272  0.57836552  1
  O  O483  1  0.08738932  0.31374401  0.82673824  1
  O  O484  1  0.08687873  0.64967593  0.07751154  1
  O  O485  1  0.08718610  0.64757999  0.32653167  1
  O  O486  1  0.08500232  0.64957826  0.57801766  1
  O  O487  1  0.08536689  0.64824705  0.82679234  1
  O  O488  1  0.08874946  0.98117785  0.07701015  1
  O  O489  1  0.08982557  0.98167130  0.32728029  1
  O  O490  1  0.08840459  0.98188819  0.57797045  1
  O  O491  1  0.08684944  0.98271207  0.82832897  1
  O  O492  1  0.58548279  0.31433442  0.07646623  1
  O  O493  1  0.58630954  0.31499629  0.32743022  1
  O  O494  1  0.58781323  0.31558377  0.57811343  1
  O  O495  1  0.58668287  0.31443904  0.82782894  1
  O  O496  1  0.58706626  0.64856391  0.07765110  1
  O  O497  1  0.58647092  0.64844602  0.32582053  1
  O  O498  1  0.58753284  0.64913338  0.57815116  1
  O  O499  1  0.58697787  0.64853440  0.82658116  1
  O  O500  1  0.58524668  0.98205171  0.07600109  1
  O  O501  1  0.58684235  0.98220480  0.32709618  1
  O  O502  1  0.58645088  0.98099598  0.57660469  1
  O  O503  1  0.58725925  0.98201151  0.82739193  1
  O  O504  1  0.40944561  0.01791078  0.17207847  1
  O  O505  1  0.41001503  0.01815395  0.42298667  1
  O  O506  1  0.41117976  0.01658420  0.67226704  1
  O  O507  1  0.40943048  0.01947589  0.92271202  1
  O  O508  1  0.41106832  0.34997473  0.17268719  1
  O  O509  1  0.41192033  0.35277426  0.42250978  1
  O  O510  1  0.41486942  0.35237742  0.67305230  1
  O  O511  1  0.41212109  0.35168646  0.92200092  1
  O  O512  1  0.40939667  0.68689813  0.17259842  1
  O  O513  1  0.41138581  0.68368831  0.42140040  1
  O  O514  1  0.41348353  0.68555877  0.67283302  1
  O  O515  1  0.41117534  0.68339911  0.92177360  1
  O  O516  1  0.91478118  0.01713038  0.17164094  1
  O  O517  1  0.91284890  0.01829807  0.42342195  1
  O  O518  1  0.91258648  0.01828155  0.67326363  1
  O  O519  1  0.91241066  0.01842282  0.92317598  1
  O  O520  1  0.91348161  0.35186691  0.17240019  1
  O  O521  1  0.91134355  0.35261268  0.42315754  1
  O  O522  1  0.91031086  0.35168319  0.67272949  1
  O  O523  1  0.91163882  0.35093736  0.92163239  1
  O  O524  1  0.91455138  0.68557773  0.17240406  1
  O  O525  1  0.91251178  0.68443082  0.42182385  1
  O  O526  1  0.91321387  0.68487455  0.67315432  1
  O  O527  1  0.91122543  0.68529631  0.92172434  1
  O  O528  1  0.16291542  0.01804016  0.20182604  1
  O  O529  1  0.16309984  0.01714216  0.45400688  1
  O  O530  1  0.16151167  0.01928153  0.70259946  1
  O  O531  1  0.16190988  0.01771578  0.95219098  1
  O  O532  1  0.16398591  0.35228695  0.20265602  1
  O  O533  1  0.16245708  0.35168971  0.45304087  1
  O  O534  1  0.16282085  0.35038993  0.70305329  1
  O  O535  1  0.16226182  0.35092115  0.95257369  1
  O  O536  1  0.16321406  0.68415104  0.20184726  1
  O  O537  1  0.16199447  0.68565707  0.45338724  1
  O  O538  1  0.16409715  0.68436419  0.70148976  1
  O  O539  1  0.16311543  0.68610585  0.95176389  1
  O  O540  1  0.66253313  0.01832712  0.20156943  1
  O  O541  1  0.66427239  0.01726517  0.45263547  1
  O  O542  1  0.66493814  0.01832038  0.70248482  1
  O  O543  1  0.66377111  0.01780545  0.95242537  1
  O  O544  1  0.66219649  0.35295775  0.20255599  1
  O  O545  1  0.66386526  0.35149637  0.45315312  1
  O  O546  1  0.66387979  0.35256474  0.70175065  1
  O  O547  1  0.66275691  0.35022296  0.95259689  1
  O  O548  1  0.66296593  0.68343014  0.20260581  1
  O  O549  1  0.66130094  0.68637333  0.45293541  1
  O  O550  1  0.66380910  0.68424604  0.70187830  1
  O  O551  1  0.66245428  0.68642712  0.95253182  1
  O  O552  1  0.33738437  0.31347148  0.04784573  1
  O  O553  1  0.33606259  0.31497174  0.29671780  1
  O  O554  1  0.33693155  0.31395008  0.54838505  1
  O  O555  1  0.33654431  0.31417799  0.79869251  1
  O  O556  1  0.33816912  0.64932518  0.04622427  1
  O  O557  1  0.33611769  0.64902147  0.29802825  1
  O  O558  1  0.33955505  0.64823799  0.54821953  1
  O  O559  1  0.33918072  0.64957611  0.79674208  1
  O  O560  1  0.33635168  0.98186646  0.04755599  1
  O  O561  1  0.33571338  0.98177622  0.29670719  1
  O  O562  1  0.33678640  0.98241982  0.54830924  1
  O  O563  1  0.33809748  0.98167402  0.79644801  1
  O  O564  1  0.83684992  0.31361350  0.04756216  1
  O  O565  1  0.83728745  0.31518081  0.29725495  1
  O  O566  1  0.83932422  0.31454234  0.54813917  1
  O  O567  1  0.83961500  0.31527232  0.79729747  1
  O  O568  1  0.83928446  0.64852094  0.04810454  1
  O  O569  1  0.83763261  0.64875423  0.29820101  1
  O  O570  1  0.83957479  0.64795254  0.54796175  1
  O  O571  1  0.83733032  0.64907950  0.79736804  1
  O  O572  1  0.83813640  0.98320793  0.04775557  1
  O  O573  1  0.83854645  0.98162258  0.29694840  1
  O  O574  1  0.83639231  0.98257799  0.54732834  1
  O  O575  1  0.83935600  0.98129912  0.79821504  1
  O  O576  1  0.40947092  0.14820506  0.17178843  1
  O  O577  1  0.40986913  0.14809842  0.42293697  1
  O  O578  1  0.41016082  0.14673925  0.67300798  1
  O  O579  1  0.41012646  0.14953228  0.92209395  1
  O  O580  1  0.41054454  0.48019871  0.17347311  1
  O  O581  1  0.41189667  0.48320136  0.42157280  1
  O  O582  1  0.41509653  0.48248646  0.67251782  1
  O  O583  1  0.41254435  0.48209973  0.92187871  1
  O  O584  1  0.41043149  0.81708437  0.17225248  1
  O  O585  1  0.41104595  0.81396368  0.42216492  1
  O  O586  1  0.41368187  0.81557087  0.67303740  1
  O  O587  1  0.41004180  0.81360240  0.92295906  1
  O  O588  1  0.91476114  0.14740459  0.17212916  1
  O  O589  1  0.91229463  0.14823413  0.42288980  1
  O  O590  1  0.91286968  0.14832254  0.67318193  1
  O  O591  1  0.91262742  0.14851796  0.92314745  1
  O  O592  1  0.91300913  0.48220573  0.17167387  1
  O  O593  1  0.91191891  0.48282134  0.42237154  1
  O  O594  1  0.91018272  0.48191662  0.67225201  1
  O  O595  1  0.91120224  0.48155115  0.92139624  1
  O  O596  1  0.91491396  0.81581095  0.17263868  1
  O  O597  1  0.91358565  0.81461302  0.42302817  1
  O  O598  1  0.91291773  0.81477822  0.67345462  1
  O  O599  1  0.91205237  0.81579166  0.92216219  1
  O  O600  1  0.08965183  0.18398480  0.07722927  1
  O  O601  1  0.08879501  0.18526910  0.32685998  1
  O  O602  1  0.08591781  0.18382434  0.57871046  1
  O  O603  1  0.08721739  0.18367068  0.82758347  1
  O  O604  1  0.08727180  0.51938337  0.07696744  1
  O  O605  1  0.08620438  0.51772211  0.32647111  1
  O  O606  1  0.08537431  0.51933388  0.57741683  1
  O  O607  1  0.08486515  0.51821822  0.82653034  1
  O  O608  1  0.08868322  0.85105051  0.07739324  1
  O  O609  1  0.08968876  0.85168137  0.32743843  1
  O  O610  1  0.08892907  0.85165105  0.57835578  1
  O  O611  1  0.08676999  0.85260238  0.82776730  1
  O  O612  1  0.58507713  0.18430003  0.07591867  1
  O  O613  1  0.58630435  0.18460548  0.32685588  1
  O  O614  1  0.58747113  0.18502049  0.57748333  1
  O  O615  1  0.58586234  0.18438935  0.82695007  1
  O  O616  1  0.58718057  0.51828902  0.07799581  1
  O  O617  1  0.58669478  0.51855278  0.32623614  1
  O  O618  1  0.58753919  0.51869315  0.57785053  1
  O  O619  1  0.58738330  0.51856813  0.82690448  1
  O  O620  1  0.58531913  0.85211275  0.07622286  1
  O  O621  1  0.58708540  0.85197840  0.32740883  1
  O  O622  1  0.58643878  0.85080922  0.57752195  1
  O  O623  1  0.58751885  0.85184918  0.82794024  1
  O  O624  1  0.33640376  0.18340810  0.04706087  1
  O  O625  1  0.33639776  0.18463252  0.29631834  1
  O  O626  1  0.33681245  0.18374981  0.54761110  1
  O  O627  1  0.33651069  0.18411485  0.79813688  1
  O  O628  1  0.33830780  0.51911757  0.04701170  1
  O  O629  1  0.33648856  0.51886674  0.29804373  1
  O  O630  1  0.33935586  0.51830242  0.54833869  1
  O  O631  1  0.33992789  0.51933212  0.79742841  1
  O  O632  1  0.33607110  0.85190357  0.04792191  1
  O  O633  1  0.33593132  0.85145136  0.29687439  1
  O  O634  1  0.33702632  0.85258707  0.54905668  1
  O  O635  1  0.33825618  0.85134843  0.79666380  1
  O  O636  1  0.83696130  0.18349834  0.04707272  1
  O  O637  1  0.83747088  0.18500673  0.29731405  1
  O  O638  1  0.83934981  0.18430057  0.54784311  1
  O  O639  1  0.83995452  0.18494305  0.79772992  1
  O  O640  1  0.83918473  0.51851805  0.04785473  1
  O  O641  1  0.83808100  0.51878920  0.29777684  1
  O  O642  1  0.83901193  0.51783003  0.54736083  1
  O  O643  1  0.83752780  0.51881708  0.79724834  1
  O  O644  1  0.83833747  0.85319026  0.04862554  1
  O  O645  1  0.83821444  0.85143287  0.29735182  1
  O  O646  1  0.83611066  0.85254891  0.54801671  1
  O  O647  1  0.83877150  0.85103197  0.79798013  1
  O  O648  1  0.16249598  0.14811044  0.20183895  1
  O  O649  1  0.16302641  0.14734032  0.45320117  1
  O  O650  1  0.16187367  0.14930984  0.70301159  1
  O  O651  1  0.16196872  0.14788146  0.95230927  1
  O  O652  1  0.16422637  0.48261981  0.20254871  1
  O  O653  1  0.16304577  0.48199373  0.45261327  1
  O  O654  1  0.16266292  0.48083712  0.70220693  1
  O  O655  1  0.16270504  0.48126184  0.95145552  1
  O  O656  1  0.16264009  0.81424310  0.20216398  1
  O  O657  1  0.16207935  0.81606494  0.45450394  1
  O  O658  1  0.16340505  0.81429020  0.70211778  1
  O  O659  1  0.16328023  0.81636525  0.95271084  1
  O  O660  1  0.66242388  0.14844181  0.20180039  1
  O  O661  1  0.66413390  0.14744453  0.45239728  1
  O  O662  1  0.66534357  0.14835760  0.70226578  1
  O  O663  1  0.66360578  0.14810917  0.95210070  1
  O  O664  1  0.66293841  0.48326572  0.20290059  1
  O  O665  1  0.66416803  0.48167097  0.45268552  1
  O  O666  1  0.66405070  0.48272557  0.70184905  1
  O  O667  1  0.66234499  0.48077449  0.95244013  1
  O  O668  1  0.66196468  0.81372500  0.20219625  1
  O  O669  1  0.66173850  0.81677896  0.45356960  1
  O  O670  1  0.66308565  0.81423124  0.70203753  1
  O  O671  1  0.66299716  0.81687396  0.95299798  1
