# generated using pymatgen
data_Na2MnFe(PO4)2
_symmetry_space_group_name_H-M   'P 1'
_cell_length_a   21.09230799
_cell_length_b   18.94582539
_cell_length_c   20.05028565
_cell_angle_alpha   89.99955429
_cell_angle_beta   89.99779498
_cell_angle_gamma   90.00042914
_symmetry_Int_Tables_number   1
_chemical_formula_structural   Na2MnFe(PO4)2
_chemical_formula_sum   'Na96 Mn48 Fe48 P96 O384'
_cell_volume   8012.31838696
_cell_formula_units_Z   48
loop_
 _symmetry_equiv_pos_site_id
 _symmetry_equiv_pos_as_xyz
  1  'x, y, z'
loop_
 _atom_site_type_symbol
 _atom_site_label
 _atom_site_symmetry_multiplicity
 _atom_site_fract_x
 _atom_site_fract_y
 _atom_site_fract_z
 _atom_site_occupancy
  Na  Na0  1  -0.00086012  -0.00058584  -0.00036962  1
  Na  Na1  1  0.00042096  -0.00070859  0.25017335  1
  Na  Na2  1  0.00145709  -0.00029461  0.50059839  1
  Na  Na3  1  0.00093038  -0.00021368  0.74955457  1
  Na  Na4  1  -0.00123675  0.33395382  -0.00055039  1
  Na  Na5  1  -0.00095378  0.33341157  0.24928128  1
  Na  Na6  1  -0.00119550  0.33364035  0.50027688  1
  Na  Na7  1  -0.00327761  0.33294946  0.75038380  1
  Na  Na8  1  0.00131041  0.66685944  0.00129019  1
  Na  Na9  1  0.00026283  0.66703172  0.24992971  1
  Na  Na10  1  0.00197569  0.66753277  0.49964146  1
  Na  Na11  1  0.00323024  0.66740109  0.74988077  1
  Na  Na12  1  0.50075959  -0.00033521  0.00099102  1
  Na  Na13  1  0.50177492  -0.00008957  0.24836110  1
  Na  Na14  1  0.50104043  0.00015961  0.49979899  1
  Na  Na15  1  0.49975175  -0.00022839  0.75046421  1
  Na  Na16  1  0.49711537  0.33334043  -0.00053762  1
  Na  Na17  1  0.49824057  0.33347867  0.24961542  1
  Na  Na18  1  0.49998417  0.33429104  0.49945506  1
  Na  Na19  1  0.49725793  0.33258148  0.75107533  1
  Na  Na20  1  0.50331734  0.66773840  -0.00029524  1
  Na  Na21  1  0.50167291  0.66712705  0.25093611  1
  Na  Na22  1  0.50039710  0.66733030  0.50055292  1
  Na  Na23  1  0.50041891  0.66646856  0.74984846  1
  Na  Na24  1  0.25134995  -0.00016840  0.12453213  1
  Na  Na25  1  0.24904911  -0.00124451  0.37497475  1
  Na  Na26  1  0.24822929  -0.00149975  0.62399021  1
  Na  Na27  1  0.25077404  -0.00043224  0.87525515  1
  Na  Na28  1  0.25171771  0.33419916  0.12485600  1
  Na  Na29  1  0.25116673  0.33334930  0.37437337  1
  Na  Na30  1  0.25219614  0.33410473  0.62508741  1
  Na  Na31  1  0.25188291  0.33371450  0.87516504  1
  Na  Na32  1  0.24978139  0.66690324  0.12537610  1
  Na  Na33  1  0.24933313  0.66665264  0.37510117  1
  Na  Na34  1  0.25021480  0.66758421  0.62504170  1
  Na  Na35  1  0.24855004  0.66619494  0.87516636  1
  Na  Na36  1  0.74804479  -0.00116090  0.12590655  1
  Na  Na37  1  0.74931759  -0.00096350  0.37453484  1
  Na  Na38  1  0.75130653  0.00057709  0.62490050  1
  Na  Na39  1  0.74964282  0.00010614  0.87470218  1
  Na  Na40  1  0.75096227  0.33391479  0.12539042  1
  Na  Na41  1  0.74982406  0.33357865  0.37489621  1
  Na  Na42  1  0.75087291  0.33351949  0.62419327  1
  Na  Na43  1  0.75316430  0.33465535  0.87526937  1
  Na  Na44  1  0.74872571  0.66732653  0.12517191  1
  Na  Na45  1  0.74675492  0.66616592  0.37471707  1
  Na  Na46  1  0.74710693  0.66611130  0.62530249  1
  Na  Na47  1  0.74647245  0.66568521  0.87548565  1
  Na  Na48  1  -0.00199585  0.16750597  -0.00065221  1
  Na  Na49  1  -0.00176308  0.16752504  0.24980995  1
  Na  Na50  1  -0.00253196  0.16778069  0.49998334  1
  Na  Na51  1  -0.00236060  0.16769974  0.75044769  1
  Na  Na52  1  0.00022851  0.49982302  0.00008194  1
  Na  Na53  1  0.00305493  0.49855697  0.24925149  1
  Na  Na54  1  0.00126243  0.50003395  0.50059373  1
  Na  Na55  1  0.00064976  0.49953177  0.75009786  1
  Na  Na56  1  0.00026592  0.83328526  0.00080664  1
  Na  Na57  1  -0.00158473  0.83411837  0.25052649  1
  Na  Na58  1  0.00207986  0.83287668  0.49965464  1
  Na  Na59  1  0.00294845  0.83263695  0.74956110  1
  Na  Na60  1  0.49836747  0.16743264  0.00020271  1
  Na  Na61  1  0.49933219  0.16675908  0.24906134  1
  Na  Na62  1  0.49900749  0.16744041  0.49993167  1
  Na  Na63  1  0.49858397  0.16714475  0.75030741  1
  Na  Na64  1  0.50051520  0.49982705  0.00001889  1
  Na  Na65  1  0.50235726  0.49933353  0.24988678  1
  Na  Na66  1  0.50243103  0.49926264  0.49964799  1
  Na  Na67  1  0.50153099  0.49951734  0.75112369  1
  Na  Na68  1  0.50109705  0.83295067  -0.00002971  1
  Na  Na69  1  0.50117501  0.83241847  0.24999684  1
  Na  Na70  1  0.49851077  0.83317947  0.49985251  1
  Na  Na71  1  0.49841274  0.83327868  0.75034828  1
  Na  Na72  1  0.25264421  0.16661310  0.12514113  1
  Na  Na73  1  0.25150636  0.16709080  0.37454127  1
  Na  Na74  1  0.25204559  0.16688035  0.62490542  1
  Na  Na75  1  0.25274220  0.16652018  0.87434193  1
  Na  Na76  1  0.24897864  0.49944640  0.12518118  1
  Na  Na77  1  0.24848826  0.49983652  0.37435483  1
  Na  Na78  1  0.24907569  0.50011404  0.62489225  1
  Na  Na79  1  0.24998960  0.49905092  0.87542754  1
  Na  Na80  1  0.25059551  0.83330598  0.12486728  1
  Na  Na81  1  0.25071355  0.83265791  0.37549660  1
  Na  Na82  1  0.24885539  0.83326059  0.62470793  1
  Na  Na83  1  0.24996664  0.83289825  0.87545539  1
  Na  Na84  1  0.75202932  0.16592232  0.12540481  1
  Na  Na85  1  0.75030855  0.16729431  0.37432337  1
  Na  Na86  1  0.75194343  0.16645043  0.62502516  1
  Na  Na87  1  0.75096065  0.16702320  0.87465613  1
  Na  Na88  1  0.74645550  0.50088214  0.12549767  1
  Na  Na89  1  0.74589438  0.50089104  0.37495709  1
  Na  Na90  1  0.74783201  0.50009072  0.62432077  1
  Na  Na91  1  0.74925360  0.49964594  0.87556064  1
  Na  Na92  1  0.74923427  0.83335379  0.12562968  1
  Na  Na93  1  0.74991083  0.83313830  0.37480223  1
  Na  Na94  1  0.74973165  0.83309682  0.62491081  1
  Na  Na95  1  0.74883613  0.83369046  0.87552785  1
  Mn  Mn96  1  0.64186038  0.25009918  0.24746530  1
  Mn  Mn97  1  0.64250887  0.24989486  0.99765456  1
  Mn  Mn98  1  0.89271459  0.91609879  0.87692538  1
  Mn  Mn99  1  0.85815736  0.74944933  0.75247901  1
  Mn  Mn100  1  0.10773586  0.08410998  0.12259748  1
  Mn  Mn101  1  0.89220244  0.58342122  0.37683233  1
  Mn  Mn102  1  0.39237831  0.58241179  0.62755686  1
  Mn  Mn103  1  0.10769578  0.08389902  0.37234528  1
  Mn  Mn104  1  0.10825357  0.08397573  0.87253408  1
  Mn  Mn105  1  0.14207984  0.58315630  0.49732736  1
  Mn  Mn106  1  0.64258519  0.25054171  0.74813926  1
  Mn  Mn107  1  0.89166658  0.58346674  0.12776407  1
  Mn  Mn108  1  0.60772246  0.08408205  0.12197136  1
  Mn  Mn109  1  0.64193169  0.91685039  0.74771091  1
  Mn  Mn110  1  0.35842663  0.08254110  0.50174901  1
  Mn  Mn111  1  0.85761284  0.74930859  0.50173464  1
  Mn  Mn112  1  0.10760391  0.41606190  0.62347997  1
  Mn  Mn113  1  0.10733724  0.75012560  0.12382093  1
  Mn  Mn114  1  0.35835811  0.74930881  0.00225945  1
  Mn  Mn115  1  0.14290571  0.24953100  0.99786244  1
  Mn  Mn116  1  0.89337937  0.91646618  0.62725684  1
  Mn  Mn117  1  0.35844494  0.41752870  0.50203832  1
  Mn  Mn118  1  0.85712493  0.41781212  0.50133984  1
  Mn  Mn119  1  0.60694610  0.74989305  0.62295215  1
  Mn  Mn120  1  0.85739538  0.08290740  0.00232757  1
  Mn  Mn121  1  0.85721155  0.41810662  0.25229485  1
  Mn  Mn122  1  0.39323302  0.91605994  0.12757405  1
  Mn  Mn123  1  0.85704635  0.74965475  0.00164695  1
  Mn  Mn124  1  0.10767018  0.08398889  0.62299093  1
  Mn  Mn125  1  0.14222435  0.24962649  0.49793606  1
  Mn  Mn126  1  0.89237039  0.58369079  0.87680746  1
  Mn  Mn127  1  0.89182445  0.58368426  0.62735540  1
  Mn  Mn128  1  0.39248568  0.58357931  0.87737310  1
  Mn  Mn129  1  0.64190753  0.25003360  0.49759782  1
  Mn  Mn130  1  0.35829778  0.08267570  0.25304167  1
  Mn  Mn131  1  0.39132832  0.91717886  0.62743468  1
  Mn  Mn132  1  0.60753919  0.41582018  0.87274302  1
  Mn  Mn133  1  0.60821413  0.08412869  0.62275033  1
  Mn  Mn134  1  0.14268912  0.24996332  0.74776762  1
  Mn  Mn135  1  0.64176383  0.91638259  0.49736440  1
  Mn  Mn136  1  0.39310632  0.58336084  0.12747101  1
  Mn  Mn137  1  0.14249863  0.24970689  0.24746722  1
  Mn  Mn138  1  0.85766365  0.08254394  0.25264654  1
  Mn  Mn139  1  0.39275406  0.58353583  0.37695227  1
  Mn  Mn140  1  0.14238381  0.91727945  0.99822989  1
  Mn  Mn141  1  0.35818304  0.08262210  0.75263734  1
  Mn  Mn142  1  0.85789307  0.08296384  0.50163826  1
  Mn  Mn143  1  0.14209144  0.58304804  0.99772120  1
  Fe  Fe144  1  0.10824070  0.74966136  0.87313663  1
  Fe  Fe145  1  0.35635960  0.74944648  0.75186183  1
  Fe  Fe146  1  0.85616110  0.74972813  0.25204961  1
  Fe  Fe147  1  0.60670765  0.75089553  0.37309448  1
  Fe  Fe148  1  0.10837256  0.74976940  0.62292191  1
  Fe  Fe149  1  0.64245281  0.58281550  0.74829295  1
  Fe  Fe150  1  0.39326862  0.24956924  0.37644362  1
  Fe  Fe151  1  0.64187564  0.58404518  0.24808734  1
  Fe  Fe152  1  0.89262804  0.25021968  0.37630275  1
  Fe  Fe153  1  0.35678725  0.74975715  0.50127730  1
  Fe  Fe154  1  0.39249319  0.24919384  0.87703663  1
  Fe  Fe155  1  0.14296951  0.91624105  0.24840038  1
  Fe  Fe156  1  0.64263177  0.58319657  0.99823907  1
  Fe  Fe157  1  0.89324291  0.91653792  0.37678078  1
  Fe  Fe158  1  0.14332730  0.91626182  0.74900073  1
  Fe  Fe159  1  0.39279972  0.91685858  0.87665358  1
  Fe  Fe160  1  0.35704444  0.41781756  0.25156680  1
  Fe  Fe161  1  0.60692839  0.75095296  0.87273520  1
  Fe  Fe162  1  0.85765637  0.08333392  0.75214387  1
  Fe  Fe163  1  0.39272100  0.25050136  0.12666180  1
  Fe  Fe164  1  0.64164495  0.58362450  0.49811679  1
  Fe  Fe165  1  0.10772253  0.74980514  0.37218173  1
  Fe  Fe166  1  0.10758282  0.41645414  0.37305086  1
  Fe  Fe167  1  0.60789312  0.74958287  0.12324519  1
  Fe  Fe168  1  0.10729133  0.41582854  0.12299921  1
  Fe  Fe169  1  0.10708205  0.41662855  0.87299509  1
  Fe  Fe170  1  0.60674618  0.08336004  0.87353856  1
  Fe  Fe171  1  0.89167768  0.91689733  0.12722189  1
  Fe  Fe172  1  0.14303311  0.58316041  0.74876720  1
  Fe  Fe173  1  0.35841863  0.08331375  0.00142162  1
  Fe  Fe174  1  0.60646746  0.41623971  0.12281016  1
  Fe  Fe175  1  0.39288220  0.25047988  0.62641935  1
  Fe  Fe176  1  0.85720482  0.41749425  0.00210549  1
  Fe  Fe177  1  0.60730673  0.41588809  0.62413044  1
  Fe  Fe178  1  0.85689181  0.41746783  0.75158319  1
  Fe  Fe179  1  0.89265773  0.25001315  0.12654032  1
  Fe  Fe180  1  0.60727705  0.08329100  0.37351931  1
  Fe  Fe181  1  0.39305465  0.91689195  0.37575993  1
  Fe  Fe182  1  0.35699499  0.41690762  0.00224080  1
  Fe  Fe183  1  0.35775845  0.74955228  0.25194175  1
  Fe  Fe184  1  0.35766624  0.41789666  0.75177214  1
  Fe  Fe185  1  0.64259199  0.91655151  0.99776059  1
  Fe  Fe186  1  0.89185652  0.25036378  0.62700873  1
  Fe  Fe187  1  0.89261374  0.25033754  0.87686132  1
  Fe  Fe188  1  0.14306680  0.91668118  0.49735661  1
  Fe  Fe189  1  0.64269534  0.91600703  0.24885212  1
  Fe  Fe190  1  0.14293338  0.58362599  0.24866237  1
  Fe  Fe191  1  0.60680489  0.41591260  0.37262759  1
  P  P192  1  0.05219772  0.25069001  0.10972793  1
  P  P193  1  0.05213161  0.25090197  0.35985125  1
  P  P194  1  0.05163346  0.25024094  0.61031020  1
  P  P195  1  0.05242011  0.25125259  0.86013992  1
  P  P196  1  0.05473386  0.58256629  0.11156232  1
  P  P197  1  0.05422486  0.58337436  0.35918663  1
  P  P198  1  0.05493813  0.58375248  0.61131143  1
  P  P199  1  0.05433162  0.58284176  0.85974816  1
  P  P200  1  0.05293804  0.91669751  0.11145005  1
  P  P201  1  0.05454065  0.91586965  0.36050065  1
  P  P202  1  0.05645299  0.91592202  0.61057960  1
  P  P203  1  0.05451771  0.91607640  0.85961562  1
  P  P204  1  0.55192666  0.25138355  0.10961857  1
  P  P205  1  0.55217282  0.24975443  0.35991189  1
  P  P206  1  0.55229276  0.25115868  0.61035453  1
  P  P207  1  0.55203421  0.24912407  0.86048424  1
  P  P208  1  0.55558339  0.58326156  0.11076185  1
  P  P209  1  0.55518895  0.58383844  0.36084496  1
  P  P210  1  0.55499747  0.58204486  0.61089809  1
  P  P211  1  0.55550629  0.58384148  0.86078940  1
  P  P212  1  0.55590394  0.91532494  0.11068620  1
  P  P213  1  0.55274219  0.91647516  0.35946524  1
  P  P214  1  0.55271208  0.91651710  0.60991898  1
  P  P215  1  0.55334478  0.91713000  0.86143399  1
  P  P216  1  0.44551871  0.08389167  0.13868435  1
  P  P217  1  0.44809288  0.08252471  0.38931093  1
  P  P218  1  0.44690324  0.08407825  0.63997754  1
  P  P219  1  0.44706672  0.08283254  0.89065818  1
  P  P220  1  0.44571739  0.41677450  0.13932989  1
  P  P221  1  0.44666669  0.41672987  0.38825482  1
  P  P222  1  0.44747987  0.41644210  0.64069122  1
  P  P223  1  0.44454312  0.41652340  0.88962464  1
  P  P224  1  0.44800774  0.74934515  0.14070224  1
  P  P225  1  0.44578023  0.75070741  0.38920538  1
  P  P226  1  0.44416204  0.74966348  0.63975859  1
  P  P227  1  0.44655522  0.75041085  0.88871391  1
  P  P228  1  0.94612679  0.08319663  0.13999126  1
  P  P229  1  0.94665757  0.08277118  0.38965109  1
  P  P230  1  0.94585245  0.08386868  0.64052502  1
  P  P231  1  0.94557712  0.08371840  0.88877874  1
  P  P232  1  0.94609875  0.41642215  0.13880897  1
  P  P233  1  0.94780866  0.41696176  0.38954298  1
  P  P234  1  0.94538528  0.41675060  0.64044994  1
  P  P235  1  0.94539883  0.41687312  0.88932237  1
  P  P236  1  0.94494618  0.75069234  0.14089589  1
  P  P237  1  0.94675351  0.75036645  0.38861199  1
  P  P238  1  0.94851514  0.74994780  0.63990160  1
  P  P239  1  0.94875870  0.74951037  0.89020629  1
  P  P240  1  0.19698755  0.08236836  0.23483259  1
  P  P241  1  0.19697686  0.08313689  0.48469069  1
  P  P242  1  0.19734531  0.08271995  0.73486733  1
  P  P243  1  0.19874583  0.08381199  0.98493484  1
  P  P244  1  0.19574630  0.41693530  0.23545623  1
  P  P245  1  0.19628130  0.41598263  0.48419259  1
  P  P246  1  0.19701084  0.41699536  0.73637552  1
  P  P247  1  0.19597249  0.41588231  0.98553892  1
  P  P248  1  0.19690683  0.75027867  0.23640221  1
  P  P249  1  0.19563890  0.75045873  0.48518432  1
  P  P250  1  0.19592207  0.74971697  0.73592051  1
  P  P251  1  0.19607023  0.75016556  0.98490345  1
  P  P252  1  0.69505074  0.08263456  0.23624346  1
  P  P253  1  0.69622391  0.08360347  0.48384029  1
  P  P254  1  0.69693576  0.08394220  0.73618639  1
  P  P255  1  0.69588446  0.08282414  0.98428101  1
  P  P256  1  0.69399162  0.41710893  0.23543440  1
  P  P257  1  0.69406251  0.41706320  0.48538407  1
  P  P258  1  0.69711680  0.41677577  0.73482395  1
  P  P259  1  0.69639829  0.41675269  0.98626796  1
  P  P260  1  0.69519178  0.75044098  0.23605564  1
  P  P261  1  0.69532123  0.74949823  0.48428159  1
  P  P262  1  0.69521135  0.74958982  0.73624160  1
  P  P263  1  0.69431392  0.75015674  0.98578612  1
  P  P264  1  0.30581439  0.25005244  0.01433597  1
  P  P265  1  0.30563316  0.25127803  0.26417245  1
  P  P266  1  0.30576289  0.25015911  0.51426627  1
  P  P267  1  0.30578498  0.25117483  0.76430271  1
  P  P268  1  0.30339168  0.58255644  0.01538209  1
  P  P269  1  0.30254968  0.58322076  0.26463223  1
  P  P270  1  0.30345312  0.58409939  0.51475856  1
  P  P271  1  0.30230517  0.58357923  0.76498633  1
  P  P272  1  0.30538631  0.91698909  0.01398080  1
  P  P273  1  0.30322628  0.91545828  0.26548305  1
  P  P274  1  0.30368081  0.91550978  0.51324494  1
  P  P275  1  0.30285717  0.91526937  0.76550864  1
  P  P276  1  0.80521488  0.25086828  0.01457509  1
  P  P277  1  0.80501462  0.25044778  0.26442074  1
  P  P278  1  0.80506466  0.25033556  0.51409077  1
  P  P279  1  0.80536162  0.25055416  0.76438778  1
  P  P280  1  0.80196857  0.58294266  0.01503727  1
  P  P281  1  0.80120023  0.58423245  0.26506743  1
  P  P282  1  0.80131203  0.58360478  0.51479831  1
  P  P283  1  0.80165908  0.58272248  0.76509451  1
  P  P284  1  0.80233647  0.91638929  0.01556451  1
  P  P285  1  0.80390316  0.91555679  0.26465344  1
  P  P286  1  0.80449928  0.91612453  0.51392011  1
  P  P287  1  0.80354278  0.91687294  0.76504235  1
  O  O288  1  0.05624022  0.25014604  0.18626664  1
  O  O289  1  0.05585853  0.25033613  0.43657047  1
  O  O290  1  0.05603061  0.25026146  0.68691204  1
  O  O291  1  0.05652207  0.25058110  0.93683064  1
  O  O292  1  0.05937120  0.58332067  0.18822977  1
  O  O293  1  0.05676275  0.58357790  0.43602788  1
  O  O294  1  0.05943883  0.58314130  0.68799139  1
  O  O295  1  0.05670134  0.58280753  0.93659171  1
  O  O296  1  0.05840989  0.91648380  0.18804560  1
  O  O297  1  0.05933624  0.91641253  0.43721717  1
  O  O298  1  0.06058778  0.91656476  0.68732694  1
  O  O299  1  0.05702079  0.91687756  0.93647647  1
  O  O300  1  0.55572333  0.25075245  0.18639800  1
  O  O301  1  0.55559009  0.25010327  0.43634511  1
  O  O302  1  0.55596753  0.25049816  0.68711750  1
  O  O303  1  0.55607993  0.25013524  0.93707916  1
  O  O304  1  0.55890464  0.58359798  0.18761385  1
  O  O305  1  0.55815376  0.58397279  0.43766950  1
  O  O306  1  0.55890531  0.58286205  0.68770219  1
  O  O307  1  0.55943062  0.58285105  0.93759430  1
  O  O308  1  0.55976249  0.91592593  0.18745141  1
  O  O309  1  0.55576084  0.91620073  0.43615456  1
  O  O310  1  0.55600373  0.91619227  0.68671529  1
  O  O311  1  0.55785924  0.91677644  0.93807202  1
  O  O312  1  0.44168014  0.08308869  0.06203493  1
  O  O313  1  0.44482284  0.08222805  0.31249975  1
  O  O314  1  0.44396135  0.08298989  0.56328703  1
  O  O315  1  0.44369584  0.08262876  0.81381449  1
  O  O316  1  0.44111049  0.41779786  0.06266279  1
  O  O317  1  0.44165927  0.41796783  0.31162862  1
  O  O318  1  0.44423794  0.41782015  0.56398452  1
  O  O319  1  0.44050806  0.41796493  0.81280869  1
  O  O320  1  0.44402134  0.74928235  0.06400609  1
  O  O321  1  0.44105604  0.74955888  0.31249144  1
  O  O322  1  0.44005981  0.74970093  0.56299374  1
  O  O323  1  0.44113063  0.74939405  0.81211976  1
  O  O324  1  0.94335309  0.08269500  0.06306658  1
  O  O325  1  0.94385311  0.08239770  0.31305157  1
  O  O326  1  0.94315336  0.08284523  0.56372920  1
  O  O327  1  0.94147819  0.08287680  0.81209520  1
  O  O328  1  0.94118399  0.41775292  0.06213627  1
  O  O329  1  0.94383816  0.41781624  0.31289527  1
  O  O330  1  0.94243468  0.41797923  0.56366066  1
  O  O331  1  0.94053464  0.41792278  0.81269077  1
  O  O332  1  0.94203618  0.74981801  0.06409143  1
  O  O333  1  0.94093660  0.74962773  0.31207548  1
  O  O334  1  0.94410804  0.74974171  0.56321753  1
  O  O335  1  0.94471464  0.74937313  0.81355126  1
  O  O336  1  0.19442865  0.08409645  0.06161871  1
  O  O337  1  0.19358271  0.08342811  0.31155373  1
  O  O338  1  0.19379458  0.08419575  0.56144396  1
  O  O339  1  0.19438849  0.08382785  0.81162834  1
  O  O340  1  0.19090905  0.41568777  0.06222628  1
  O  O341  1  0.19097344  0.41578461  0.31214394  1
  O  O342  1  0.19291006  0.41580575  0.56098070  1
  O  O343  1  0.19203724  0.41590978  0.81299897  1
  O  O344  1  0.19260948  0.75032738  0.06165440  1
  O  O345  1  0.19236890  0.75025279  0.31307712  1
  O  O346  1  0.19157983  0.74981489  0.56191831  1
  O  O347  1  0.19176903  0.74971810  0.81265144  1
  O  O348  1  0.69304873  0.08389227  0.06111594  1
  O  O349  1  0.69056678  0.08366041  0.31304014  1
  O  O350  1  0.69352752  0.08384587  0.56071073  1
  O  O351  1  0.69119570  0.08399499  0.81276221  1
  O  O352  1  0.69130811  0.41567488  0.06296786  1
  O  O353  1  0.68970920  0.41558972  0.31221693  1
  O  O354  1  0.69053264  0.41559269  0.56214084  1
  O  O355  1  0.69354304  0.41565278  0.81140531  1
  O  O356  1  0.69129874  0.75026586  0.06261626  1
  O  O357  1  0.69064257  0.75075476  0.31270094  1
  O  O358  1  0.69230456  0.75057831  0.56105685  1
  O  O359  1  0.69091706  0.75077473  0.81298909  1
  O  O360  1  0.30969014  0.25062544  0.18738626  1
  O  O361  1  0.31037948  0.25004347  0.43746713  1
  O  O362  1  0.30978023  0.25054780  0.68751485  1
  O  O363  1  0.30944771  0.24975592  0.93749515  1
  O  O364  1  0.30634588  0.58316246  0.18802420  1
  O  O365  1  0.30678009  0.58323568  0.43802581  1
  O  O366  1  0.30579850  0.58328678  0.68835556  1
  O  O367  1  0.30651390  0.58322434  0.93860236  1
  O  O368  1  0.30724431  0.91609272  0.18879693  1
  O  O369  1  0.30895693  0.91652562  0.43668201  1
  O  O370  1  0.30583270  0.91616564  0.68876175  1
  O  O371  1  0.30960105  0.91633610  0.93724890  1
  O  O372  1  0.80938099  0.25036083  0.18766079  1
  O  O373  1  0.80959206  0.25050530  0.43728077  1
  O  O374  1  0.80856246  0.25024358  0.68752325  1
  O  O375  1  0.80922790  0.25038027  0.93780372  1
  O  O376  1  0.80529020  0.58352206  0.18842168  1
  O  O377  1  0.80564086  0.58355890  0.43816601  1
  O  O378  1  0.80539326  0.58355562  0.68840058  1
  O  O379  1  0.80604367  0.58326673  0.93842971  1
  O  O380  1  0.80827889  0.91653633  0.18793769  1
  O  O381  1  0.80922328  0.91606029  0.43718573  1
  O  O382  1  0.80697812  0.91622254  0.68827359  1
  O  O383  1  0.80680526  0.91648064  0.93891825  1
  O  O384  1  0.23588925  0.25045899  0.03901372  1
  O  O385  1  0.23556053  0.25030996  0.28812257  1
  O  O386  1  0.23568752  0.25043786  0.53822059  1
  O  O387  1  0.23580036  0.25020795  0.78863622  1
  O  O388  1  0.23376568  0.58306365  0.04043710  1
  O  O389  1  0.23252225  0.58324614  0.28929269  1
  O  O390  1  0.23379815  0.58378501  0.53973783  1
  O  O391  1  0.23240587  0.58323788  0.78998583  1
  O  O392  1  0.23541316  0.91649295  0.03835253  1
  O  O393  1  0.23311687  0.91577010  0.28971643  1
  O  O394  1  0.23332145  0.91571766  0.53677733  1
  O  O395  1  0.23288200  0.91579347  0.79026254  1
  O  O396  1  0.73519788  0.24977736  0.03888804  1
  O  O397  1  0.73474507  0.25053924  0.28804733  1
  O  O398  1  0.73498927  0.24995399  0.53787574  1
  O  O399  1  0.73548566  0.25090225  0.78932690  1
  O  O400  1  0.73182648  0.58368271  0.03929456  1
  O  O401  1  0.73098611  0.58388177  0.28900568  1
  O  O402  1  0.73117148  0.58349959  0.53882876  1
  O  O403  1  0.73166608  0.58268919  0.78976065  1
  O  O404  1  0.73206943  0.91631362  0.03928896  1
  O  O405  1  0.73341701  0.91586611  0.28815167  1
  O  O406  1  0.73442259  0.91647456  0.53779518  1
  O  O407  1  0.73378283  0.91678650  0.78992678  1
  O  O408  1  0.26684033  0.08273930  0.21014918  1
  O  O409  1  0.26660892  0.08286075  0.45943746  1
  O  O410  1  0.26701381  0.08262681  0.70950712  1
  O  O411  1  0.26879389  0.08349054  0.96064692  1
  O  O412  1  0.26625131  0.41691295  0.21204825  1
  O  O413  1  0.26612244  0.41662732  0.45959862  1
  O  O414  1  0.26733702  0.41731978  0.71246443  1
  O  O415  1  0.26651118  0.41611379  0.96256091  1
  O  O416  1  0.26717389  0.75017195  0.21224894  1
  O  O417  1  0.26595341  0.74974835  0.46132703  1
  O  O418  1  0.26619823  0.75006046  0.71174105  1
  O  O419  1  0.26594299  0.74965289  0.96039910  1
  O  O420  1  0.76495463  0.08244718  0.21220000  1
  O  O421  1  0.76582328  0.08330870  0.45864102  1
  O  O422  1  0.76736465  0.08383042  0.71292721  1
  O  O423  1  0.76563637  0.08334050  0.95943490  1
  O  O424  1  0.76412683  0.41729840  0.21168776  1
  O  O425  1  0.76399688  0.41719455  0.46064790  1
  O  O426  1  0.76710013  0.41679887  0.71005127  1
  O  O427  1  0.76674792  0.41703994  0.96267558  1
  O  O428  1  0.76550735  0.75023631  0.21215953  1
  O  O429  1  0.76501819  0.74950245  0.45920834  1
  O  O430  1  0.76509209  0.74953479  0.71169176  1
  O  O431  1  0.76417449  0.74977594  0.96078443  1
  O  O432  1  0.01564710  0.08352694  0.16555714  1
  O  O433  1  0.01619519  0.08335832  0.41539616  1
  O  O434  1  0.01555096  0.08375257  0.66572064  1
  O  O435  1  0.01550978  0.08357986  0.91333134  1
  O  O436  1  0.01644762  0.41602286  0.16239163  1
  O  O437  1  0.01783364  0.41709675  0.41417634  1
  O  O438  1  0.01512114  0.41634589  0.66547885  1
  O  O439  1  0.01586566  0.41710032  0.91276951  1
  O  O440  1  0.01477284  0.75033576  0.16568408  1
  O  O441  1  0.01729387  0.75005281  0.41165154  1
  O  O442  1  0.01872938  0.75000777  0.66373863  1
  O  O443  1  0.01877752  0.74962877  0.91471479  1
  O  O444  1  0.51556426  0.08354439  0.16283809  1
  O  O445  1  0.51793522  0.08315851  0.41445594  1
  O  O446  1  0.51641183  0.08368339  0.66561105  1
  O  O447  1  0.51699687  0.08342783  0.91552031  1
  O  O448  1  0.51610768  0.41689246  0.16286620  1
  O  O449  1  0.51705519  0.41690192  0.41178655  1
  O  O450  1  0.51734706  0.41621968  0.66580457  1
  O  O451  1  0.51462422  0.41674090  0.91346362  1
  O  O452  1  0.51821982  0.74931038  0.16457125  1
  O  O453  1  0.51622508  0.75040646  0.41263009  1
  O  O454  1  0.51425442  0.74959870  0.66365448  1
  O  O455  1  0.51696162  0.75046009  0.91212111  1
  O  O456  1  0.48189936  0.25097332  0.08535008  1
  O  O457  1  0.48217385  0.24964098  0.33486664  1
  O  O458  1  0.48239699  0.25111452  0.58546638  1
  O  O459  1  0.48181394  0.24935658  0.83644147  1
  O  O460  1  0.48575619  0.58350716  0.08591311  1
  O  O461  1  0.48533487  0.58346607  0.33585745  1
  O  O462  1  0.48507142  0.58303068  0.58643488  1
  O  O463  1  0.48537520  0.58307617  0.83671845  1
  O  O464  1  0.48582489  0.91621259  0.08670198  1
  O  O465  1  0.48284724  0.91620553  0.33421501  1
  O  O466  1  0.48305984  0.91684714  0.58495256  1
  O  O467  1  0.48308538  0.91689350  0.83725941  1
  O  O468  1  0.98213165  0.25053431  0.08529328  1
  O  O469  1  0.98204979  0.25045718  0.33532242  1
  O  O470  1  0.98146942  0.25060151  0.58628560  1
  O  O471  1  0.98224866  0.25087652  0.83612611  1
  O  O472  1  0.98467989  0.58329590  0.08749593  1
  O  O473  1  0.98462989  0.58311865  0.33365265  1
  O  O474  1  0.98499959  0.58353724  0.58685756  1
  O  O475  1  0.98477526  0.58311957  0.83415697  1
  O  O476  1  0.98252105  0.91639440  0.08803325  1
  O  O477  1  0.98405548  0.91639839  0.33718901  1
  O  O478  1  0.98634540  0.91649597  0.58654978  1
  O  O479  1  0.98494361  0.91639074  0.83414283  1
  O  O480  1  0.08599420  0.31571329  0.07703079  1
  O  O481  1  0.08573367  0.31597697  0.32716658  1
  O  O482  1  0.08552333  0.31509252  0.57739942  1
  O  O483  1  0.08579761  0.31647994  0.82736451  1
  O  O484  1  0.08845469  0.64751421  0.07849652  1
  O  O485  1  0.08854749  0.64850185  0.32691903  1
  O  O486  1  0.08851549  0.64889950  0.57843462  1
  O  O487  1  0.08902626  0.64774429  0.82771617  1
  O  O488  1  0.08602438  0.98177845  0.07785671  1
  O  O489  1  0.08815338  0.98063332  0.32695076  1
  O  O490  1  0.09029984  0.98076325  0.57726747  1
  O  O491  1  0.08917560  0.98080844  0.82711159  1
  O  O492  1  0.58543628  0.31646501  0.07690806  1
  O  O493  1  0.58586190  0.31478329  0.32684457  1
  O  O494  1  0.58615076  0.31622671  0.57796094  1
  O  O495  1  0.58556901  0.31408587  0.82728294  1
  O  O496  1  0.58966840  0.64817474  0.07808102  1
  O  O497  1  0.58874872  0.64913188  0.32811849  1
  O  O498  1  0.58917562  0.64670242  0.57759412  1
  O  O499  1  0.58863698  0.64918187  0.82805976  1
  O  O500  1  0.58998252  0.98000505  0.07741681  1
  O  O501  1  0.58695043  0.98147172  0.32707410  1
  O  O502  1  0.58716991  0.98145397  0.57787157  1
  O  O503  1  0.58648613  0.98252102  0.82847979  1
  O  O504  1  0.41208551  0.01895066  0.17211261  1
  O  O505  1  0.41452313  0.01723359  0.42186660  1
  O  O506  1  0.41250082  0.01922532  0.67269474  1
  O  O507  1  0.41325497  0.01777725  0.92328269  1
  O  O508  1  0.41215380  0.35172720  0.17213505  1
  O  O509  1  0.41364499  0.35147442  0.42113273  1
  O  O510  1  0.41294594  0.35148049  0.67251155  1
  O  O511  1  0.41107136  0.35114548  0.92188702  1
  O  O512  1  0.41420614  0.68449491  0.17379236  1
  O  O513  1  0.41233924  0.68593440  0.42302407  1
  O  O514  1  0.41061498  0.68469154  0.67302302  1
  O  O515  1  0.41381039  0.68530653  0.92271185  1
  O  O516  1  0.91202346  0.01816450  0.17243214  1
  O  O517  1  0.91291010  0.01747980  0.42218580  1
  O  O518  1  0.91161500  0.01897832  0.67326693  1
  O  O519  1  0.91193074  0.01880639  0.92213064  1
  O  O520  1  0.91251444  0.35137661  0.17149366  1
  O  O521  1  0.91377893  0.35191444  0.42180905  1
  O  O522  1  0.91093293  0.35172415  0.67230676  1
  O  O523  1  0.91202674  0.35165370  0.92220885  1
  O  O524  1  0.91060379  0.68584761  0.17371521  1
  O  O525  1  0.91379300  0.68528414  0.42247432  1
  O  O526  1  0.91483405  0.68502412  0.67303795  1
  O  O527  1  0.91492438  0.68449379  0.92303292  1
  O  O528  1  0.16335096  0.01690630  0.20283487  1
  O  O529  1  0.16270643  0.01796243  0.45284858  1
  O  O530  1  0.16328567  0.01740371  0.70329239  1
  O  O531  1  0.16470766  0.01882218  0.95252701  1
  O  O532  1  0.16257379  0.35205608  0.20146765  1
  O  O533  1  0.16250290  0.35097834  0.45133609  1
  O  O534  1  0.16409582  0.35198674  0.70244292  1
  O  O535  1  0.16290626  0.35101412  0.95173771  1
  O  O536  1  0.16341576  0.68522994  0.20338317  1
  O  O537  1  0.16179329  0.68573925  0.45179477  1
  O  O538  1  0.16273116  0.68446063  0.70278567  1
  O  O539  1  0.16180282  0.68527110  0.95235553  1
  O  O540  1  0.66137958  0.01741470  0.20392313  1
  O  O541  1  0.66165893  0.01866365  0.45171844  1
  O  O542  1  0.66374686  0.01898449  0.70260356  1
  O  O543  1  0.66195820  0.01745957  0.95238082  1
  O  O544  1  0.66059619  0.35227861  0.20150402  1
  O  O545  1  0.66040906  0.35227429  0.45172434  1
  O  O546  1  0.66320199  0.35189556  0.70152860  1
  O  O547  1  0.66355789  0.35180440  0.95223514  1
  O  O548  1  0.66166325  0.68540896  0.20282956  1
  O  O549  1  0.66088352  0.68444003  0.45244093  1
  O  O550  1  0.66143247  0.68424428  0.70405630  1
  O  O551  1  0.66010715  0.68524417  0.95331517  1
  O  O552  1  0.33969368  0.31523916  0.04696455  1
  O  O553  1  0.33879144  0.31667512  0.29689340  1
  O  O554  1  0.33956525  0.31510355  0.54732860  1
  O  O555  1  0.33905792  0.31639409  0.79712124  1
  O  O556  1  0.33776100  0.64741114  0.04789811  1
  O  O557  1  0.33639495  0.64823900  0.29738120  1
  O  O558  1  0.33733588  0.64930496  0.54680503  1
  O  O559  1  0.33592993  0.64885446  0.79765465  1
  O  O560  1  0.33868996  0.98225176  0.04669715  1
  O  O561  1  0.33720165  0.98037461  0.29862571  1
  O  O562  1  0.33677827  0.98040590  0.54715525  1
  O  O563  1  0.33729940  0.98005023  0.79828968  1
  O  O564  1  0.83840037  0.31621270  0.04739953  1
  O  O565  1  0.83844978  0.31547521  0.29762550  1
  O  O566  1  0.83838474  0.31547384  0.54720941  1
  O  O567  1  0.83931805  0.31574376  0.79682495  1
  O  O568  1  0.83586626  0.64790927  0.04783599  1
  O  O569  1  0.83473320  0.64932249  0.29781024  1
  O  O570  1  0.83493821  0.64854687  0.54792460  1
  O  O571  1  0.83546727  0.64761509  0.79824351  1
  O  O572  1  0.83586003  0.98143997  0.04875656  1
  O  O573  1  0.83744434  0.98023353  0.29834006  1
  O  O574  1  0.83807508  0.98114563  0.54690785  1
  O  O575  1  0.83746361  0.98200661  0.79732649  1
  O  O576  1  0.41221809  0.14917824  0.17129687  1
  O  O577  1  0.41369845  0.14741555  0.42142059  1
  O  O578  1  0.41292008  0.14940703  0.67175150  1
  O  O579  1  0.41261105  0.14776971  0.92284681  1
  O  O580  1  0.41252148  0.48162195  0.17336774  1
  O  O581  1  0.41367950  0.48158323  0.42232444  1
  O  O582  1  0.41354375  0.48132523  0.67398436  1
  O  O583  1  0.41082754  0.48119831  0.92335685  1
  O  O584  1  0.41417268  0.81428857  0.17354609  1
  O  O585  1  0.41252735  0.81598095  0.42196669  1
  O  O586  1  0.41050572  0.81457921  0.67290403  1
  O  O587  1  0.41341995  0.81545083  0.92195877  1
  O  O588  1  0.91176062  0.14841136  0.17164250  1
  O  O589  1  0.91213133  0.14793076  0.42139564  1
  O  O590  1  0.91156576  0.14906367  0.67231747  1
  O  O591  1  0.91193905  0.14902365  0.92119534  1
  O  O592  1  0.91316107  0.48139409  0.17284225  1
  O  O593  1  0.91403819  0.48198452  0.42263281  1
  O  O594  1  0.91144505  0.48168904  0.67351860  1
  O  O595  1  0.91199485  0.48168752  0.92326884  1
  O  O596  1  0.91092671  0.81582902  0.17304466  1
  O  O597  1  0.91391563  0.81555354  0.42206218  1
  O  O598  1  0.91501885  0.81497941  0.67286256  1
  O  O599  1  0.91474447  0.81449667  0.92282299  1
  O  O600  1  0.08586409  0.18559598  0.07666293  1
  O  O601  1  0.08600270  0.18597760  0.32687157  1
  O  O602  1  0.08505085  0.18513513  0.57722185  1
  O  O603  1  0.08624612  0.18635416  0.82714459  1
  O  O604  1  0.08781733  0.51722011  0.07861402  1
  O  O605  1  0.08886946  0.51840821  0.32724633  1
  O  O606  1  0.08856479  0.51872210  0.57821115  1
  O  O607  1  0.08860286  0.51765055  0.82758943  1
  O  O608  1  0.08641575  0.85175596  0.07817813  1
  O  O609  1  0.08759701  0.85070164  0.32710820  1
  O  O610  1  0.08971397  0.85065134  0.57764414  1
  O  O611  1  0.08866867  0.85077679  0.82777219  1
  O  O612  1  0.58588196  0.18645378  0.07694959  1
  O  O613  1  0.58604508  0.18463972  0.32723020  1
  O  O614  1  0.58616147  0.18623738  0.57746242  1
  O  O615  1  0.58559895  0.18400361  0.82782930  1
  O  O616  1  0.58924134  0.51796898  0.07813308  1
  O  O617  1  0.58938264  0.51902380  0.32813571  1
  O  O618  1  0.58824572  0.51657452  0.57850527  1
  O  O619  1  0.58950935  0.51908396  0.82760724  1
  O  O620  1  0.58881522  0.84990164  0.07784506  1
  O  O621  1  0.58701843  0.85147310  0.32690435  1
  O  O622  1  0.58640199  0.85139447  0.57727433  1
  O  O623  1  0.58679917  0.85228157  0.82791473  1
  O  O624  1  0.33948998  0.18501858  0.04721382  1
  O  O625  1  0.33976756  0.18653486  0.29745709  1
  O  O626  1  0.33934640  0.18515209  0.54733254  1
  O  O627  1  0.33997707  0.18631077  0.79742220  1
  O  O628  1  0.33713169  0.51726595  0.04757746  1
  O  O629  1  0.33626119  0.51811855  0.29747639  1
  O  O630  1  0.33752490  0.51915723  0.54756583  1
  O  O631  1  0.33655634  0.51882694  0.79773772  1
  O  O632  1  0.33909444  0.85203945  0.04721692  1
  O  O633  1  0.33719244  0.85051879  0.29808513  1
  O  O634  1  0.33658235  0.85023683  0.54640894  1
  O  O635  1  0.33679538  0.85019051  0.79787149  1
  O  O636  1  0.83944575  0.18611749  0.04761909  1
  O  O637  1  0.83846382  0.18547889  0.29756485  1
  O  O638  1  0.83887408  0.18547277  0.54720597  1
  O  O639  1  0.83920295  0.18559110  0.79733421  1
  O  O640  1  0.83528448  0.51784597  0.04815079  1
  O  O641  1  0.83477350  0.51927612  0.29824347  1
  O  O642  1  0.83498684  0.51858559  0.54762811  1
  O  O643  1  0.83538660  0.51750170  0.79745452  1
  O  O644  1  0.83609450  0.85141276  0.04842866  1
  O  O645  1  0.83716172  0.85034649  0.29765070  1
  O  O646  1  0.83778026  0.85103009  0.54716313  1
  O  O647  1  0.83734079  0.85174267  0.79784844  1
  O  O648  1  0.16306798  0.14737161  0.20201075  1
  O  O649  1  0.16318166  0.14822239  0.45189308  1
  O  O650  1  0.16337849  0.14776824  0.70215568  1
  O  O651  1  0.16522562  0.14883327  0.95181162  1
  O  O652  1  0.16241942  0.48214597  0.20264595  1
  O  O653  1  0.16186412  0.48088188  0.45179882  1
  O  O654  1  0.16349859  0.48211884  0.70357966  1
  O  O655  1  0.16259076  0.48085684  0.95223206  1
  O  O656  1  0.16354980  0.81541105  0.20321685  1
  O  O657  1  0.16239232  0.81556045  0.45206011  1
  O  O658  1  0.16244257  0.81472503  0.70274681  1
  O  O659  1  0.16223702  0.81513236  0.95216431  1
  O  O660  1  0.66184292  0.14770255  0.20256122  1
  O  O661  1  0.66195841  0.14853303  0.45144518  1
  O  O662  1  0.66410106  0.14913677  0.70254679  1
  O  O663  1  0.66142583  0.14753787  0.95148438  1
  O  O664  1  0.66022454  0.48231969  0.20317804  1
  O  O665  1  0.66010555  0.48231197  0.45331918  1
  O  O666  1  0.66279834  0.48177483  0.70262932  1
  O  O667  1  0.66290415  0.48183050  0.95349333  1
  O  O668  1  0.66196767  0.81544297  0.20260396  1
  O  O669  1  0.66113400  0.81432816  0.45125771  1
  O  O670  1  0.66155464  0.81437763  0.70271902  1
  O  O671  1  0.66068886  0.81540566  0.95295451  1
