# generated using pymatgen
data_Na2MnFe(PO4)2
_symmetry_space_group_name_H-M   'P 1'
_cell_length_a   21.08145734
_cell_length_b   18.93349501
_cell_length_c   20.04071388
_cell_angle_alpha   90.00047713
_cell_angle_beta   89.99972292
_cell_angle_gamma   89.99854814
_symmetry_Int_Tables_number   1
_chemical_formula_structural   Na2MnFe(PO4)2
_chemical_formula_sum   'Na96 Mn48 Fe48 P96 O384'
_cell_volume   7999.16411540
_cell_formula_units_Z   48
loop_
 _symmetry_equiv_pos_site_id
 _symmetry_equiv_pos_as_xyz
  1  'x, y, z'
loop_
 _atom_site_type_symbol
 _atom_site_label
 _atom_site_symmetry_multiplicity
 _atom_site_fract_x
 _atom_site_fract_y
 _atom_site_fract_z
 _atom_site_occupancy
  Na  Na0  1  0.00289244  0.00149791  -0.00094310  1
  Na  Na1  1  -0.00002290  -0.00002162  0.24968213  1
  Na  Na2  1  -0.00071493  -0.00044141  0.50040111  1
  Na  Na3  1  0.00015627  -0.00000719  0.75042467  1
  Na  Na4  1  0.00234924  0.33411429  -0.00070773  1
  Na  Na5  1  0.00051273  0.33271022  0.25021429  1
  Na  Na6  1  -0.00092072  0.33243124  0.50086403  1
  Na  Na7  1  -0.00033629  0.33269252  0.75057193  1
  Na  Na8  1  -0.00029656  0.66605457  0.00167867  1
  Na  Na9  1  0.00192351  0.66670665  0.24916106  1
  Na  Na10  1  0.00358342  0.66766461  0.49926927  1
  Na  Na11  1  0.00119465  0.66684312  0.74992378  1
  Na  Na12  1  0.49934105  0.00025591  -0.00136736  1
  Na  Na13  1  0.49788222  -0.00078143  0.25063686  1
  Na  Na14  1  0.50111205  0.00083757  0.49975627  1
  Na  Na15  1  0.49896136  -0.00064715  0.75108822  1
  Na  Na16  1  0.49866649  0.33252511  0.00073718  1
  Na  Na17  1  0.49775195  0.33258727  0.24953609  1
  Na  Na18  1  0.49865917  0.33300292  0.49924267  1
  Na  Na19  1  0.50099050  0.33423903  0.74974819  1
  Na  Na20  1  0.49984692  0.66701950  0.00035193  1
  Na  Na21  1  0.49715076  0.66636412  0.24939803  1
  Na  Na22  1  0.49645660  0.66595925  0.49975217  1
  Na  Na23  1  0.49817542  0.66573065  0.75000591  1
  Na  Na24  1  0.25128950  0.00056282  0.12486755  1
  Na  Na25  1  0.25169776  0.00111241  0.37551696  1
  Na  Na26  1  0.24840046  0.00004062  0.62445827  1
  Na  Na27  1  0.24806741  0.00017931  0.87584514  1
  Na  Na28  1  0.25115677  0.33320247  0.12469378  1
  Na  Na29  1  0.25397158  0.33481815  0.37425521  1
  Na  Na30  1  0.24877640  0.33241213  0.62581442  1
  Na  Na31  1  0.24881574  0.33266108  0.87532416  1
  Na  Na32  1  0.25144352  0.66687498  0.12458987  1
  Na  Na33  1  0.24986136  0.66679347  0.37571718  1
  Na  Na34  1  0.24929571  0.66657078  0.62558695  1
  Na  Na35  1  0.25139492  0.66737189  0.87361328  1
  Na  Na36  1  0.74816968  -0.00039256  0.12569243  1
  Na  Na37  1  0.75027471  -0.00004262  0.37512671  1
  Na  Na38  1  0.75154538  0.00004162  0.62447328  1
  Na  Na39  1  0.74966581  -0.00035726  0.87442096  1
  Na  Na40  1  0.74813126  0.33225780  0.12419988  1
  Na  Na41  1  0.75015666  0.33326499  0.37615902  1
  Na  Na42  1  0.75117726  0.33350141  0.62531150  1
  Na  Na43  1  0.75042344  0.33347736  0.87406047  1
  Na  Na44  1  0.74896999  0.66616856  0.12443564  1
  Na  Na45  1  0.74963782  0.66677299  0.37497076  1
  Na  Na46  1  0.75033441  0.66672868  0.62594243  1
  Na  Na47  1  0.75048957  0.66659554  0.87475394  1
  Na  Na48  1  0.00333120  0.16625960  -0.00077821  1
  Na  Na49  1  0.00070148  0.16729187  0.25014177  1
  Na  Na50  1  0.00005928  0.16713731  0.50025730  1
  Na  Na51  1  0.00048631  0.16735668  0.75058147  1
  Na  Na52  1  0.00124987  0.49944068  0.00035886  1
  Na  Na53  1  0.00287678  0.49954071  0.25061189  1
  Na  Na54  1  0.00127895  0.50019125  0.49932814  1
  Na  Na55  1  -0.00103139  0.50036596  0.75003208  1
  Na  Na56  1  0.00000756  0.83317468  0.00060445  1
  Na  Na57  1  -0.00024865  0.83304292  0.24854337  1
  Na  Na58  1  0.00018662  0.83391919  0.50065922  1
  Na  Na59  1  0.00218635  0.83243350  0.75057032  1
  Na  Na60  1  0.49923128  0.16682586  -0.00040907  1
  Na  Na61  1  0.49914953  0.16709141  0.24958582  1
  Na  Na62  1  0.50086066  0.16609253  0.50012806  1
  Na  Na63  1  0.49777473  0.16799400  0.75105263  1
  Na  Na64  1  0.49959134  0.49980567  0.00026383  1
  Na  Na65  1  0.49721479  0.49995867  0.24928700  1
  Na  Na66  1  0.49792359  0.49930162  0.49923752  1
  Na  Na67  1  0.49915485  0.49998664  0.75037917  1
  Na  Na68  1  0.49889925  0.83352602  -0.00010103  1
  Na  Na69  1  0.49721073  0.83404217  0.25069626  1
  Na  Na70  1  0.49849313  0.83363268  0.49953397  1
  Na  Na71  1  0.50165570  0.83219831  0.74947404  1
  Na  Na72  1  0.25040151  0.16693953  0.12420852  1
  Na  Na73  1  0.25002709  0.16734870  0.37535689  1
  Na  Na74  1  0.24807552  0.16718064  0.62480861  1
  Na  Na75  1  0.24931407  0.16651172  0.87592116  1
  Na  Na76  1  0.25109032  0.49975051  0.12355993  1
  Na  Na77  1  0.24996943  0.50045538  0.37544417  1
  Na  Na78  1  0.25054786  0.49953116  0.62586518  1
  Na  Na79  1  0.25090778  0.49964418  0.87484568  1
  Na  Na80  1  0.25295280  0.83220167  0.12607516  1
  Na  Na81  1  0.25292105  0.83236229  0.37534845  1
  Na  Na82  1  0.24871037  0.83353674  0.62485685  1
  Na  Na83  1  0.24806625  0.83398272  0.87422690  1
  Na  Na84  1  0.74827940  0.16763612  0.12493906  1
  Na  Na85  1  0.74940459  0.16702367  0.37545788  1
  Na  Na86  1  0.75241759  0.16655427  0.62443432  1
  Na  Na87  1  0.75208009  0.16693086  0.87475090  1
  Na  Na88  1  0.74764229  0.50054638  0.12398038  1
  Na  Na89  1  0.75032833  0.49927823  0.37586665  1
  Na  Na90  1  0.75068477  0.49918230  0.62570523  1
  Na  Na91  1  0.74896462  0.50001384  0.87502378  1
  Na  Na92  1  0.74996273  0.83278210  0.12516915  1
  Na  Na93  1  0.74983949  0.83396236  0.37511679  1
  Na  Na94  1  0.75035504  0.83359782  0.62555133  1
  Na  Na95  1  0.74900855  0.83363711  0.87361525  1
  Mn  Mn96  1  0.60685786  0.08294436  0.12276104  1
  Mn  Mn97  1  0.14292996  0.58348351  0.99703909  1
  Mn  Mn98  1  0.60728802  0.74927364  0.62209331  1
  Mn  Mn99  1  0.85785110  0.08384459  0.25170157  1
  Mn  Mn100  1  0.35711280  0.75130554  0.75234180  1
  Mn  Mn101  1  0.64235137  0.24942945  0.49799425  1
  Mn  Mn102  1  0.39156703  0.24994883  0.62753980  1
  Mn  Mn103  1  0.10755119  0.41669795  0.62262397  1
  Mn  Mn104  1  0.60765010  0.08378115  0.87213500  1
  Mn  Mn105  1  0.89190890  0.91745751  0.12642559  1
  Mn  Mn106  1  0.64199283  0.58299061  0.74773582  1
  Mn  Mn107  1  0.64090734  0.58407317  0.49760996  1
  Mn  Mn108  1  0.89229463  0.58243267  0.12730921  1
  Mn  Mn109  1  0.60684428  0.75043162  0.12282742  1
  Mn  Mn110  1  0.64093796  0.58275310  0.24858357  1
  Mn  Mn111  1  0.14329295  0.91671249  0.24796166  1
  Mn  Mn112  1  0.85814540  0.41641610  0.25158386  1
  Mn  Mn113  1  0.35781400  0.08379124  0.50302155  1
  Mn  Mn114  1  0.35718544  0.08308218  0.00225550  1
  Mn  Mn115  1  0.85855144  0.74955766  0.50169584  1
  Mn  Mn116  1  0.85812792  0.41734222  0.50221132  1
  Mn  Mn117  1  0.60816214  0.08368989  0.62369805  1
  Mn  Mn118  1  0.14218357  0.58329632  0.74815907  1
  Mn  Mn119  1  0.39196539  0.91683279  0.62758801  1
  Mn  Mn120  1  0.14189857  0.91653990  0.49693441  1
  Mn  Mn121  1  0.60604280  0.74976354  0.37303596  1
  Mn  Mn122  1  0.14325870  0.25058553  0.24791891  1
  Mn  Mn123  1  0.60668382  0.41641048  0.12288665  1
  Mn  Mn124  1  0.10778156  0.08258702  0.37241583  1
  Mn  Mn125  1  0.89276532  0.25028397  0.12643043  1
  Mn  Mn126  1  0.39163789  0.91623906  0.87695569  1
  Mn  Mn127  1  0.85793478  0.08273904  0.00229674  1
  Mn  Mn128  1  0.10885101  0.75031947  0.12238124  1
  Mn  Mn129  1  0.85886472  0.74958237  0.75275284  1
  Mn  Mn130  1  0.64308525  0.24972551  0.74816053  1
  Mn  Mn131  1  0.85804121  0.08301721  0.50196234  1
  Mn  Mn132  1  0.85754812  0.41688434  0.00232592  1
  Mn  Mn133  1  0.85800894  0.74961848  0.25264912  1
  Mn  Mn134  1  0.14274881  0.91639583  0.99831797  1
  Mn  Mn135  1  0.35785142  0.41521199  0.75292370  1
  Mn  Mn136  1  0.89333097  0.58363339  0.37709891  1
  Mn  Mn137  1  0.10885572  0.41678219  0.37268220  1
  Mn  Mn138  1  0.64133321  0.91669987  0.24800456  1
  Mn  Mn139  1  0.89298880  0.58351134  0.62688498  1
  Mn  Mn140  1  0.89310843  0.91624189  0.87810722  1
  Mn  Mn141  1  0.60631678  0.41637744  0.37252547  1
  Mn  Mn142  1  0.64280422  0.91745098  0.74741783  1
  Mn  Mn143  1  0.39184733  0.58345650  0.12728798  1
  Fe  Fe144  1  0.14341652  0.25056750  0.99843595  1
  Fe  Fe145  1  0.89353040  0.24962586  0.62709355  1
  Fe  Fe146  1  0.39193761  0.58296533  0.62662485  1
  Fe  Fe147  1  0.39224279  0.24901217  0.12682658  1
  Fe  Fe148  1  0.89425772  0.25057764  0.87732599  1
  Fe  Fe149  1  0.14249211  0.25078208  0.49812098  1
  Fe  Fe150  1  0.10763616  0.08357664  0.87230158  1
  Fe  Fe151  1  0.35722792  0.41672748  0.00112252  1
  Fe  Fe152  1  0.64305798  0.91646085  0.49838212  1
  Fe  Fe153  1  0.35621399  0.74957646  0.50222098  1
  Fe  Fe154  1  0.10673764  0.08326606  0.62384243  1
  Fe  Fe155  1  0.89340626  0.91687713  0.62671661  1
  Fe  Fe156  1  0.14372573  0.58266519  0.49847151  1
  Fe  Fe157  1  0.89267426  0.91648391  0.37642389  1
  Fe  Fe158  1  0.60661875  0.41681007  0.87371941  1
  Fe  Fe159  1  0.64221785  0.58355197  0.99719266  1
  Fe  Fe160  1  0.64157191  0.91628461  0.99827113  1
  Fe  Fe161  1  0.85901509  0.08383251  0.75192577  1
  Fe  Fe162  1  0.35586124  0.08335901  0.75119008  1
  Fe  Fe163  1  0.10764639  0.74965019  0.87414643  1
  Fe  Fe164  1  0.10913599  0.41615775  0.12308213  1
  Fe  Fe165  1  0.64197000  0.25025266  0.24877369  1
  Fe  Fe166  1  0.60680834  0.08346584  0.37323272  1
  Fe  Fe167  1  0.89242137  0.24970225  0.37637763  1
  Fe  Fe168  1  0.10758584  0.75046596  0.62287657  1
  Fe  Fe169  1  0.64166847  0.24999562  0.99740612  1
  Fe  Fe170  1  0.14407178  0.58331964  0.24851006  1
  Fe  Fe171  1  0.85756906  0.41648400  0.75248114  1
  Fe  Fe172  1  0.10877272  0.08393326  0.12403178  1
  Fe  Fe173  1  0.10827502  0.75082135  0.37304427  1
  Fe  Fe174  1  0.35718399  0.74980915  0.25259555  1
  Fe  Fe175  1  0.39067701  0.58298916  0.37737343  1
  Fe  Fe176  1  0.39302440  0.58292627  0.87663614  1
  Fe  Fe177  1  0.10744919  0.41708403  0.87327502  1
  Fe  Fe178  1  0.39197049  0.25071526  0.87681523  1
  Fe  Fe179  1  0.60727713  0.74924707  0.87394616  1
  Fe  Fe180  1  0.14240474  0.24965350  0.74855090  1
  Fe  Fe181  1  0.85665207  0.75002149  0.00073312  1
  Fe  Fe182  1  0.39220336  0.91742160  0.12688500  1
  Fe  Fe183  1  0.35768435  0.08348234  0.25213623  1
  Fe  Fe184  1  0.35699376  0.41677222  0.25167251  1
  Fe  Fe185  1  0.39270406  0.24938227  0.37710811  1
  Fe  Fe186  1  0.39263537  0.91727934  0.37753694  1
  Fe  Fe187  1  0.14188344  0.91743074  0.74816423  1
  Fe  Fe188  1  0.89295831  0.58293559  0.87696524  1
  Fe  Fe189  1  0.35683498  0.41691305  0.50241284  1
  Fe  Fe190  1  0.35803247  0.74985578  0.00070963  1
  Fe  Fe191  1  0.60710386  0.41682302  0.62343576  1
  P  P192  1  0.05507831  0.25028659  0.10942740  1
  P  P193  1  0.05363309  0.25009722  0.36111909  1
  P  P194  1  0.05432937  0.24921550  0.61105190  1
  P  P195  1  0.05516338  0.25057706  0.86096575  1
  P  P196  1  0.05589978  0.58226266  0.11126615  1
  P  P197  1  0.05662185  0.58441004  0.36038597  1
  P  P198  1  0.05457815  0.58390411  0.60925057  1
  P  P199  1  0.05252027  0.58329491  0.86050129  1
  P  P200  1  0.05382142  0.91765098  0.10993866  1
  P  P201  1  0.05228734  0.91578625  0.35949752  1
  P  P202  1  0.05388105  0.91725515  0.61141702  1
  P  P203  1  0.05465355  0.91639777  0.85994576  1
  P  P204  1  0.55318816  0.24969433  0.11049183  1
  P  P205  1  0.55237343  0.24935910  0.35961535  1
  P  P206  1  0.55319037  0.25072286  0.61029616  1
  P  P207  1  0.55295579  0.25114399  0.86102753  1
  P  P208  1  0.55347378  0.58339863  0.10929711  1
  P  P209  1  0.54980230  0.58322093  0.35993404  1
  P  P210  1  0.55136083  0.58225087  0.60986873  1
  P  P211  1  0.55331539  0.58310814  0.86133384  1
  P  P212  1  0.55165897  0.91684357  0.10943451  1
  P  P213  1  0.55283605  0.91717811  0.36152499  1
  P  P214  1  0.55384224  0.91689810  0.60922054  1
  P  P215  1  0.55446884  0.91556356  0.86082421  1
  P  P216  1  0.44543636  0.08326360  0.14022301  1
  P  P217  1  0.44620385  0.08378506  0.38907033  1
  P  P218  1  0.44610424  0.08334547  0.64155859  1
  P  P219  1  0.44451046  0.08423256  0.88843028  1
  P  P220  1  0.44393256  0.41556114  0.13901321  1
  P  P221  1  0.44327006  0.41621406  0.38904549  1
  P  P222  1  0.44601612  0.41713169  0.63905361  1
  P  P223  1  0.44677688  0.41640452  0.89053387  1
  P  P224  1  0.44415987  0.75111966  0.13937612  1
  P  P225  1  0.44321928  0.74987491  0.38963217  1
  P  P226  1  0.44475708  0.74923164  0.63886391  1
  P  P227  1  0.44715344  0.74932719  0.89008739  1
  P  P228  1  0.94865802  0.08402957  0.13953377  1
  P  P229  1  0.94662907  0.08325667  0.38970649  1
  P  P230  1  0.94739389  0.08342832  0.64038531  1
  P  P231  1  0.94738137  0.08437989  0.88888064  1
  P  P232  1  0.94908167  0.41637049  0.13997460  1
  P  P233  1  0.94733965  0.41599253  0.38995760  1
  P  P234  1  0.94623653  0.41600547  0.64078601  1
  P  P235  1  0.94687255  0.41673946  0.88897372  1
  P  P236  1  0.94540001  0.74974534  0.13858064  1
  P  P237  1  0.94882556  0.75058240  0.38973852  1
  P  P238  1  0.94841672  0.75062012  0.63983716  1
  P  P239  1  0.94783258  0.74881501  0.89099525  1
  P  P240  1  0.19821191  0.08354746  0.23474892  1
  P  P241  1  0.19504421  0.08434563  0.48618297  1
  P  P242  1  0.19524675  0.08366571  0.73565939  1
  P  P243  1  0.19456704  0.08437367  0.98576382  1
  P  P244  1  0.19818540  0.41737018  0.23445096  1
  P  P245  1  0.19791441  0.41635350  0.48543960  1
  P  P246  1  0.19540390  0.41591102  0.73644831  1
  P  P247  1  0.19650334  0.41600486  0.98525218  1
  P  P248  1  0.19744416  0.74962191  0.23640248  1
  P  P249  1  0.19590462  0.74935736  0.48574184  1
  P  P250  1  0.19425933  0.75076395  0.73556422  1
  P  P251  1  0.19827281  0.74985186  0.98415174  1
  P  P252  1  0.69486000  0.08437236  0.23629108  1
  P  P253  1  0.69590487  0.08230941  0.48452314  1
  P  P254  1  0.69924570  0.08403059  0.73477140  1
  P  P255  1  0.69609855  0.08335727  0.98476074  1
  P  P256  1  0.69617078  0.41559421  0.23494770  1
  P  P257  1  0.69495220  0.41671404  0.48615259  1
  P  P258  1  0.69604778  0.41636049  0.73580486  1
  P  P259  1  0.69523319  0.41638995  0.98418104  1
  P  P260  1  0.69602636  0.74986183  0.23500309  1
  P  P261  1  0.69653306  0.75095435  0.48484111  1
  P  P262  1  0.69561170  0.74964649  0.73597089  1
  P  P263  1  0.69659030  0.74998452  0.98435198  1
  P  P264  1  0.30424669  0.25094613  0.01409355  1
  P  P265  1  0.30549478  0.24954432  0.26416960  1
  P  P266  1  0.30305440  0.25076244  0.51421994  1
  P  P267  1  0.30212570  0.24872135  0.76579802  1
  P  P268  1  0.30522701  0.58340489  0.01292852  1
  P  P269  1  0.30297144  0.58315484  0.26533853  1
  P  P270  1  0.30368886  0.58326774  0.51481556  1
  P  P271  1  0.30521479  0.58312573  0.76461118  1
  P  P272  1  0.30394548  0.91562019  0.01549094  1
  P  P273  1  0.30553073  0.91728837  0.26479674  1
  P  P274  1  0.30419468  0.91625595  0.51420344  1
  P  P275  1  0.30113324  0.91801619  0.76479685  1
  P  P276  1  0.80315035  0.25008907  0.01357287  1
  P  P277  1  0.80247079  0.25016444  0.26543506  1
  P  P278  1  0.80560801  0.25000899  0.51480546  1
  P  P279  1  0.80650235  0.25007462  0.76438807  1
  P  P280  1  0.80325234  0.58388213  0.01346511  1
  P  P281  1  0.80280101  0.58267090  0.26532126  1
  P  P282  1  0.80288840  0.58368245  0.51549748  1
  P  P283  1  0.80443698  0.58226261  0.76581697  1
  P  P284  1  0.80150169  0.91584800  0.01461489  1
  P  P285  1  0.80368377  0.91696896  0.26559725  1
  P  P286  1  0.80462382  0.91627819  0.51461345  1
  P  P287  1  0.80589743  0.91749077  0.76393394  1
  O  O288  1  0.05776231  0.25031270  0.18628896  1
  O  O289  1  0.05851952  0.25064979  0.43781420  1
  O  O290  1  0.05883463  0.25005266  0.68777322  1
  O  O291  1  0.05969307  0.25069121  0.93762838  1
  O  O292  1  0.06055876  0.58300326  0.18800632  1
  O  O293  1  0.06082270  0.58313995  0.43718257  1
  O  O294  1  0.05699587  0.58280477  0.68607894  1
  O  O295  1  0.05621601  0.58310804  0.93721154  1
  O  O296  1  0.05704801  0.91669211  0.18670171  1
  O  O297  1  0.05592573  0.91642987  0.43627274  1
  O  O298  1  0.05821860  0.91728415  0.68810213  1
  O  O299  1  0.05746859  0.91636916  0.93672867  1
  O  O300  1  0.55791133  0.25006115  0.18713579  1
  O  O301  1  0.55639699  0.24988722  0.43632495  1
  O  O302  1  0.55664957  0.25024070  0.68707159  1
  O  O303  1  0.55764229  0.25000702  0.93773514  1
  O  O304  1  0.55607088  0.58325720  0.18610925  1
  O  O305  1  0.55406733  0.58334010  0.43661748  1
  O  O306  1  0.55538282  0.58288655  0.68660541  1
  O  O307  1  0.55791292  0.58347363  0.93803304  1
  O  O308  1  0.55540439  0.91664220  0.18618862  1
  O  O309  1  0.55805223  0.91659648  0.43808734  1
  O  O310  1  0.55711898  0.91682444  0.68609819  1
  O  O311  1  0.55841140  0.91642541  0.93761800  1
  O  O312  1  0.44283453  0.08348478  0.06333923  1
  O  O313  1  0.44183509  0.08366149  0.31241124  1
  O  O314  1  0.44321659  0.08339174  0.56469604  1
  O  O315  1  0.43984865  0.08349905  0.81177023  1
  O  O316  1  0.44043755  0.41645205  0.06224631  1
  O  O317  1  0.43961056  0.41675055  0.31216466  1
  O  O318  1  0.44099586  0.41620776  0.56234806  1
  O  O319  1  0.44368924  0.41608623  0.81379519  1
  O  O320  1  0.44088688  0.75004401  0.06259106  1
  O  O321  1  0.43980194  0.74965064  0.31268588  1
  O  O322  1  0.44030278  0.75008162  0.56212120  1
  O  O323  1  0.44337332  0.75026419  0.81334671  1
  O  O324  1  0.94471070  0.08384678  0.06278556  1
  O  O325  1  0.94394213  0.08367635  0.31292155  1
  O  O326  1  0.94395668  0.08331262  0.56366486  1
  O  O327  1  0.94273901  0.08380771  0.81224188  1
  O  O328  1  0.94448080  0.41667572  0.06326541  1
  O  O329  1  0.94446061  0.41652180  0.31317595  1
  O  O330  1  0.94358910  0.41690814  0.56396238  1
  O  O331  1  0.94221309  0.41672958  0.81235129  1
  O  O332  1  0.94024713  0.74967457  0.06187176  1
  O  O333  1  0.94502590  0.74959719  0.31301172  1
  O  O334  1  0.94473115  0.75014301  0.56316292  1
  O  O335  1  0.94458619  0.74951593  0.81421905  1
  O  O336  1  0.19123299  0.08364266  0.06255626  1
  O  O337  1  0.19411048  0.08347468  0.31149510  1
  O  O338  1  0.19046036  0.08346712  0.56292048  1
  O  O339  1  0.19125914  0.08355850  0.81248728  1
  O  O340  1  0.19257700  0.41653124  0.06199258  1
  O  O341  1  0.19469491  0.41646390  0.31117419  1
  O  O342  1  0.19415748  0.41605799  0.56214679  1
  O  O343  1  0.19115934  0.41696048  0.81321877  1
  O  O344  1  0.19478655  0.74957480  0.06094378  1
  O  O345  1  0.19275948  0.75077626  0.31304716  1
  O  O346  1  0.19119155  0.75054764  0.56248437  1
  O  O347  1  0.19023552  0.74968409  0.81235025  1
  O  O348  1  0.69291826  0.08363972  0.06157364  1
  O  O349  1  0.69064581  0.08350660  0.31304075  1
  O  O350  1  0.69341124  0.08337368  0.56132539  1
  O  O351  1  0.69448429  0.08419920  0.81142952  1
  O  O352  1  0.69206829  0.41613199  0.06095085  1
  O  O353  1  0.69302207  0.41626116  0.31176146  1
  O  O354  1  0.69057113  0.41674653  0.56295404  1
  O  O355  1  0.69056838  0.41653292  0.81243912  1
  O  O356  1  0.69308080  0.74988535  0.06107933  1
  O  O357  1  0.69217867  0.75009500  0.31176074  1
  O  O358  1  0.69352651  0.75010127  0.56166633  1
  O  O359  1  0.69075378  0.74920877  0.81267392  1
  O  O360  1  0.30858148  0.24908810  0.18732191  1
  O  O361  1  0.30806957  0.24973811  0.43758722  1
  O  O362  1  0.30574528  0.24973656  0.68905362  1
  O  O363  1  0.30848480  0.25036435  0.93737688  1
  O  O364  1  0.30612695  0.58324867  0.18848358  1
  O  O365  1  0.30747176  0.58329945  0.43804158  1
  O  O366  1  0.30884799  0.58290885  0.68778460  1
  O  O367  1  0.30916403  0.58339906  0.93618201  1
  O  O368  1  0.30869906  0.91739411  0.18796602  1
  O  O369  1  0.30873678  0.91728534  0.43744955  1
  O  O370  1  0.30504302  0.91722571  0.68812096  1
  O  O371  1  0.30618759  0.91663755  0.93865016  1
  O  O372  1  0.80642539  0.25002843  0.18865773  1
  O  O373  1  0.80976155  0.24997371  0.43801872  1
  O  O374  1  0.81021949  0.24990346  0.68754940  1
  O  O375  1  0.80936982  0.25038180  0.93699741  1
  O  O376  1  0.80602628  0.58263542  0.18847067  1
  O  O377  1  0.80681651  0.58371526  0.43874868  1
  O  O378  1  0.80767457  0.58310590  0.68904014  1
  O  O379  1  0.80879440  0.58291255  0.93684522  1
  O  O380  1  0.80689344  0.91700907  0.18877193  1
  O  O381  1  0.80952576  0.91627833  0.43789169  1
  O  O382  1  0.81031399  0.91674878  0.68713008  1
  O  O383  1  0.80586911  0.91664397  0.93789999  1
  O  O384  1  0.23392008  0.25031698  0.03792890  1
  O  O385  1  0.23560586  0.25046729  0.28910119  1
  O  O386  1  0.23278667  0.25031497  0.53814167  1
  O  O387  1  0.23202170  0.24931810  0.79015638  1
  O  O388  1  0.23538404  0.58317755  0.03762755  1
  O  O389  1  0.23302115  0.58346849  0.29025772  1
  O  O390  1  0.23341707  0.58307728  0.53907788  1
  O  O391  1  0.23512976  0.58337075  0.78873565  1
  O  O392  1  0.23445247  0.91616194  0.04124349  1
  O  O393  1  0.23569385  0.91704180  0.28993088  1
  O  O394  1  0.23405925  0.91646561  0.53797967  1
  O  O395  1  0.23109364  0.91758650  0.78930359  1
  O  O396  1  0.73248525  0.25025167  0.03616076  1
  O  O397  1  0.73241925  0.25013511  0.29002897  1
  O  O398  1  0.73546355  0.24977022  0.53869818  1
  O  O399  1  0.73638875  0.25025793  0.78861919  1
  O  O400  1  0.73264476  0.58337973  0.03647884  1
  O  O401  1  0.73314508  0.58277913  0.29058828  1
  O  O402  1  0.73317413  0.58340310  0.54046858  1
  O  O403  1  0.73452529  0.58298502  0.79037860  1
  O  O404  1  0.73141356  0.91603026  0.03913872  1
  O  O405  1  0.73380973  0.91705733  0.29021285  1
  O  O406  1  0.73426874  0.91682806  0.53820961  1
  O  O407  1  0.73575545  0.91707864  0.78775019  1
  O  O408  1  0.26832250  0.08368879  0.21059129  1
  O  O409  1  0.26515502  0.08419006  0.46232087  1
  O  O410  1  0.26541351  0.08373748  0.71118944  1
  O  O411  1  0.26464085  0.08347984  0.96151834  1
  O  O412  1  0.26831514  0.41654649  0.20997208  1
  O  O413  1  0.26789624  0.41723858  0.46069985  1
  O  O414  1  0.26541146  0.41583680  0.71228715  1
  O  O415  1  0.26680028  0.41647138  0.96119748  1
  O  O416  1  0.26788019  0.74967161  0.21279411  1
  O  O417  1  0.26635755  0.74956896  0.46238904  1
  O  O418  1  0.26436885  0.75012262  0.71151811  1
  O  O419  1  0.26821933  0.75028076  0.95939089  1
  O  O420  1  0.76476298  0.08379316  0.21160347  1
  O  O421  1  0.76566367  0.08313033  0.45946852  1
  O  O422  1  0.76935497  0.08385323  0.71070260  1
  O  O423  1  0.76584439  0.08334784  0.95956046  1
  O  O424  1  0.76562986  0.41614347  0.20904920  1
  O  O425  1  0.76506208  0.41656466  0.46229413  1
  O  O426  1  0.76667502  0.41610773  0.71297620  1
  O  O427  1  0.76513526  0.41656738  0.95942451  1
  O  O428  1  0.76579380  0.74969327  0.21021660  1
  O  O429  1  0.76613810  0.75044638  0.45949643  1
  O  O430  1  0.76587263  0.74972777  0.71247368  1
  O  O431  1  0.76668727  0.74997715  0.95947647  1
  O  O432  1  0.01865504  0.08413284  0.16429175  1
  O  O433  1  0.01615144  0.08317726  0.41546739  1
  O  O434  1  0.01748315  0.08358515  0.66508923  1
  O  O435  1  0.01793124  0.08405852  0.91209299  1
  O  O436  1  0.01921099  0.41598715  0.16414761  1
  O  O437  1  0.01701654  0.41619884  0.41533457  1
  O  O438  1  0.01601776  0.41645271  0.66582743  1
  O  O439  1  0.01729690  0.41663411  0.91276075  1
  O  O440  1  0.01573151  0.74980766  0.16189413  1
  O  O441  1  0.01880180  0.75072432  0.41452605  1
  O  O442  1  0.01851111  0.75006095  0.66435477  1
  O  O443  1  0.01796259  0.74957798  0.91568196  1
  O  O444  1  0.51500627  0.08307733  0.16563349  1
  O  O445  1  0.51643126  0.08373428  0.41324901  1
  O  O446  1  0.51576562  0.08356207  0.66676359  1
  O  O447  1  0.51459289  0.08385571  0.91245646  1
  O  O448  1  0.51383381  0.41649977  0.16361564  1
  O  O449  1  0.51330862  0.41583624  0.41330961  1
  O  O450  1  0.51626401  0.41713901  0.66299788  1
  O  O451  1  0.51671104  0.41642391  0.91555472  1
  O  O452  1  0.51398736  0.75017182  0.16429788  1
  O  O453  1  0.51317721  0.75000920  0.41414441  1
  O  O454  1  0.51475389  0.74935449  0.66305490  1
  O  O455  1  0.51720656  0.74984340  0.91463892  1
  O  O456  1  0.48269175  0.24939678  0.08705406  1
  O  O457  1  0.48214555  0.24995362  0.33558133  1
  O  O458  1  0.48345516  0.24982076  0.58523889  1
  O  O459  1  0.48258986  0.25121250  0.83729510  1
  O  O460  1  0.48356089  0.58333401  0.08461137  1
  O  O461  1  0.47962700  0.58309008  0.33577644  1
  O  O462  1  0.48129179  0.58258590  0.58538254  1
  O  O463  1  0.48299724  0.58279572  0.83733589  1
  O  O464  1  0.48157422  0.91726646  0.08505874  1
  O  O465  1  0.48234002  0.91670848  0.33816323  1
  O  O466  1  0.48399067  0.91716634  0.58459665  1
  O  O467  1  0.48441384  0.91571631  0.83645232  1
  O  O468  1  0.98549446  0.25031450  0.08376355  1
  O  O469  1  0.98335142  0.24978497  0.33727018  1
  O  O470  1  0.98385585  0.24973275  0.58759758  1
  O  O471  1  0.98472811  0.25041046  0.83734707  1
  O  O472  1  0.98581510  0.58272888  0.08725684  1
  O  O473  1  0.98658176  0.58338040  0.33618530  1
  O  O474  1  0.98498882  0.58367161  0.58374608  1
  O  O475  1  0.98260117  0.58335969  0.83556520  1
  O  O476  1  0.98425308  0.91763319  0.08438449  1
  O  O477  1  0.98239899  0.91624383  0.33463286  1
  O  O478  1  0.98362253  0.91710399  0.58727549  1
  O  O479  1  0.98487900  0.91629538  0.83493575  1
  O  O480  1  0.08959104  0.31536018  0.07717016  1
  O  O481  1  0.08705238  0.31501207  0.32757492  1
  O  O482  1  0.08789002  0.31405474  0.57725536  1
  O  O483  1  0.08839082  0.31557129  0.82742199  1
  O  O484  1  0.08957532  0.64719703  0.07783438  1
  O  O485  1  0.08969911  0.65000551  0.32778816  1
  O  O486  1  0.08895358  0.64906777  0.57752291  1
  O  O487  1  0.08655173  0.64844671  0.82817333  1
  O  O488  1  0.08812823  0.98282659  0.07819572  1
  O  O489  1  0.08648735  0.98080318  0.32695460  1
  O  O490  1  0.08704526  0.98238544  0.57810130  1
  O  O491  1  0.08867106  0.98160435  0.82738728  1
  O  O492  1  0.58637628  0.31470038  0.07691125  1
  O  O493  1  0.58619447  0.31426383  0.32634772  1
  O  O494  1  0.58668671  0.31601067  0.57778586  1
  O  O495  1  0.58639738  0.31635445  0.82828433  1
  O  O496  1  0.58750237  0.64846531  0.07683899  1
  O  O497  1  0.58344340  0.64829081  0.32711291  1
  O  O498  1  0.58505205  0.64733746  0.57683917  1
  O  O499  1  0.58642254  0.64817476  0.82785258  1
  O  O500  1  0.58584538  0.98164805  0.07663045  1
  O  O501  1  0.58565510  0.98241966  0.32803161  1
  O  O502  1  0.58818637  0.98194357  0.57704328  1
  O  O503  1  0.58800443  0.98072164  0.82758534  1
  O  O504  1  0.41103829  0.01826737  0.17243621  1
  O  O505  1  0.41265961  0.01891377  0.42251675  1
  O  O506  1  0.41168012  0.01835474  0.67386887  1
  O  O507  1  0.41093105  0.01923297  0.92180527  1
  O  O508  1  0.41063221  0.35017326  0.17153566  1
  O  O509  1  0.40952896  0.35100228  0.42178692  1
  O  O510  1  0.41283065  0.35202587  0.67274168  1
  O  O511  1  0.41236844  0.35153117  0.92312591  1
  O  O512  1  0.40967018  0.68639218  0.17250241  1
  O  O513  1  0.40943266  0.68474183  0.42241054  1
  O  O514  1  0.41118493  0.68404075  0.67145054  1
  O  O515  1  0.41344813  0.68417000  0.92268272  1
  O  O516  1  0.91454228  0.01908648  0.17208701  1
  O  O517  1  0.91254068  0.01788351  0.42170778  1
  O  O518  1  0.91355298  0.01840285  0.67314670  1
  O  O519  1  0.91426314  0.01928142  0.92250231  1
  O  O520  1  0.91511142  0.35125883  0.17243589  1
  O  O521  1  0.91311561  0.35090431  0.42203897  1
  O  O522  1  0.91238652  0.35070809  0.67291280  1
  O  O523  1  0.91369448  0.35158530  0.92241173  1
  O  O524  1  0.91241459  0.68461533  0.17214741  1
  O  O525  1  0.91522832  0.68546460  0.42284253  1
  O  O526  1  0.91448390  0.68561201  0.67267916  1
  O  O527  1  0.91397829  0.68362846  0.92333641  1
  O  O528  1  0.16434304  0.01860272  0.20187410  1
  O  O529  1  0.16183838  0.01918818  0.45265095  1
  O  O530  1  0.16154434  0.01870816  0.70246408  1
  O  O531  1  0.16041823  0.01971033  0.95253783  1
  O  O532  1  0.16398867  0.35256503  0.20146741  1
  O  O533  1  0.16462521  0.35119921  0.45221664  1
  O  O534  1  0.16190756  0.35060974  0.70388101  1
  O  O535  1  0.16298440  0.35086252  0.95243518  1
  O  O536  1  0.16433921  0.68447747  0.20325409  1
  O  O537  1  0.16287336  0.68406774  0.45292156  1
  O  O538  1  0.16046758  0.68589867  0.70221783  1
  O  O539  1  0.16436228  0.68492500  0.95113514  1
  O  O540  1  0.66087124  0.01949715  0.20310739  1
  O  O541  1  0.66204354  0.01690368  0.45247304  1
  O  O542  1  0.66533810  0.01906888  0.70198758  1
  O  O543  1  0.66206251  0.01805157  0.95263688  1
  O  O544  1  0.66212343  0.35017285  0.20295880  1
  O  O545  1  0.66153081  0.35156552  0.45305287  1
  O  O546  1  0.66273861  0.35143588  0.70221669  1
  O  O547  1  0.66114680  0.35142184  0.95137853  1
  O  O548  1  0.66185620  0.68486363  0.20255949  1
  O  O549  1  0.66189350  0.68613084  0.45231202  1
  O  O550  1  0.66228732  0.68456901  0.70256557  1
  O  O551  1  0.66258422  0.68489857  0.95150007  1
  O  O552  1  0.33753123  0.31604236  0.04710289  1
  O  O553  1  0.33978872  0.31452306  0.29649075  1
  O  O554  1  0.33609018  0.31613030  0.54732034  1
  O  O555  1  0.33636513  0.31350679  0.79891977  1
  O  O556  1  0.33863375  0.64860399  0.04595050  1
  O  O557  1  0.33711266  0.64795192  0.29813336  1
  O  O558  1  0.33707636  0.64837877  0.54793737  1
  O  O559  1  0.33916383  0.64806560  0.79738717  1
  O  O560  1  0.33856907  0.98053098  0.04793907  1
  O  O561  1  0.33929456  0.98250128  0.29763797  1
  O  O562  1  0.33754912  0.98123248  0.54767174  1
  O  O563  1  0.33478902  0.98305164  0.79747178  1
  O  O564  1  0.83615071  0.31509468  0.04744562  1
  O  O565  1  0.83656817  0.31510915  0.29817089  1
  O  O566  1  0.83922852  0.31488942  0.54807081  1
  O  O567  1  0.84014176  0.31523219  0.79743694  1
  O  O568  1  0.83610432  0.64918931  0.04658250  1
  O  O569  1  0.83709602  0.64773809  0.29768126  1
  O  O570  1  0.83683117  0.64886134  0.54806453  1
  O  O571  1  0.83899587  0.64699126  0.79862794  1
  O  O572  1  0.83525044  0.98098648  0.04765189  1
  O  O573  1  0.83790679  0.98197676  0.29804096  1
  O  O574  1  0.83844387  0.98123381  0.54782272  1
  O  O575  1  0.83913759  0.98277045  0.79684945  1
  O  O576  1  0.41121429  0.14837248  0.17255210  1
  O  O577  1  0.41293175  0.14907269  0.42229309  1
  O  O578  1  0.41136217  0.14821334  0.67370030  1
  O  O579  1  0.41125620  0.14949688  0.92147446  1
  O  O580  1  0.40965580  0.48032532  0.17220451  1
  O  O581  1  0.40971882  0.48126526  0.42231546  1
  O  O582  1  0.41240742  0.48208016  0.67202111  1
  O  O583  1  0.41258600  0.48149173  0.92289421  1
  O  O584  1  0.41074005  0.81654273  0.17179469  1
  O  O585  1  0.40935197  0.81495460  0.42232096  1
  O  O586  1  0.41138158  0.81431089  0.67243396  1
  O  O587  1  0.41273513  0.81406213  0.92297339  1
  O  O588  1  0.91472455  0.14910017  0.17211478  1
  O  O589  1  0.91243096  0.14828454  0.42215067  1
  O  O590  1  0.91354428  0.14849399  0.67313514  1
  O  O591  1  0.91433741  0.14949763  0.92220856  1
  O  O592  1  0.91544746  0.48133565  0.17307680  1
  O  O593  1  0.91328708  0.48118685  0.42243948  1
  O  O594  1  0.91171560  0.48080836  0.67338920  1
  O  O595  1  0.91372882  0.48185099  0.92245480  1
  O  O596  1  0.91219495  0.81497444  0.17166995  1
  O  O597  1  0.91473053  0.81566664  0.42202938  1
  O  O598  1  0.91491783  0.81571753  0.67268413  1
  O  O599  1  0.91340573  0.81368144  0.92371707  1
  O  O600  1  0.08954213  0.18522159  0.07734226  1
  O  O601  1  0.08722784  0.18512698  0.32797265  1
  O  O602  1  0.08740099  0.18401299  0.57797885  1
  O  O603  1  0.08850461  0.18548745  0.82751590  1
  O  O604  1  0.08918116  0.51694463  0.07835721  1
  O  O605  1  0.09102021  0.51980961  0.32704526  1
  O  O606  1  0.08909165  0.51899191  0.57664983  1
  O  O607  1  0.08650167  0.51832900  0.82763920  1
  O  O608  1  0.08794379  0.85251415  0.07736471  1
  O  O609  1  0.08639782  0.85075729  0.32708581  1
  O  O610  1  0.08735026  0.85219400  0.57817251  1
  O  O611  1  0.08887766  0.85133976  0.82766447  1
  O  O612  1  0.58661182  0.18476305  0.07702587  1
  O  O613  1  0.58597712  0.18421960  0.32687369  1
  O  O614  1  0.58758757  0.18570110  0.57792534  1
  O  O615  1  0.58629891  0.18625793  0.82721142  1
  O  O616  1  0.58764537  0.51848946  0.07678231  1
  O  O617  1  0.58351448  0.51809043  0.32718638  1
  O  O618  1  0.58505725  0.51716906  0.57728437  1
  O  O619  1  0.58652326  0.51776229  0.82829893  1
  O  O620  1  0.58542965  0.85175656  0.07660401  1
  O  O621  1  0.58581617  0.85219229  0.32757165  1
  O  O622  1  0.58781438  0.85185288  0.57654359  1
  O  O623  1  0.58804944  0.85036671  0.82831084  1
  O  O624  1  0.33793668  0.18604545  0.04757702  1
  O  O625  1  0.33882485  0.18436738  0.29748236  1
  O  O626  1  0.33652275  0.18598507  0.54801925  1
  O  O627  1  0.33582743  0.18357439  0.79820540  1
  O  O628  1  0.33884038  0.51827181  0.04587222  1
  O  O629  1  0.33656561  0.51786108  0.29783217  1
  O  O630  1  0.33737130  0.51821527  0.54784038  1
  O  O631  1  0.33885090  0.51812286  0.79768843  1
  O  O632  1  0.33815835  0.85038549  0.04715760  1
  O  O633  1  0.33958754  0.85220890  0.29734125  1
  O  O634  1  0.33732797  0.85088590  0.54701329  1
  O  O635  1  0.33507963  0.85300335  0.79775680  1
  O  O636  1  0.83593212  0.18492850  0.04730623  1
  O  O637  1  0.83656249  0.18517762  0.29824860  1
  O  O638  1  0.83936880  0.18495684  0.54779876  1
  O  O639  1  0.84019621  0.18504844  0.79747323  1
  O  O640  1  0.83642293  0.51891873  0.04745267  1
  O  O641  1  0.83702574  0.51761552  0.29756377  1
  O  O642  1  0.83716522  0.51871732  0.54797467  1
  O  O643  1  0.83807282  0.51687110  0.79823261  1
  O  O644  1  0.83538020  0.85068515  0.04688274  1
  O  O645  1  0.83780923  0.85196762  0.29825660  1
  O  O646  1  0.83799005  0.85128250  0.54808259  1
  O  O647  1  0.83928976  0.85241384  0.79731830  1
  O  O648  1  0.16421851  0.14853524  0.20201078  1
  O  O649  1  0.16169643  0.14956244  0.45334290  1
  O  O650  1  0.16162172  0.14883523  0.70282493  1
  O  O651  1  0.16148072  0.14975532  0.95288190  1
  O  O652  1  0.16478978  0.48263928  0.20191017  1
  O  O653  1  0.16380691  0.48137378  0.45302202  1
  O  O654  1  0.16208152  0.48093320  0.70304053  1
  O  O655  1  0.16268699  0.48076436  0.95170659  1
  O  O656  1  0.16440798  0.81459684  0.20251172  1
  O  O657  1  0.16262454  0.81415996  0.45161820  1
  O  O658  1  0.16109444  0.81617757  0.70275768  1
  O  O659  1  0.16372158  0.81470306  0.95193780  1
  O  O660  1  0.66149260  0.14978339  0.20366273  1
  O  O661  1  0.66112479  0.14698183  0.45182306  1
  O  O662  1  0.66561723  0.14910467  0.70185012  1
  O  O663  1  0.66203228  0.14847837  0.95209025  1
  O  O664  1  0.66140888  0.48040973  0.20262051  1
  O  O665  1  0.66136558  0.48164308  0.45282854  1
  O  O666  1  0.66291425  0.48143192  0.70214689  1
  O  O667  1  0.66105742  0.48157595  0.95180467  1
  O  O668  1  0.66218954  0.81509665  0.20235254  1
  O  O669  1  0.66257986  0.81637096  0.45287134  1
  O  O670  1  0.66224075  0.81472168  0.70285554  1
  O  O671  1  0.66253997  0.81499871  0.95172608  1
