# generated using pymatgen
data_Na2MnFe(PO4)2
_symmetry_space_group_name_H-M   'P 1'
_cell_length_a   21.07290202
_cell_length_b   18.92415282
_cell_length_c   20.03346639
_cell_angle_alpha   90.00007107
_cell_angle_beta   89.99835659
_cell_angle_gamma   89.99836336
_symmetry_Int_Tables_number   1
_chemical_formula_structural   Na2MnFe(PO4)2
_chemical_formula_sum   'Na96 Mn48 Fe48 P96 O384'
_cell_volume   7989.08231172
_cell_formula_units_Z   48
loop_
 _symmetry_equiv_pos_site_id
 _symmetry_equiv_pos_as_xyz
  1  'x, y, z'
loop_
 _atom_site_type_symbol
 _atom_site_label
 _atom_site_symmetry_multiplicity
 _atom_site_fract_x
 _atom_site_fract_y
 _atom_site_fract_z
 _atom_site_occupancy
  Na  Na0  1  0.00070778  0.00082925  0.00014256  1
  Na  Na1  1  0.00124506  0.00040700  0.25144280  1
  Na  Na2  1  -0.00179628  -0.00047636  0.49962847  1
  Na  Na3  1  -0.00327184  -0.00080703  0.74878999  1
  Na  Na4  1  0.00158036  0.33324383  -0.00073756  1
  Na  Na5  1  0.00178729  0.33283371  0.25047293  1
  Na  Na6  1  0.00112625  0.33326550  0.50042620  1
  Na  Na7  1  0.00065280  0.33302408  0.75041558  1
  Na  Na8  1  0.00024105  0.66696793  -0.00089329  1
  Na  Na9  1  0.00129681  0.66691890  0.24867947  1
  Na  Na10  1  0.00099338  0.66686334  0.50103434  1
  Na  Na11  1  -0.00079365  0.66627485  0.75061990  1
  Na  Na12  1  0.49820765  -0.00091185  -0.00058025  1
  Na  Na13  1  0.50062856  0.00019805  0.24982957  1
  Na  Na14  1  0.50267801  0.00110541  0.50109167  1
  Na  Na15  1  0.50006355  -0.00009017  0.74998904  1
  Na  Na16  1  0.49883085  0.33318203  -0.00112435  1
  Na  Na17  1  0.49920050  0.33293591  0.25090805  1
  Na  Na18  1  0.49974689  0.33223645  0.50109929  1
  Na  Na19  1  0.50094417  0.33364618  0.74875949  1
  Na  Na20  1  0.49912778  0.66645486  -0.00061561  1
  Na  Na21  1  0.49685262  0.66573528  0.25142587  1
  Na  Na22  1  0.49878959  0.66607287  0.50092880  1
  Na  Na23  1  0.50210300  0.66742800  0.74831805  1
  Na  Na24  1  0.24943954  -0.00027168  0.12372366  1
  Na  Na25  1  0.24745140  -0.00136778  0.37503181  1
  Na  Na26  1  0.24999772  -0.00003610  0.62595237  1
  Na  Na27  1  0.25151871  0.00066387  0.87588575  1
  Na  Na28  1  0.24979993  0.33260885  0.12527508  1
  Na  Na29  1  0.25065933  0.33244130  0.37625714  1
  Na  Na30  1  0.24927238  0.33254816  0.62456541  1
  Na  Na31  1  0.24806570  0.33223649  0.87359438  1
  Na  Na32  1  0.25014588  0.66666224  0.12504672  1
  Na  Na33  1  0.25095656  0.66694839  0.37591415  1
  Na  Na34  1  0.25052618  0.66737502  0.62498873  1
  Na  Na35  1  0.24748561  0.66527772  0.87354585  1
  Na  Na36  1  0.75009617  -0.00029493  0.12441654  1
  Na  Na37  1  0.75025551  0.00088592  0.37610937  1
  Na  Na38  1  0.75146688  0.00094536  0.62476462  1
  Na  Na39  1  0.75079201  -0.00038061  0.87439320  1
  Na  Na40  1  0.74996960  0.33374032  0.12608580  1
  Na  Na41  1  0.74757603  0.33255538  0.37448694  1
  Na  Na42  1  0.75032519  0.33348201  0.62498307  1
  Na  Na43  1  0.74984530  0.33277588  0.87467202  1
  Na  Na44  1  0.75047337  0.66726523  0.12454168  1
  Na  Na45  1  0.74933135  0.66671540  0.37557403  1
  Na  Na46  1  0.74975748  0.66635144  0.62618467  1
  Na  Na47  1  0.75089181  0.66687409  0.87395858  1
  Na  Na48  1  0.00278010  0.16558440  -0.00057928  1
  Na  Na49  1  0.00120087  0.16687204  0.25122987  1
  Na  Na50  1  -0.00025722  0.16726819  0.49981675  1
  Na  Na51  1  -0.00042692  0.16663589  0.74935716  1
  Na  Na52  1  0.00063389  0.49984349  -0.00115017  1
  Na  Na53  1  0.00124306  0.49999138  0.24997398  1
  Na  Na54  1  -0.00082882  0.50063695  0.50102902  1
  Na  Na55  1  -0.00141932  0.50065042  0.75071948  1
  Na  Na56  1  -0.00127870  0.83373438  0.00019084  1
  Na  Na57  1  0.00234868  0.83260972  0.24958152  1
  Na  Na58  1  0.00086839  0.83309185  0.50006139  1
  Na  Na59  1  -0.00046792  0.83267169  0.75006246  1
  Na  Na60  1  0.49895347  0.16647729  -0.00156214  1
  Na  Na61  1  0.49811915  0.16745206  0.25086212  1
  Na  Na62  1  0.50071928  0.16683895  0.50092615  1
  Na  Na63  1  0.50113979  0.16652063  0.74983894  1
  Na  Na64  1  0.49810918  0.50094341  -0.00069758  1
  Na  Na65  1  0.49780416  0.50057109  0.25091021  1
  Na  Na66  1  0.49956148  0.50044038  0.50117429  1
  Na  Na67  1  0.49980512  0.50081743  0.74841531  1
  Na  Na68  1  0.49949027  0.83373627  0.00011440  1
  Na  Na69  1  0.50075860  0.83335597  0.25024102  1
  Na  Na70  1  0.50039600  0.83402217  0.50084657  1
  Na  Na71  1  0.50203904  0.83242785  0.74862719  1
  Na  Na72  1  0.24776583  0.16745033  0.12489011  1
  Na  Na73  1  0.24954406  0.16695004  0.37525005  1
  Na  Na74  1  0.25054892  0.16644554  0.62520317  1
  Na  Na75  1  0.24761495  0.16720575  0.87454507  1
  Na  Na76  1  0.25058775  0.50067268  0.12488516  1
  Na  Na77  1  0.25264549  0.49917326  0.37622210  1
  Na  Na78  1  0.25084580  0.50067827  0.62465572  1
  Na  Na79  1  0.24992110  0.50098364  0.87404977  1
  Na  Na80  1  0.25015568  0.83364975  0.12457830  1
  Na  Na81  1  0.24853188  0.83343946  0.37519709  1
  Na  Na82  1  0.24767086  0.83331920  0.62610713  1
  Na  Na83  1  0.24966750  0.83315103  0.87435856  1
  Na  Na84  1  0.75083668  0.16586398  0.12576907  1
  Na  Na85  1  0.75068502  0.16601385  0.37547684  1
  Na  Na86  1  0.74984133  0.16694474  0.62515655  1
  Na  Na87  1  0.74955347  0.16705969  0.87429386  1
  Na  Na88  1  0.74975676  0.50035717  0.12515753  1
  Na  Na89  1  0.74814427  0.50045999  0.37472602  1
  Na  Na90  1  0.75044286  0.50019441  0.62522364  1
  Na  Na91  1  0.75150184  0.50032916  0.87488145  1
  Na  Na92  1  0.75000284  0.83342320  0.12400795  1
  Na  Na93  1  0.74837990  0.83371947  0.37597035  1
  Na  Na94  1  0.75026058  0.83307495  0.62558297  1
  Na  Na95  1  0.75067684  0.83335615  0.87387241  1
  Mn  Mn96  1  0.89245563  0.25079419  0.37732665  1
  Mn  Mn97  1  0.35787498  0.74978623  0.00096376  1
  Mn  Mn98  1  0.10836764  0.75003875  0.12179328  1
  Mn  Mn99  1  0.60734789  0.08381525  0.12278571  1
  Mn  Mn100  1  0.35706617  0.41633847  0.75183133  1
  Mn  Mn101  1  0.64151801  0.25004893  0.99831189  1
  Mn  Mn102  1  0.14278606  0.58313428  0.49830336  1
  Mn  Mn103  1  0.60829741  0.41659847  0.62258440  1
  Mn  Mn104  1  0.60805535  0.41766965  0.87243907  1
  Mn  Mn105  1  0.39192678  0.25030124  0.87627853  1
  Mn  Mn106  1  0.89235736  0.91733366  0.12799821  1
  Mn  Mn107  1  0.14210577  0.91635044  0.99681140  1
  Mn  Mn108  1  0.85870581  0.08342234  0.00237500  1
  Mn  Mn109  1  0.10688314  0.08298771  0.62251642  1
  Mn  Mn110  1  0.39244119  0.91692149  0.62744161  1
  Mn  Mn111  1  0.85778212  0.41642238  0.25273930  1
  Mn  Mn112  1  0.14155359  0.91675859  0.74801605  1
  Mn  Mn113  1  0.10916372  0.41756144  0.37327882  1
  Mn  Mn114  1  0.85740934  0.41634478  0.50201507  1
  Mn  Mn115  1  0.35762310  0.75053390  0.75233817  1
  Mn  Mn116  1  0.60720414  0.74970340  0.12264937  1
  Mn  Mn117  1  0.35731259  0.08298225  0.25227636  1
  Mn  Mn118  1  0.35812781  0.08238645  0.50239918  1
  Mn  Mn119  1  0.35698720  0.08379949  0.00205163  1
  Mn  Mn120  1  0.89328706  0.24987386  0.12719023  1
  Mn  Mn121  1  0.39196517  0.91715103  0.37778666  1
  Mn  Mn122  1  0.85799232  0.75061557  0.25261673  1
  Mn  Mn123  1  0.89255975  0.91584846  0.37673867  1
  Mn  Mn124  1  0.14312601  0.58298655  0.24800807  1
  Mn  Mn125  1  0.64159503  0.58363973  0.99747681  1
  Mn  Mn126  1  0.60776023  0.08280548  0.87237159  1
  Mn  Mn127  1  0.60665166  0.41669913  0.12271213  1
  Mn  Mn128  1  0.64075024  0.58444822  0.24767711  1
  Mn  Mn129  1  0.35831518  0.41610658  0.25279972  1
  Mn  Mn130  1  0.64123790  0.24921732  0.24744012  1
  Mn  Mn131  1  0.35759295  0.75075866  0.25254501  1
  Mn  Mn132  1  0.60700189  0.75009380  0.37296109  1
  Mn  Mn133  1  0.89211341  0.58349913  0.37700216  1
  Mn  Mn134  1  0.85818361  0.41669106  0.00276245  1
  Mn  Mn135  1  0.64283483  0.91701307  0.49788888  1
  Mn  Mn136  1  0.85806632  0.74975388  0.50247936  1
  Mn  Mn137  1  0.89254855  0.24964436  0.87719201  1
  Mn  Mn138  1  0.89261372  0.58280288  0.12708361  1
  Mn  Mn139  1  0.35743932  0.41645077  0.00143954  1
  Mn  Mn140  1  0.10776267  0.41692957  0.87179519  1
  Mn  Mn141  1  0.10784776  0.08287217  0.37319992  1
  Mn  Mn142  1  0.10905178  0.41637035  0.12235270  1
  Mn  Mn143  1  0.64203441  0.91644821  0.99740888  1
  Fe  Fe144  1  0.60603446  0.41641066  0.37398952  1
  Fe  Fe145  1  0.39248717  0.58311659  0.37802613  1
  Fe  Fe146  1  0.39316669  0.24964084  0.62702409  1
  Fe  Fe147  1  0.10754945  0.08321558  0.12369950  1
  Fe  Fe148  1  0.39148137  0.58351018  0.12644766  1
  Fe  Fe149  1  0.14171109  0.91678162  0.49910254  1
  Fe  Fe150  1  0.35801049  0.41641923  0.50255458  1
  Fe  Fe151  1  0.10828928  0.74951500  0.37370594  1
  Fe  Fe152  1  0.85756906  0.08313199  0.25176758  1
  Fe  Fe153  1  0.10635875  0.74949910  0.62376650  1
  Fe  Fe154  1  0.89238299  0.91630863  0.87619875  1
  Fe  Fe155  1  0.10623498  0.75049948  0.87324883  1
  Fe  Fe156  1  0.64342788  0.91681713  0.74843338  1
  Fe  Fe157  1  0.39269076  0.24979178  0.37762803  1
  Fe  Fe158  1  0.10675160  0.41708307  0.62371104  1
  Fe  Fe159  1  0.14256687  0.91712692  0.24764030  1
  Fe  Fe160  1  0.35675362  0.75043170  0.50221206  1
  Fe  Fe161  1  0.64251726  0.91694351  0.24835510  1
  Fe  Fe162  1  0.85691477  0.08394724  0.50185551  1
  Fe  Fe163  1  0.89236705  0.91625863  0.62669570  1
  Fe  Fe164  1  0.10708553  0.08221924  0.87225460  1
  Fe  Fe165  1  0.89219246  0.58310647  0.62692324  1
  Fe  Fe166  1  0.64268026  0.25055569  0.49845471  1
  Fe  Fe167  1  0.39237875  0.91680055  0.12713472  1
  Fe  Fe168  1  0.60795493  0.75008465  0.62299246  1
  Fe  Fe169  1  0.64352508  0.58337383  0.74850758  1
  Fe  Fe170  1  0.39339060  0.91563405  0.87581162  1
  Fe  Fe171  1  0.64322479  0.24998073  0.74806988  1
  Fe  Fe172  1  0.89254133  0.25061270  0.62662999  1
  Fe  Fe173  1  0.14266291  0.25050569  0.99797604  1
  Fe  Fe174  1  0.39348910  0.58344762  0.62700787  1
  Fe  Fe175  1  0.14334191  0.24953238  0.24831494  1
  Fe  Fe176  1  0.35741603  0.08336091  0.75139759  1
  Fe  Fe177  1  0.60803826  0.74979343  0.87315332  1
  Fe  Fe178  1  0.60791379  0.08390791  0.37320379  1
  Fe  Fe179  1  0.89291336  0.58396156  0.87687390  1
  Fe  Fe180  1  0.39264928  0.58438550  0.87549085  1
  Fe  Fe181  1  0.60804379  0.08320902  0.62403863  1
  Fe  Fe182  1  0.64258710  0.58278087  0.49843530  1
  Fe  Fe183  1  0.14237033  0.25005183  0.74710448  1
  Fe  Fe184  1  0.85767285  0.41650294  0.75106939  1
  Fe  Fe185  1  0.85725407  0.74988420  0.00118743  1
  Fe  Fe186  1  0.14336316  0.24973445  0.49907439  1
  Fe  Fe187  1  0.39116684  0.24971772  0.12662779  1
  Fe  Fe188  1  0.85682103  0.08366240  0.75146695  1
  Fe  Fe189  1  0.14276679  0.58310595  0.99778791  1
  Fe  Fe190  1  0.14190620  0.58272409  0.74762558  1
  Fe  Fe191  1  0.85730556  0.75004216  0.75175067  1
  P  P192  1  0.05571267  0.24891441  0.11042180  1
  P  P193  1  0.05598327  0.25015250  0.36104999  1
  P  P194  1  0.05387428  0.25069431  0.61068909  1
  P  P195  1  0.05555418  0.24890904  0.85995076  1
  P  P196  1  0.05455020  0.58305897  0.10849098  1
  P  P197  1  0.05383598  0.58433501  0.36019077  1
  P  P198  1  0.05306194  0.58298602  0.61182542  1
  P  P199  1  0.05402063  0.58423838  0.86036281  1
  P  P200  1  0.05460230  0.91774161  0.11078825  1
  P  P201  1  0.05560770  0.91556765  0.36078390  1
  P  P202  1  0.05199634  0.91588455  0.60994014  1
  P  P203  1  0.05164509  0.91661207  0.85977615  1
  P  P204  1  0.55052350  0.24982873  0.10966907  1
  P  P205  1  0.55342491  0.25010722  0.36195771  1
  P  P206  1  0.55483656  0.24909485  0.61096592  1
  P  P207  1  0.55405187  0.25034652  0.85864940  1
  P  P208  1  0.55086314  0.58344243  0.10985614  1
  P  P209  1  0.55256497  0.58236273  0.36206126  1
  P  P210  1  0.55502947  0.58395747  0.61086073  1
  P  P211  1  0.55283882  0.58432794  0.85863223  1
  P  P212  1  0.55296708  0.91691161  0.11080998  1
  P  P213  1  0.55407056  0.91777536  0.35977122  1
  P  P214  1  0.55547637  0.91696150  0.61175513  1
  P  P215  1  0.55326864  0.91555509  0.85900797  1
  P  P216  1  0.44590557  0.08335454  0.13987441  1
  P  P217  1  0.44819609  0.08364870  0.39048679  1
  P  P218  1  0.44740750  0.08411778  0.64062810  1
  P  P219  1  0.44507502  0.08244822  0.88817455  1
  P  P220  1  0.44562623  0.41648717  0.13985160  1
  P  P221  1  0.44661044  0.41610903  0.39149445  1
  P  P222  1  0.44543485  0.41643383  0.63868461  1
  P  P223  1  0.44637734  0.41802149  0.88880999  1
  P  P224  1  0.44590457  0.75016723  0.13992621  1
  P  P225  1  0.44554569  0.75017554  0.39150910  1
  P  P226  1  0.44653519  0.74968508  0.63865487  1
  P  P227  1  0.44827245  0.74990407  0.88883051  1
  P  P228  1  0.94802110  0.08364415  0.14130974  1
  P  P229  1  0.94477503  0.08336609  0.38985891  1
  P  P230  1  0.94412172  0.08394622  0.63877361  1
  P  P231  1  0.94653063  0.08257942  0.88835017  1
  P  P232  1  0.94781385  0.41628001  0.14045365  1
  P  P233  1  0.94763630  0.41683501  0.39069482  1
  P  P234  1  0.94688745  0.41631117  0.64045000  1
  P  P235  1  0.94529094  0.41713950  0.88849754  1
  P  P236  1  0.94594382  0.75002045  0.13884148  1
  P  P237  1  0.94861464  0.74990827  0.39028058  1
  P  P238  1  0.94657268  0.74971885  0.64055232  1
  P  P239  1  0.94533975  0.75010055  0.88886557  1
  P  P240  1  0.19593579  0.08324108  0.23456018  1
  P  P241  1  0.19655007  0.08326571  0.48567430  1
  P  P242  1  0.19622983  0.08340176  0.73584027  1
  P  P243  1  0.19436907  0.08401129  0.98514971  1
  P  P244  1  0.19762833  0.41583013  0.23536539  1
  P  P245  1  0.19725621  0.41616477  0.48710578  1
  P  P246  1  0.19555994  0.41697393  0.73370425  1
  P  P247  1  0.19671364  0.41688233  0.98418912  1
  P  P248  1  0.19567406  0.75058735  0.23591447  1
  P  P249  1  0.19554585  0.75039165  0.48643957  1
  P  P250  1  0.19393146  0.74913948  0.73557017  1
  P  P251  1  0.19608121  0.74918423  0.98341607  1
  P  P252  1  0.69653738  0.08236930  0.23607044  1
  P  P253  1  0.69586653  0.08460158  0.48612068  1
  P  P254  1  0.69723358  0.08298101  0.73470211  1
  P  P255  1  0.69698656  0.08319362  0.98454139  1
  P  P256  1  0.69459958  0.41689502  0.23608947  1
  P  P257  1  0.69572539  0.41670824  0.48455130  1
  P  P258  1  0.69803750  0.41708545  0.73517047  1
  P  P259  1  0.69678322  0.41685657  0.98476550  1
  P  P260  1  0.69633734  0.75127500  0.23486366  1
  P  P261  1  0.69555802  0.74891359  0.48656597  1
  P  P262  1  0.69602537  0.75006745  0.73597195  1
  P  P263  1  0.69720386  0.75008503  0.98363290  1
  P  P264  1  0.30212474  0.24999932  0.01497979  1
  P  P265  1  0.30398541  0.24939220  0.26516451  1
  P  P266  1  0.30474383  0.24997965  0.51495993  1
  P  P267  1  0.30301502  0.24908050  0.76328134  1
  P  P268  1  0.30359754  0.58377094  0.01360890  1
  P  P269  1  0.30537652  0.58341501  0.26539343  1
  P  P270  1  0.30582379  0.58365877  0.51496519  1
  P  P271  1  0.30366323  0.58359691  0.76373745  1
  P  P272  1  0.30513862  0.91614424  0.01400075  1
  P  P273  1  0.30272133  0.91703287  0.26431706  1
  P  P274  1  0.30146286  0.91568495  0.51558132  1
  P  P275  1  0.30377368  0.91741053  0.76563592  1
  P  P276  1  0.80316438  0.24987344  0.01559460  1
  P  P277  1  0.80328660  0.24897983  0.26516076  1
  P  P278  1  0.80271859  0.24977283  0.51539734  1
  P  P279  1  0.80384825  0.25007409  0.76334527  1
  P  P280  1  0.80437474  0.58454586  0.01374355  1
  P  P281  1  0.80255230  0.58368141  0.26527967  1
  P  P282  1  0.80261702  0.58315744  0.51588217  1
  P  P283  1  0.80481870  0.58336897  0.76405756  1
  P  P284  1  0.80493781  0.91578636  0.01354377  1
  P  P285  1  0.80199089  0.91748900  0.26545026  1
  P  P286  1  0.80431477  0.91717064  0.51561885  1
  P  P287  1  0.80452890  0.91665078  0.76365820  1
  O  O288  1  0.05945498  0.24994703  0.18726022  1
  O  O289  1  0.06033135  0.25007670  0.43789227  1
  O  O290  1  0.05846649  0.24965995  0.68746024  1
  O  O291  1  0.05947521  0.24996279  0.93677599  1
  O  O292  1  0.05803530  0.58304468  0.18530892  1
  O  O293  1  0.05680964  0.58347865  0.43706380  1
  O  O294  1  0.05730338  0.58279793  0.68851256  1
  O  O295  1  0.05883371  0.58321732  0.93701702  1
  O  O296  1  0.05865388  0.91700097  0.18759773  1
  O  O297  1  0.05915381  0.91670959  0.43765857  1
  O  O298  1  0.05558471  0.91691519  0.68663447  1
  O  O299  1  0.05532490  0.91682763  0.93648059  1
  O  O300  1  0.55460813  0.24956552  0.18645153  1
  O  O301  1  0.55822510  0.24977633  0.43864887  1
  O  O302  1  0.55999742  0.25008358  0.68767355  1
  O  O303  1  0.55663599  0.25014969  0.93548117  1
  O  O304  1  0.55455403  0.58363562  0.18663188  1
  O  O305  1  0.55754383  0.58314842  0.43871790  1
  O  O306  1  0.56022103  0.58321075  0.68754077  1
  O  O307  1  0.55596755  0.58357713  0.93541752  1
  O  O308  1  0.55810646  0.91698535  0.18745884  1
  O  O309  1  0.55740144  0.91719312  0.43663725  1
  O  O310  1  0.55960243  0.91687506  0.68849518  1
  O  O311  1  0.55626603  0.91639825  0.93582203  1
  O  O312  1  0.44303476  0.08334015  0.06302694  1
  O  O313  1  0.44375591  0.08297235  0.31384622  1
  O  O314  1  0.44376809  0.08338707  0.56387382  1
  O  O315  1  0.44123224  0.08358653  0.81138689  1
  O  O316  1  0.44306588  0.41641227  0.06300897  1
  O  O317  1  0.44353027  0.41600240  0.31470362  1
  O  O318  1  0.44168776  0.41616279  0.56191436  1
  O  O319  1  0.44349621  0.41707747  0.81199983  1
  O  O320  1  0.44347409  0.75017146  0.06310863  1
  O  O321  1  0.44267500  0.75112769  0.31466177  1
  O  O322  1  0.44135244  0.75073279  0.56206206  1
  O  O323  1  0.44489096  0.74996041  0.81210804  1
  O  O324  1  0.94434823  0.08357663  0.06447042  1
  O  O325  1  0.94082846  0.08343425  0.31308415  1
  O  O326  1  0.94059913  0.08430179  0.56191137  1
  O  O327  1  0.94118132  0.08343784  0.81166339  1
  O  O328  1  0.94444915  0.41615330  0.06357764  1
  O  O329  1  0.94424910  0.41639752  0.31391425  1
  O  O330  1  0.94347811  0.41624361  0.56371643  1
  O  O331  1  0.94089289  0.41630874  0.81172454  1
  O  O332  1  0.94144636  0.75011151  0.06207496  1
  O  O333  1  0.94480563  0.75015014  0.31353321  1
  O  O334  1  0.94357232  0.74966524  0.56378000  1
  O  O335  1  0.94084910  0.74997746  0.81210310  1
  O  O336  1  0.19085225  0.08292115  0.06191580  1
  O  O337  1  0.19349031  0.08299116  0.31146171  1
  O  O338  1  0.19363588  0.08333567  0.56243219  1
  O  O339  1  0.19147299  0.08240049  0.81256294  1
  O  O340  1  0.19475432  0.41704020  0.06101034  1
  O  O341  1  0.19520794  0.41663139  0.31222943  1
  O  O342  1  0.19175370  0.41711106  0.56368358  1
  O  O343  1  0.19305236  0.41732008  0.81055277  1
  O  O344  1  0.19375411  0.75017499  0.06029259  1
  O  O345  1  0.19226769  0.74967473  0.31274702  1
  O  O346  1  0.19042601  0.74967917  0.56318370  1
  O  O347  1  0.18951634  0.75001831  0.81230253  1
  O  O348  1  0.69344073  0.08304784  0.06137223  1
  O  O349  1  0.69177175  0.08350258  0.31282611  1
  O  O350  1  0.69138878  0.08384932  0.56282335  1
  O  O351  1  0.69375922  0.08282167  0.81143155  1
  O  O352  1  0.69308732  0.41705745  0.06158591  1
  O  O353  1  0.68964358  0.41681757  0.31286168  1
  O  O354  1  0.69357355  0.41670502  0.56143604  1
  O  O355  1  0.69460545  0.41718041  0.81185093  1
  O  O356  1  0.69296705  0.75006283  0.06037627  1
  O  O357  1  0.69290789  0.75015641  0.31170505  1
  O  O358  1  0.69186431  0.74949966  0.56341212  1
  O  O359  1  0.69160963  0.75002643  0.81269065  1
  O  O360  1  0.30839474  0.24953551  0.18839385  1
  O  O361  1  0.30938588  0.24937839  0.43816154  1
  O  O362  1  0.30835719  0.24945857  0.68664766  1
  O  O363  1  0.30611594  0.24972028  0.93822327  1
  O  O364  1  0.30897472  0.58354946  0.18847211  1
  O  O365  1  0.30947538  0.58331496  0.43806683  1
  O  O366  1  0.30926067  0.58412512  0.68708471  1
  O  O367  1  0.30852866  0.58414419  0.93688006  1
  O  O368  1  0.30793730  0.91705732  0.18762812  1
  O  O369  1  0.30525106  0.91630146  0.43884634  1
  O  O370  1  0.30678771  0.91632482  0.68880743  1
  O  O371  1  0.30983276  0.91577776  0.93725037  1
  O  O372  1  0.80693942  0.24978506  0.18841417  1
  O  O373  1  0.80637046  0.25040684  0.43870071  1
  O  O374  1  0.80833719  0.25040699  0.68664956  1
  O  O375  1  0.80649880  0.24977790  0.93872749  1
  O  O376  1  0.80633996  0.58358614  0.18848142  1
  O  O377  1  0.80633602  0.58349654  0.43916153  1
  O  O378  1  0.80919319  0.58328123  0.68727096  1
  O  O379  1  0.80872818  0.58391550  0.93691899  1
  O  O380  1  0.80562376  0.91683689  0.18865124  1
  O  O381  1  0.80704173  0.91607356  0.43882911  1
  O  O382  1  0.80891674  0.91623409  0.68692435  1
  O  O383  1  0.80903575  0.91655113  0.93671231  1
  O  O384  1  0.23195676  0.25016187  0.03907384  1
  O  O385  1  0.23364320  0.24932435  0.28887553  1
  O  O386  1  0.23419342  0.24956559  0.53837444  1
  O  O387  1  0.23253685  0.24984974  0.78659343  1
  O  O388  1  0.23324035  0.58380221  0.03733282  1
  O  O389  1  0.23548547  0.58309071  0.28999605  1
  O  O390  1  0.23565976  0.58396241  0.53910658  1
  O  O391  1  0.23296947  0.58306391  0.78632678  1
  O  O392  1  0.23483063  0.91645840  0.03735523  1
  O  O393  1  0.23234754  0.91685233  0.28775298  1
  O  O394  1  0.23141174  0.91649728  0.54038314  1
  O  O395  1  0.23394940  0.91694885  0.79050377  1
  O  O396  1  0.73355165  0.24977983  0.04096258  1
  O  O397  1  0.73341964  0.24899943  0.28988685  1
  O  O398  1  0.73251556  0.25046737  0.53971557  1
  O  O399  1  0.73345414  0.24970389  0.78728882  1
  O  O400  1  0.73437294  0.58410284  0.03812935  1
  O  O401  1  0.73268653  0.58387801  0.28992162  1
  O  O402  1  0.73250234  0.58285352  0.54029566  1
  O  O403  1  0.73427277  0.58373273  0.78767252  1
  O  O404  1  0.73493222  0.91630045  0.03786040  1
  O  O405  1  0.73220366  0.91734201  0.29071022  1
  O  O406  1  0.73454659  0.91694342  0.54066629  1
  O  O407  1  0.73404128  0.91664728  0.78742160  1
  O  O408  1  0.26543540  0.08341702  0.20882466  1
  O  O409  1  0.26611520  0.08293776  0.45995037  1
  O  O410  1  0.26657200  0.08304810  0.71198035  1
  O  O411  1  0.26445787  0.08368664  0.96085944  1
  O  O412  1  0.26707799  0.41616462  0.20959532  1
  O  O413  1  0.26773970  0.41616014  0.46363308  1
  O  O414  1  0.26526930  0.41672318  0.70854571  1
  O  O415  1  0.26602638  0.41643573  0.95777241  1
  O  O416  1  0.26545506  0.75053535  0.21088420  1
  O  O417  1  0.26600615  0.74968201  0.46294902  1
  O  O418  1  0.26422137  0.75012309  0.71195185  1
  O  O419  1  0.26566885  0.74933963  0.95785214  1
  O  O420  1  0.76679542  0.08273445  0.21201191  1
  O  O421  1  0.76636852  0.08368346  0.46261716  1
  O  O422  1  0.76743798  0.08330746  0.71031854  1
  O  O423  1  0.76671848  0.08323076  0.95957232  1
  O  O424  1  0.76476815  0.41685990  0.21231711  1
  O  O425  1  0.76527624  0.41648959  0.45883374  1
  O  O426  1  0.76808267  0.41705128  0.71024777  1
  O  O427  1  0.76651008  0.41664771  0.95986438  1
  O  O428  1  0.76597256  0.75074697  0.20964054  1
  O  O429  1  0.76547923  0.74980264  0.46191638  1
  O  O430  1  0.76664239  0.74993540  0.71249479  1
  O  O431  1  0.76731859  0.75019673  0.95937145  1
  O  O432  1  0.01804362  0.08348250  0.16582243  1
  O  O433  1  0.01495563  0.08323020  0.41385272  1
  O  O434  1  0.01419700  0.08327732  0.66318506  1
  O  O435  1  0.01691631  0.08287063  0.91188075  1
  O  O436  1  0.01758069  0.41636248  0.16527844  1
  O  O437  1  0.01731760  0.41708873  0.41583670  1
  O  O438  1  0.01695114  0.41658053  0.66527024  1
  O  O439  1  0.01548863  0.41693580  0.91230298  1
  O  O440  1  0.01610493  0.74998061  0.16254712  1
  O  O441  1  0.01851211  0.75005406  0.41517383  1
  O  O442  1  0.01668862  0.74946799  0.66527352  1
  O  O443  1  0.01578744  0.75013588  0.91265900  1
  O  O444  1  0.51545730  0.08360365  0.16551860  1
  O  O445  1  0.51834195  0.08380874  0.41480105  1
  O  O446  1  0.51762976  0.08342630  0.66483730  1
  O  O447  1  0.51503473  0.08263977  0.91272642  1
  O  O448  1  0.51497939  0.41679732  0.16609871  1
  O  O449  1  0.51658244  0.41609769  0.41653368  1
  O  O450  1  0.51553046  0.41679323  0.66294649  1
  O  O451  1  0.51588400  0.41749294  0.91444739  1
  O  O452  1  0.51534141  0.74959226  0.16601706  1
  O  O453  1  0.51538223  0.75028319  0.41637878  1
  O  O454  1  0.51709007  0.74979343  0.66189121  1
  O  O455  1  0.51809220  0.74986966  0.91420138  1
  O  O456  1  0.48053708  0.24965351  0.08492966  1
  O  O457  1  0.48298206  0.25008937  0.33820394  1
  O  O458  1  0.48426524  0.24960612  0.58784496  1
  O  O459  1  0.48427433  0.25032117  0.83355568  1
  O  O460  1  0.48081705  0.58368756  0.08524628  1
  O  O461  1  0.48204852  0.58299709  0.33859923  1
  O  O462  1  0.48436676  0.58332423  0.58800891  1
  O  O463  1  0.48288329  0.58419740  0.83353791  1
  O  O464  1  0.48262716  0.91669753  0.08709209  1
  O  O465  1  0.48419454  0.91679758  0.33507836  1
  O  O466  1  0.48543833  0.91725088  0.58728596  1
  O  O467  1  0.48328002  0.91594065  0.83403298  1
  O  O468  1  0.98587294  0.24958285  0.08547769  1
  O  O469  1  0.98582212  0.24998179  0.33729426  1
  O  O470  1  0.98340391  0.25027471  0.58712200  1
  O  O471  1  0.98540055  0.24961637  0.83600077  1
  O  O472  1  0.98474949  0.58320156  0.08374679  1
  O  O473  1  0.98439607  0.58389709  0.33443439  1
  O  O474  1  0.98270986  0.58335757  0.58776075  1
  O  O475  1  0.98343179  0.58392295  0.83713661  1
  O  O476  1  0.98467401  0.91735196  0.08635448  1
  O  O477  1  0.98564013  0.91633715  0.33620563  1
  O  O478  1  0.98178112  0.91625590  0.58559559  1
  O  O479  1  0.98165196  0.91600473  0.83492253  1
  O  O480  1  0.09006748  0.31356524  0.07697638  1
  O  O481  1  0.08970084  0.31504685  0.32783602  1
  O  O482  1  0.08728337  0.31598495  0.57789798  1
  O  O483  1  0.08954227  0.31374488  0.82655668  1
  O  O484  1  0.08879197  0.64799600  0.07579053  1
  O  O485  1  0.08800808  0.64963100  0.32825867  1
  O  O486  1  0.08670778  0.64806130  0.57880933  1
  O  O487  1  0.08708272  0.64942619  0.82713744  1
  O  O488  1  0.08801842  0.98310298  0.07813955  1
  O  O489  1  0.08973199  0.98043285  0.32759467  1
  O  O490  1  0.08600349  0.98070755  0.57668176  1
  O  O491  1  0.08518612  0.98171998  0.82662150  1
  O  O492  1  0.58430942  0.31504491  0.07715331  1
  O  O493  1  0.58641460  0.31542353  0.32875651  1
  O  O494  1  0.58827256  0.31399785  0.57717720  1
  O  O495  1  0.58843341  0.31534658  0.82624632  1
  O  O496  1  0.58494647  0.64836688  0.07702369  1
  O  O497  1  0.58571854  0.64736711  0.32819499  1
  O  O498  1  0.58791489  0.64912321  0.57743411  1
  O  O499  1  0.58724220  0.64939321  0.82646599  1
  O  O500  1  0.58614363  0.98196081  0.07718309  1
  O  O501  1  0.58774347  0.98315420  0.32741011  1
  O  O502  1  0.58905460  0.98221610  0.57894460  1
  O  O503  1  0.58773199  0.98037941  0.82619220  1
  O  O504  1  0.41189115  0.01803519  0.17229023  1
  O  O505  1  0.41470467  0.01842802  0.42370676  1
  O  O506  1  0.41292112  0.01938589  0.67343396  1
  O  O507  1  0.41158208  0.01701745  0.92051904  1
  O  O508  1  0.41154481  0.35113088  0.17208589  1
  O  O509  1  0.41243867  0.35101663  0.42399665  1
  O  O510  1  0.41212948  0.35116070  0.67172096  1
  O  O511  1  0.41182962  0.35309194  0.92128994  1
  O  O512  1  0.41113225  0.68519305  0.17186179  1
  O  O513  1  0.41133978  0.68502610  0.42357230  1
  O  O514  1  0.41346431  0.68448658  0.67199742  1
  O  O515  1  0.41401733  0.68472894  0.92115353  1
  O  O516  1  0.91381435  0.01869440  0.17410500  1
  O  O517  1  0.91100167  0.01835751  0.42278440  1
  O  O518  1  0.91007056  0.01891853  0.67149587  1
  O  O519  1  0.91347922  0.01728177  0.92148363  1
  O  O520  1  0.91385410  0.35121374  0.17307210  1
  O  O521  1  0.91370495  0.35171733  0.42341068  1
  O  O522  1  0.91300570  0.35110623  0.67319052  1
  O  O523  1  0.91212549  0.35207807  0.92199538  1
  O  O524  1  0.91259279  0.68494293  0.17207538  1
  O  O525  1  0.91464557  0.68489286  0.42303498  1
  O  O526  1  0.91232265  0.68482798  0.67327014  1
  O  O527  1  0.91204147  0.68494367  0.92216320  1
  O  O528  1  0.16151822  0.01830334  0.20207843  1
  O  O529  1  0.16201377  0.01819582  0.45364660  1
  O  O530  1  0.16261122  0.01848524  0.70237754  1
  O  O531  1  0.16057227  0.01912221  0.95148040  1
  O  O532  1  0.16345483  0.35047711  0.20356544  1
  O  O533  1  0.16406920  0.35101887  0.45397461  1
  O  O534  1  0.16108467  0.35187522  0.70164824  1
  O  O535  1  0.16189716  0.35183529  0.95241704  1
  O  O536  1  0.16208923  0.68549946  0.20276471  1
  O  O537  1  0.16206914  0.68543691  0.45273919  1
  O  O538  1  0.16092213  0.68380590  0.70232024  1
  O  O539  1  0.16153812  0.68413598  0.95156534  1
  O  O540  1  0.66326263  0.01704574  0.20314942  1
  O  O541  1  0.66212567  0.01987942  0.45243909  1
  O  O542  1  0.66360001  0.01782970  0.70180654  1
  O  O543  1  0.66301272  0.01803071  0.95194996  1
  O  O544  1  0.66126688  0.35158629  0.20296722  1
  O  O545  1  0.66105357  0.35162211  0.45261683  1
  O  O546  1  0.66403847  0.35205573  0.70244637  1
  O  O547  1  0.66257056  0.35182241  0.95238241  1
  O  O548  1  0.66195151  0.68636498  0.20205057  1
  O  O549  1  0.66224426  0.68352003  0.45382629  1
  O  O550  1  0.66261874  0.68499156  0.70264389  1
  O  O551  1  0.66323344  0.68508569  0.95071788  1
  O  O552  1  0.33599895  0.31501422  0.04777031  1
  O  O553  1  0.33755482  0.31430916  0.29864115  1
  O  O554  1  0.33800284  0.31506473  0.54826275  1
  O  O555  1  0.33622919  0.31417673  0.79685850  1
  O  O556  1  0.33702735  0.64868812  0.04724256  1
  O  O557  1  0.33910968  0.64842756  0.29839914  1
  O  O558  1  0.33950714  0.64881048  0.54781948  1
  O  O559  1  0.33648059  0.64864827  0.79782613  1
  O  O560  1  0.33864106  0.98115390  0.04737177  1
  O  O561  1  0.33570733  0.98213919  0.29806411  1
  O  O562  1  0.33585450  0.98062484  0.54818037  1
  O  O563  1  0.33793306  0.98258006  0.79754624  1
  O  O564  1  0.83733648  0.31495897  0.04794452  1
  O  O565  1  0.83711470  0.31408173  0.29820185  1
  O  O566  1  0.83701713  0.31456402  0.54846202  1
  O  O567  1  0.83698922  0.31514395  0.79679565  1
  O  O568  1  0.83770333  0.65002341  0.04630762  1
  O  O569  1  0.83652359  0.64882438  0.29791312  1
  O  O570  1  0.83661244  0.64806098  0.54896846  1
  O  O571  1  0.83824980  0.64856088  0.79720743  1
  O  O572  1  0.83877225  0.98067077  0.04689264  1
  O  O573  1  0.83623699  0.98255380  0.29765091  1
  O  O574  1  0.83836053  0.98247583  0.54757704  1
  O  O575  1  0.83790221  0.98184805  0.79678954  1
  O  O576  1  0.41152572  0.14841511  0.17213160  1
  O  O577  1  0.41425427  0.14861980  0.42322825  1
  O  O578  1  0.41368726  0.14939065  0.67322350  1
  O  O579  1  0.41133281  0.14745309  0.92143143  1
  O  O580  1  0.41113540  0.48168472  0.17177676  1
  O  O581  1  0.41237832  0.48112652  0.42399197  1
  O  O582  1  0.41173280  0.48162409  0.67134007  1
  O  O583  1  0.41239017  0.48353456  0.92054136  1
  O  O584  1  0.41198890  0.81560849  0.17227279  1
  O  O585  1  0.41126019  0.81515426  0.42430107  1
  O  O586  1  0.41338191  0.81461409  0.67255211  1
  O  O587  1  0.41415829  0.81492641  0.92143058  1
  O  O588  1  0.91403587  0.14863625  0.17398809  1
  O  O589  1  0.91121323  0.14838396  0.42317628  1
  O  O590  1  0.91085780  0.14919533  0.67203915  1
  O  O591  1  0.91349535  0.14758516  0.92227423  1
  O  O592  1  0.91369443  0.48142591  0.17278200  1
  O  O593  1  0.91326969  0.48185876  0.42294040  1
  O  O594  1  0.91260845  0.48129775  0.67303913  1
  O  O595  1  0.91210809  0.48259025  0.92118649  1
  O  O596  1  0.91272371  0.81516524  0.17231110  1
  O  O597  1  0.91451673  0.81491848  0.42295709  1
  O  O598  1  0.91267058  0.81492314  0.67314940  1
  O  O599  1  0.91194922  0.81517079  0.92207953  1
  O  O600  1  0.08910002  0.18339197  0.07798468  1
  O  O601  1  0.08952502  0.18505408  0.32783360  1
  O  O602  1  0.08752896  0.18584157  0.57706286  1
  O  O603  1  0.08880096  0.18356955  0.82705509  1
  O  O604  1  0.08873897  0.51801699  0.07587911  1
  O  O605  1  0.08840866  0.51935224  0.32784832  1
  O  O606  1  0.08635100  0.51790775  0.57829443  1
  O  O607  1  0.08741127  0.51938132  0.82634853  1
  O  O608  1  0.08845617  0.85292659  0.07733112  1
  O  O609  1  0.08912624  0.85024691  0.32828014  1
  O  O610  1  0.08581999  0.85057108  0.57772480  1
  O  O611  1  0.08581219  0.85157360  0.82737398  1
  O  O612  1  0.58461784  0.18487487  0.07692318  1
  O  O613  1  0.58668150  0.18507720  0.32825213  1
  O  O614  1  0.58783728  0.18382553  0.57782488  1
  O  O615  1  0.58849329  0.18532174  0.82630112  1
  O  O616  1  0.58457599  0.51837057  0.07703618  1
  O  O617  1  0.58517646  0.51693611  0.32885876  1
  O  O618  1  0.58832175  0.51897751  0.57713558  1
  O  O619  1  0.58715975  0.51942953  0.82572323  1
  O  O620  1  0.58636303  0.85179957  0.07744141  1
  O  O621  1  0.58864238  0.85294639  0.32713944  1
  O  O622  1  0.58889369  0.85175874  0.57870373  1
  O  O623  1  0.58743033  0.85041560  0.82681315  1
  O  O624  1  0.33571053  0.18504110  0.04828148  1
  O  O625  1  0.33753615  0.18441714  0.29852080  1
  O  O626  1  0.33822691  0.18499544  0.54844351  1
  O  O627  1  0.33584934  0.18396546  0.79690436  1
  O  O628  1  0.33692952  0.51864410  0.04694299  1
  O  O629  1  0.33945937  0.51843294  0.29821810  1
  O  O630  1  0.33941013  0.51853765  0.54797094  1
  O  O631  1  0.33707069  0.51868899  0.79717898  1
  O  O632  1  0.33833625  0.85106092  0.04750320  1
  O  O633  1  0.33605596  0.85215906  0.29795156  1
  O  O634  1  0.33500863  0.85050567  0.54838795  1
  O  O635  1  0.33814888  0.85241374  0.79833345  1
  O  O636  1  0.83749998  0.18472741  0.04775116  1
  O  O637  1  0.83730499  0.18377307  0.29741034  1
  O  O638  1  0.83643015  0.18465279  0.54814377  1
  O  O639  1  0.83718556  0.18481010  0.79650562  1
  O  O640  1  0.83814146  0.51961596  0.04704029  1
  O  O641  1  0.83641809  0.51855111  0.29798929  1
  O  O642  1  0.83684627  0.51813561  0.54846218  1
  O  O643  1  0.83813140  0.51831129  0.79732390  1
  O  O644  1  0.83824539  0.85038108  0.04621425  1
  O  O645  1  0.83606789  0.85238476  0.29824000  1
  O  O646  1  0.83865082  0.85232512  0.54857294  1
  O  O647  1  0.83785862  0.85159603  0.79715705  1
  O  O648  1  0.16152449  0.14851089  0.20271181  1
  O  O649  1  0.16257158  0.14852962  0.45338143  1
  O  O650  1  0.16293559  0.14853980  0.70266675  1
  O  O651  1  0.16081481  0.14927755  0.95258491  1
  O  O652  1  0.16325786  0.48072233  0.20280416  1
  O  O653  1  0.16443483  0.48138271  0.45323966  1
  O  O654  1  0.16131088  0.48207608  0.70125773  1
  O  O655  1  0.16249141  0.48210176  0.95194735  1
  O  O656  1  0.16177009  0.81577119  0.20335902  1
  O  O657  1  0.16245022  0.81561428  0.45328002  1
  O  O658  1  0.15983904  0.81390020  0.70221361  1
  O  O659  1  0.16146144  0.81415022  0.95090896  1
  O  O660  1  0.66286789  0.14725221  0.20245254  1
  O  O661  1  0.66301717  0.14997995  0.45281833  1
  O  O662  1  0.66315320  0.14794796  0.70193246  1
  O  O663  1  0.66272948  0.14823115  0.95222302  1
  O  O664  1  0.66119026  0.48202339  0.20283788  1
  O  O665  1  0.66126494  0.48191545  0.45259346  1
  O  O666  1  0.66415257  0.48220947  0.70250228  1
  O  O667  1  0.66296389  0.48209965  0.95207219  1
  O  O668  1  0.66258374  0.81683266  0.20288617  1
  O  O669  1  0.66143869  0.81379238  0.45371243  1
  O  O670  1  0.66276243  0.81518124  0.70258062  1
  O  O671  1  0.66322607  0.81506598  0.95072035  1
