# generated using pymatgen
data_Na2MnFe(PO4)2
_symmetry_space_group_name_H-M   'P 1'
_cell_length_a   21.07936054
_cell_length_b   18.93123381
_cell_length_c   20.03914317
_cell_angle_alpha   90.00035229
_cell_angle_beta   90.00071114
_cell_angle_gamma   89.99809389
_symmetry_Int_Tables_number   1
_chemical_formula_structural   Na2MnFe(PO4)2
_chemical_formula_sum   'Na96 Mn48 Fe48 P96 O384'
_cell_volume   7996.78645894
_cell_formula_units_Z   48
loop_
 _symmetry_equiv_pos_site_id
 _symmetry_equiv_pos_as_xyz
  1  'x, y, z'
loop_
 _atom_site_type_symbol
 _atom_site_label
 _atom_site_symmetry_multiplicity
 _atom_site_fract_x
 _atom_site_fract_y
 _atom_site_fract_z
 _atom_site_occupancy
  Na  Na0  1  -0.00108103  -0.00059006  0.00012912  1
  Na  Na1  1  0.00243118  0.00082596  0.25043948  1
  Na  Na2  1  0.00211270  0.00045781  0.49886978  1
  Na  Na3  1  0.00018130  -0.00019336  0.75051921  1
  Na  Na4  1  -0.00056675  0.33327966  0.00009357  1
  Na  Na5  1  -0.00186835  0.33301643  0.24936848  1
  Na  Na6  1  -0.00164740  0.33292873  0.49970901  1
  Na  Na7  1  -0.00017903  0.33383067  0.75063635  1
  Na  Na8  1  -0.00178178  0.66633034  0.00063011  1
  Na  Na9  1  -0.00253660  0.66579243  0.24968398  1
  Na  Na10  1  0.00329565  0.66816993  0.49906160  1
  Na  Na11  1  -0.00051182  0.66637987  0.75040852  1
  Na  Na12  1  0.50026469  -0.00004901  0.00019077  1
  Na  Na13  1  0.49895226  -0.00024838  0.24894789  1
  Na  Na14  1  0.49809822  -0.00033728  0.50082859  1
  Na  Na15  1  0.49873039  0.00018275  0.74985788  1
  Na  Na16  1  0.49993569  0.33304326  -0.00100037  1
  Na  Na17  1  0.50057692  0.33383031  0.24978205  1
  Na  Na18  1  0.49828196  0.33355856  0.50037072  1
  Na  Na19  1  0.49762994  0.33244520  0.75071394  1
  Na  Na20  1  0.50221150  0.66716176  -0.00066896  1
  Na  Na21  1  0.50371480  0.66729428  0.25057543  1
  Na  Na22  1  0.50212323  0.66717817  0.49961165  1
  Na  Na23  1  0.49960182  0.66601310  0.75091773  1
  Na  Na24  1  0.25065448  0.00001161  0.12552634  1
  Na  Na25  1  0.24934790  0.00000956  0.37429062  1
  Na  Na26  1  0.24956804  -0.00039677  0.62400456  1
  Na  Na27  1  0.25260774  0.00088243  0.87682978  1
  Na  Na28  1  0.24812373  0.33286121  0.12475682  1
  Na  Na29  1  0.24855444  0.33295987  0.37470831  1
  Na  Na30  1  0.25182934  0.33455042  0.62475622  1
  Na  Na31  1  0.24933773  0.33313488  0.87580538  1
  Na  Na32  1  0.24983382  0.66664620  0.12634515  1
  Na  Na33  1  0.24794413  0.66554701  0.37362002  1
  Na  Na34  1  0.25069885  0.66715941  0.62458615  1
  Na  Na35  1  0.25014897  0.66633406  0.87577475  1
  Na  Na36  1  0.74963431  0.00000996  0.12498867  1
  Na  Na37  1  0.75016209  -0.00048669  0.37499798  1
  Na  Na38  1  0.75069364  0.00014943  0.62513813  1
  Na  Na39  1  0.74834284  -0.00035956  0.87443171  1
  Na  Na40  1  0.75207061  0.33351675  0.12664317  1
  Na  Na41  1  0.75255050  0.33374798  0.37417672  1
  Na  Na42  1  0.75195056  0.33357908  0.62375107  1
  Na  Na43  1  0.75211622  0.33373451  0.87488885  1
  Na  Na44  1  0.74996020  0.66712129  0.12608133  1
  Na  Na45  1  0.74717212  0.66598273  0.37385101  1
  Na  Na46  1  0.74838340  0.66612692  0.62485561  1
  Na  Na47  1  0.75031304  0.66714057  0.87552817  1
  Na  Na48  1  0.00028232  0.16612028  0.00004035  1
  Na  Na49  1  -0.00086217  0.16716924  0.24958071  1
  Na  Na50  1  0.00266295  0.16544376  0.49960953  1
  Na  Na51  1  -0.00010713  0.16657984  0.75112695  1
  Na  Na52  1  -0.00097395  0.49984963  -0.00070317  1
  Na  Na53  1  -0.00022045  0.49928231  0.25031369  1
  Na  Na54  1  0.00032801  0.49937063  0.49924315  1
  Na  Na55  1  -0.00016810  0.49990737  0.75040632  1
  Na  Na56  1  -0.00220147  0.83392704  0.00162507  1
  Na  Na57  1  -0.00034180  0.83318368  0.24981725  1
  Na  Na58  1  0.00123465  0.83349696  0.49894721  1
  Na  Na59  1  -0.00042703  0.83380087  0.75002775  1
  Na  Na60  1  0.50066258  0.16641981  -0.00108709  1
  Na  Na61  1  0.49941130  0.16668864  0.24949720  1
  Na  Na62  1  0.49637963  0.16735770  0.50000604  1
  Na  Na63  1  0.49827345  0.16662925  0.75049533  1
  Na  Na64  1  0.50084004  0.50010732  -0.00014406  1
  Na  Na65  1  0.50067171  0.50050993  0.25027409  1
  Na  Na66  1  0.50082997  0.49938431  0.50002601  1
  Na  Na67  1  0.49860363  0.50016181  0.75048602  1
  Na  Na68  1  0.50012191  0.83442572  -0.00036165  1
  Na  Na69  1  0.50199045  0.83347498  0.24932138  1
  Na  Na70  1  0.50050573  0.83376502  0.50080675  1
  Na  Na71  1  0.49949628  0.83419131  0.75062811  1
  Na  Na72  1  0.24845830  0.16676924  0.12593766  1
  Na  Na73  1  0.24863472  0.16672830  0.37464312  1
  Na  Na74  1  0.25144874  0.16558469  0.62454483  1
  Na  Na75  1  0.25085104  0.16612500  0.87534148  1
  Na  Na76  1  0.24890676  0.50034879  0.12571164  1
  Na  Na77  1  0.25045737  0.49931581  0.37389772  1
  Na  Na78  1  0.24920937  0.50043100  0.62484287  1
  Na  Na79  1  0.24989858  0.49947178  0.87642789  1
  Na  Na80  1  0.25123951  0.83342761  0.12486807  1
  Na  Na81  1  0.24761034  0.83473135  0.37385569  1
  Na  Na82  1  0.25055923  0.83358444  0.62410349  1
  Na  Na83  1  0.25282665  0.83267880  0.87645490  1
  Na  Na84  1  0.75115557  0.16618468  0.12547316  1
  Na  Na85  1  0.75129366  0.16664344  0.37445560  1
  Na  Na86  1  0.75109973  0.16613212  0.62437311  1
  Na  Na87  1  0.74834387  0.16713137  0.87484052  1
  Na  Na88  1  0.75127112  0.49924772  0.12600915  1
  Na  Na89  1  0.74850060  0.50073660  0.37394775  1
  Na  Na90  1  0.75050141  0.49918369  0.62444499  1
  Na  Na91  1  0.75089921  0.49956895  0.87505740  1
  Na  Na92  1  0.74978490  0.83335701  0.12611442  1
  Na  Na93  1  0.74943835  0.83398103  0.37473251  1
  Na  Na94  1  0.75080300  0.83355571  0.62471686  1
  Na  Na95  1  0.75017801  0.83389157  0.87534379  1
  Mn  Mn96  1  0.10778431  0.75036012  0.87357205  1
  Mn  Mn97  1  0.60858715  0.41588625  0.87277916  1
  Mn  Mn98  1  0.64241685  0.24990438  0.74690673  1
  Mn  Mn99  1  0.85683387  0.08326444  0.00260319  1
  Mn  Mn100  1  0.35678639  0.08366706  0.25179415  1
  Mn  Mn101  1  0.39202550  0.58378327  0.87806655  1
  Mn  Mn102  1  0.14271116  0.91634764  0.99840106  1
  Mn  Mn103  1  0.14310539  0.91646653  0.74838056  1
  Mn  Mn104  1  0.60753364  0.41599384  0.62300858  1
  Mn  Mn105  1  0.89178191  0.24944175  0.87755696  1
  Mn  Mn106  1  0.89117912  0.91655908  0.87736311  1
  Mn  Mn107  1  0.89325330  0.91716167  0.37683848  1
  Mn  Mn108  1  0.10895332  0.75019726  0.62283868  1
  Mn  Mn109  1  0.60721742  0.08352432  0.37312894  1
  Mn  Mn110  1  0.85813516  0.75012817  0.75196152  1
  Mn  Mn111  1  0.35857641  0.75002977  0.25230289  1
  Mn  Mn112  1  0.89256477  0.58408996  0.62628670  1
  Mn  Mn113  1  0.39129942  0.24996584  0.37671973  1
  Mn  Mn114  1  0.35733173  0.41628362  0.25138309  1
  Mn  Mn115  1  0.60846002  0.41640529  0.12243696  1
  Mn  Mn116  1  0.39116030  0.91669737  0.62763171  1
  Mn  Mn117  1  0.64246924  0.58306460  0.74749249  1
  Mn  Mn118  1  0.64217121  0.91680599  0.49764743  1
  Mn  Mn119  1  0.39197250  0.24945237  0.87800721  1
  Mn  Mn120  1  0.60704913  0.08406227  0.62281642  1
  Mn  Mn121  1  0.39170423  0.58309609  0.62665853  1
  Mn  Mn122  1  0.89294403  0.24911476  0.62725612  1
  Mn  Mn123  1  0.10842299  0.08264389  0.87310848  1
  Mn  Mn124  1  0.14287658  0.24979091  0.74743681  1
  Mn  Mn125  1  0.14251461  0.25041363  0.49796031  1
  Mn  Mn126  1  0.39348415  0.58405560  0.37723203  1
  Mn  Mn127  1  0.64306423  0.24963358  0.24780270  1
  Mn  Mn128  1  0.64191132  0.25037782  0.49760486  1
  Mn  Mn129  1  0.10618791  0.74965154  0.12262465  1
  Mn  Mn130  1  0.89145343  0.58376466  0.87771155  1
  Mn  Mn131  1  0.60778810  0.08367492  0.12283138  1
  Mn  Mn132  1  0.10732786  0.41685729  0.87299047  1
  Mn  Mn133  1  0.10732951  0.41644403  0.37278493  1
  Mn  Mn134  1  0.14154503  0.58333381  0.24682228  1
  Mn  Mn135  1  0.35859121  0.74946926  0.00360799  1
  Mn  Mn136  1  0.89185179  0.58330098  0.37775899  1
  Mn  Mn137  1  0.60774091  0.74996696  0.62315807  1
  Mn  Mn138  1  0.85786611  0.74936611  0.50175082  1
  Mn  Mn139  1  0.85921117  0.08330252  0.50252250  1
  Mn  Mn140  1  0.60834387  0.75089624  0.87275054  1
  Mn  Mn141  1  0.35767937  0.74974632  0.50109596  1
  Mn  Mn142  1  0.35712726  0.41639450  0.00317665  1
  Mn  Mn143  1  0.14243158  0.58368063  0.74774222  1
  Fe  Fe144  1  0.35750687  0.41671818  0.50152620  1
  Fe  Fe145  1  0.89169123  0.58325983  0.12664088  1
  Fe  Fe146  1  0.10762114  0.75021486  0.37235805  1
  Fe  Fe147  1  0.60766931  0.41617891  0.37370029  1
  Fe  Fe148  1  0.39383225  0.91629770  0.12707658  1
  Fe  Fe149  1  0.85649361  0.74984042  0.00233736  1
  Fe  Fe150  1  0.10765373  0.41648252  0.62299589  1
  Fe  Fe151  1  0.39348267  0.91692504  0.87677506  1
  Fe  Fe152  1  0.10780916  0.08350059  0.37264293  1
  Fe  Fe153  1  0.85763399  0.08325908  0.75131107  1
  Fe  Fe154  1  0.89269833  0.24948201  0.12643414  1
  Fe  Fe155  1  0.10567506  0.41643157  0.12333121  1
  Fe  Fe156  1  0.35610377  0.08341011  0.50129625  1
  Fe  Fe157  1  0.35807772  0.74994455  0.75192673  1
  Fe  Fe158  1  0.10814165  0.08337817  0.62384885  1
  Fe  Fe159  1  0.14269069  0.58338429  0.49817220  1
  Fe  Fe160  1  0.89334274  0.24939460  0.37641052  1
  Fe  Fe161  1  0.35723054  0.08303408  0.75222427  1
  Fe  Fe162  1  0.85699288  0.41728438  0.50164426  1
  Fe  Fe163  1  0.64229265  0.58268490  0.49837465  1
  Fe  Fe164  1  0.85594011  0.75038524  0.25212865  1
  Fe  Fe165  1  0.64318770  0.58327338  0.24760540  1
  Fe  Fe166  1  0.64280146  0.91717803  0.74806237  1
  Fe  Fe167  1  0.85822820  0.41632763  0.75087095  1
  Fe  Fe168  1  0.14227217  0.25005712  0.99892980  1
  Fe  Fe169  1  0.60691825  0.08333035  0.87289905  1
  Fe  Fe170  1  0.60791775  0.75070326  0.37329216  1
  Fe  Fe171  1  0.14276213  0.91678230  0.24737136  1
  Fe  Fe172  1  0.14189691  0.58335791  0.99934231  1
  Fe  Fe173  1  0.85811145  0.08271511  0.25158770  1
  Fe  Fe174  1  0.64285465  0.25011940  0.99909273  1
  Fe  Fe175  1  0.39358457  0.58340881  0.12653839  1
  Fe  Fe176  1  0.39265615  0.91629350  0.37600683  1
  Fe  Fe177  1  0.85751747  0.41696071  0.25212639  1
  Fe  Fe178  1  0.14101654  0.24986897  0.24729122  1
  Fe  Fe179  1  0.60794925  0.75015041  0.12311016  1
  Fe  Fe180  1  0.10632347  0.08344010  0.12317049  1
  Fe  Fe181  1  0.14252283  0.91614241  0.49793998  1
  Fe  Fe182  1  0.89366287  0.91692933  0.62629456  1
  Fe  Fe183  1  0.64271247  0.91697322  0.99826421  1
  Fe  Fe184  1  0.35686097  0.41710387  0.75191708  1
  Fe  Fe185  1  0.39148907  0.25025147  0.62698947  1
  Fe  Fe186  1  0.64358983  0.58277291  0.99906258  1
  Fe  Fe187  1  0.35771290  0.08389576  0.00251952  1
  Fe  Fe188  1  0.89172130  0.91712452  0.12755585  1
  Fe  Fe189  1  0.85724460  0.41689351  0.00213935  1
  Fe  Fe190  1  0.64256219  0.91711170  0.24847355  1
  Fe  Fe191  1  0.39220333  0.25044788  0.12640025  1
  P  P192  1  0.05311645  0.24985197  0.11064811  1
  P  P193  1  0.05310723  0.24977682  0.35923768  1
  P  P194  1  0.05381598  0.25003866  0.61031168  1
  P  P195  1  0.05458442  0.24982201  0.86113732  1
  P  P196  1  0.05135726  0.58235221  0.10966790  1
  P  P197  1  0.05442873  0.58382142  0.36069453  1
  P  P198  1  0.05426890  0.58255369  0.60908496  1
  P  P199  1  0.05398479  0.58363623  0.86116588  1
  P  P200  1  0.05259667  0.91734158  0.11142682  1
  P  P201  1  0.05607812  0.91646142  0.36010826  1
  P  P202  1  0.05362020  0.91755295  0.60950109  1
  P  P203  1  0.05309751  0.91631182  0.86026138  1
  P  P204  1  0.55257802  0.25002067  0.10918084  1
  P  P205  1  0.55285032  0.25062093  0.35978186  1
  P  P206  1  0.55111967  0.24991722  0.60988216  1
  P  P207  1  0.55483549  0.24906748  0.86099097  1
  P  P208  1  0.55466342  0.58394537  0.11054850  1
  P  P209  1  0.55631488  0.58284677  0.36067029  1
  P  P210  1  0.55365775  0.58287831  0.60942756  1
  P  P211  1  0.55516738  0.58305726  0.86130059  1
  P  P212  1  0.55463896  0.91628634  0.11059959  1
  P  P213  1  0.55275343  0.91683994  0.35938031  1
  P  P214  1  0.55390723  0.91716169  0.61124882  1
  P  P215  1  0.55449161  0.91800411  0.86059574  1
  P  P216  1  0.44525808  0.08394846  0.13850650  1
  P  P217  1  0.44515849  0.08220327  0.39018909  1
  P  P218  1  0.44389789  0.08416177  0.63949396  1
  P  P219  1  0.44573539  0.08235591  0.88977379  1
  P  P220  1  0.44692866  0.41666086  0.13970548  1
  P  P221  1  0.44721907  0.41695903  0.39014361  1
  P  P222  1  0.44448862  0.41609724  0.63977622  1
  P  P223  1  0.44543084  0.41668105  0.88958049  1
  P  P224  1  0.44870600  0.74970412  0.14001314  1
  P  P225  1  0.44875810  0.75108059  0.38966248  1
  P  P226  1  0.44599047  0.74978475  0.64077451  1
  P  P227  1  0.44586376  0.75104947  0.88932641  1
  P  P228  1  0.94664669  0.08309208  0.14027480  1
  P  P229  1  0.94747974  0.08382121  0.38842369  1
  P  P230  1  0.94834701  0.08224146  0.64050557  1
  P  P231  1  0.94549313  0.08300117  0.88958309  1
  P  P232  1  0.94499239  0.41669849  0.13904162  1
  P  P233  1  0.94449492  0.41579250  0.38932634  1
  P  P234  1  0.94672909  0.41703806  0.63912089  1
  P  P235  1  0.94433600  0.41648996  0.88993200  1
  P  P236  1  0.94329801  0.74999271  0.13969305  1
  P  P237  1  0.94680614  0.75029834  0.38855136  1
  P  P238  1  0.94756950  0.75091307  0.63946154  1
  P  P239  1  0.94558538  0.75033415  0.89157602  1
  P  P240  1  0.19371839  0.08322361  0.23534814  1
  P  P241  1  0.19544154  0.08279169  0.48537840  1
  P  P242  1  0.19802793  0.08284987  0.73474048  1
  P  P243  1  0.19647238  0.08396813  0.98701605  1
  P  P244  1  0.19485236  0.41578879  0.23397796  1
  P  P245  1  0.19678510  0.41735317  0.48589790  1
  P  P246  1  0.19713360  0.41665096  0.73473273  1
  P  P247  1  0.19427262  0.41672685  0.98715805  1
  P  P248  1  0.19546599  0.75102670  0.23536593  1
  P  P249  1  0.19603003  0.74981367  0.48374184  1
  P  P250  1  0.19891951  0.75043254  0.73544984  1
  P  P251  1  0.19674127  0.74905258  0.98591809  1
  P  P252  1  0.69801445  0.08270298  0.23535232  1
  P  P253  1  0.69728960  0.08356061  0.48471403  1
  P  P254  1  0.69668137  0.08275890  0.73570172  1
  P  P255  1  0.69551587  0.08346787  0.98462162  1
  P  P256  1  0.69684755  0.41683566  0.23647917  1
  P  P257  1  0.69716863  0.41682577  0.48409950  1
  P  P258  1  0.69854914  0.41603033  0.73454091  1
  P  P259  1  0.69823138  0.41627713  0.98568508  1
  P  P260  1  0.69504231  0.75056245  0.23590510  1
  P  P261  1  0.69603410  0.74947216  0.48424331  1
  P  P262  1  0.69683633  0.75126672  0.73505398  1
  P  P263  1  0.69637355  0.75007643  0.98691204  1
  P  P264  1  0.30242758  0.24914873  0.01601064  1
  P  P265  1  0.30192818  0.25012453  0.26355989  1
  P  P266  1  0.30384654  0.24995476  0.51496940  1
  P  P267  1  0.30457123  0.25005766  0.76413339  1
  P  P268  1  0.30245648  0.58309383  0.01669733  1
  P  P269  1  0.30486711  0.58323835  0.26381775  1
  P  P270  1  0.30223605  0.58294672  0.51408168  1
  P  P271  1  0.30351789  0.58312568  0.76533090  1
  P  P272  1  0.30603260  0.91765619  0.01509371  1
  P  P273  1  0.30422792  0.91667412  0.26412968  1
  P  P274  1  0.30317562  0.91699542  0.51279182  1
  P  P275  1  0.30425930  0.91687564  0.76612884  1
  P  P276  1  0.80265186  0.25044556  0.01580424  1
  P  P277  1  0.80631561  0.24935458  0.26414819  1
  P  P278  1  0.80503641  0.25067754  0.51338531  1
  P  P279  1  0.80396884  0.24945315  0.76452610  1
  P  P280  1  0.80256346  0.58331146  0.01591425  1
  P  P281  1  0.80376481  0.58381328  0.26365183  1
  P  P282  1  0.80174113  0.58278617  0.51443620  1
  P  P283  1  0.80362695  0.58270216  0.76471207  1
  P  P284  1  0.80223382  0.91626548  0.01586246  1
  P  P285  1  0.80354637  0.91679291  0.26389123  1
  P  P286  1  0.80456690  0.91654833  0.51551725  1
  P  P287  1  0.80367801  0.91765270  0.76361477  1
  O  O288  1  0.05709316  0.25012014  0.18738977  1
  O  O289  1  0.05700842  0.25039498  0.43597022  1
  O  O290  1  0.05638498  0.25039173  0.68712579  1
  O  O291  1  0.05875488  0.24968577  0.93794399  1
  O  O292  1  0.05511475  0.58302914  0.18641316  1
  O  O293  1  0.05896646  0.58320408  0.43741645  1
  O  O294  1  0.05683469  0.58304490  0.68597853  1
  O  O295  1  0.05831163  0.58359124  0.93790775  1
  O  O296  1  0.05767905  0.91653841  0.18804522  1
  O  O297  1  0.05975267  0.91644268  0.43696108  1
  O  O298  1  0.05702626  0.91679649  0.68624961  1
  O  O299  1  0.05664676  0.91631570  0.93705049  1
  O  O300  1  0.55697100  0.25000578  0.18589340  1
  O  O301  1  0.55570072  0.25010176  0.43655523  1
  O  O302  1  0.55547342  0.24978950  0.68661544  1
  O  O303  1  0.55966444  0.25019843  0.93770571  1
  O  O304  1  0.55951261  0.58300553  0.18731727  1
  O  O305  1  0.55963364  0.58266002  0.43752323  1
  O  O306  1  0.55659003  0.58267075  0.68628385  1
  O  O307  1  0.56024062  0.58282396  0.93808073  1
  O  O308  1  0.55943348  0.91728015  0.18730486  1
  O  O309  1  0.55611918  0.91747660  0.43614725  1
  O  O310  1  0.55844241  0.91742471  0.68799534  1
  O  O311  1  0.55917337  0.91704920  0.93736140  1
  O  O312  1  0.44201244  0.08414390  0.06171067  1
  O  O313  1  0.44241563  0.08314577  0.31333326  1
  O  O314  1  0.43955615  0.08307092  0.56273003  1
  O  O315  1  0.44107715  0.08324572  0.81304970  1
  O  O316  1  0.44390630  0.41669004  0.06291915  1
  O  O317  1  0.44321502  0.41688424  0.31342843  1
  O  O318  1  0.44042631  0.41716865  0.56293555  1
  O  O319  1  0.44074321  0.41679604  0.81282981  1
  O  O320  1  0.44518939  0.74967807  0.06326747  1
  O  O321  1  0.44509476  0.75031107  0.31298293  1
  O  O322  1  0.44298227  0.74985797  0.56393091  1
  O  O323  1  0.44150077  0.74998503  0.81259384  1
  O  O324  1  0.94299058  0.08276611  0.06354143  1
  O  O325  1  0.94237243  0.08281273  0.31181781  1
  O  O326  1  0.94512318  0.08307284  0.56369872  1
  O  O327  1  0.94097749  0.08310891  0.81283688  1
  O  O328  1  0.94070140  0.41694727  0.06226248  1
  O  O329  1  0.94050788  0.41717658  0.31245901  1
  O  O330  1  0.94161839  0.41716284  0.56242111  1
  O  O331  1  0.94042342  0.41655397  0.81310053  1
  O  O332  1  0.93927556  0.75007316  0.06286762  1
  O  O333  1  0.94098660  0.74999717  0.31193074  1
  O  O334  1  0.94456249  0.75004246  0.56269061  1
  O  O335  1  0.94279353  0.75024223  0.81472029  1
  O  O336  1  0.19103578  0.08309801  0.06366179  1
  O  O337  1  0.19032081  0.08355835  0.31225596  1
  O  O338  1  0.19120865  0.08325877  0.56212743  1
  O  O339  1  0.19433456  0.08302953  0.81151130  1
  O  O340  1  0.18981639  0.41676860  0.06387058  1
  O  O341  1  0.19231732  0.41633516  0.31082469  1
  O  O342  1  0.19200347  0.41672649  0.56255976  1
  O  O343  1  0.19317059  0.41644872  0.81150576  1
  O  O344  1  0.19282897  0.74996927  0.06267770  1
  O  O345  1  0.19127222  0.75015931  0.31210029  1
  O  O346  1  0.19388173  0.75018255  0.56066530  1
  O  O347  1  0.19485762  0.75047081  0.81210466  1
  O  O348  1  0.69313613  0.08353470  0.06147113  1
  O  O349  1  0.69396925  0.08318489  0.31198685  1
  O  O350  1  0.69346536  0.08373033  0.56148357  1
  O  O351  1  0.69164575  0.08334413  0.81233789  1
  O  O352  1  0.69490016  0.41608732  0.06244291  1
  O  O353  1  0.69195642  0.41606245  0.31304043  1
  O  O354  1  0.69345963  0.41586836  0.56083925  1
  O  O355  1  0.69458490  0.41579344  0.81124600  1
  O  O356  1  0.69215670  0.75023580  0.06365733  1
  O  O357  1  0.69074822  0.75097686  0.31264400  1
  O  O358  1  0.69329962  0.75037424  0.56104542  1
  O  O359  1  0.69407222  0.75099963  0.81192425  1
  O  O360  1  0.30743942  0.25031671  0.18698217  1
  O  O361  1  0.30589532  0.25007830  0.43807430  1
  O  O362  1  0.30768938  0.25003380  0.68733242  1
  O  O363  1  0.30631066  0.24967817  0.93925644  1
  O  O364  1  0.31005807  0.58371354  0.18713690  1
  O  O365  1  0.30621328  0.58325837  0.43737241  1
  O  O366  1  0.30606486  0.58331977  0.68854260  1
  O  O367  1  0.30648834  0.58319947  0.93996053  1
  O  O368  1  0.30994120  0.91609862  0.18746401  1
  O  O369  1  0.30784768  0.91634011  0.43615025  1
  O  O370  1  0.30588890  0.91675589  0.68916970  1
  O  O371  1  0.31012816  0.91693138  0.93835536  1
  O  O372  1  0.81006943  0.24919750  0.18730523  1
  O  O373  1  0.80926140  0.24932585  0.43664631  1
  O  O374  1  0.80709086  0.24922564  0.68770348  1
  O  O375  1  0.80596909  0.24951163  0.93907933  1
  O  O376  1  0.80835612  0.58336119  0.18698738  1
  O  O377  1  0.80531068  0.58375060  0.43770809  1
  O  O378  1  0.80655959  0.58331628  0.68792252  1
  O  O379  1  0.80563971  0.58352607  0.93917405  1
  O  O380  1  0.80794383  0.91721807  0.18719169  1
  O  O381  1  0.80804177  0.91682190  0.43868429  1
  O  O382  1  0.80887027  0.91720474  0.68701260  1
  O  O383  1  0.80561075  0.91698340  0.93911379  1
  O  O384  1  0.23219862  0.24979117  0.04005459  1
  O  O385  1  0.23151268  0.24967927  0.28695238  1
  O  O386  1  0.23429334  0.25011640  0.54067861  1
  O  O387  1  0.23487767  0.24981674  0.78951792  1
  O  O388  1  0.23224996  0.58330557  0.04084339  1
  O  O389  1  0.23452755  0.58273544  0.28686919  1
  O  O390  1  0.23230224  0.58382406  0.53893084  1
  O  O391  1  0.23398683  0.58277005  0.79112991  1
  O  O392  1  0.23586286  0.91673555  0.03912489  1
  O  O393  1  0.23358494  0.91739857  0.28664071  1
  O  O394  1  0.23285832  0.91645819  0.53681450  1
  O  O395  1  0.23491602  0.91699603  0.79249079  1
  O  O396  1  0.73262855  0.24984711  0.04072680  1
  O  O397  1  0.73620714  0.24978581  0.28833319  1
  O  O398  1  0.73512124  0.25034866  0.53798028  1
  O  O399  1  0.73433869  0.25002429  0.78982472  1
  O  O400  1  0.73254254  0.58307571  0.04093058  1
  O  O401  1  0.73329812  0.58396338  0.28709937  1
  O  O402  1  0.73180811  0.58255658  0.53928591  1
  O  O403  1  0.73408461  0.58326269  0.79035925  1
  O  O404  1  0.73202277  0.91687564  0.04017690  1
  O  O405  1  0.73324214  0.91663884  0.28792193  1
  O  O406  1  0.73465765  0.91676001  0.53993823  1
  O  O407  1  0.73341755  0.91712686  0.78767663  1
  O  O408  1  0.26379803  0.08314425  0.21123150  1
  O  O409  1  0.26575085  0.08362972  0.46129374  1
  O  O410  1  0.26808884  0.08268129  0.71037203  1
  O  O411  1  0.26691400  0.08390417  0.96359139  1
  O  O412  1  0.26459888  0.41654991  0.20895106  1
  O  O413  1  0.26704779  0.41632965  0.46176085  1
  O  O414  1  0.26731152  0.41715402  0.71067622  1
  O  O415  1  0.26434267  0.41627507  0.96293437  1
  O  O416  1  0.26556343  0.75054576  0.21136483  1
  O  O417  1  0.26557596  0.74987377  0.45786957  1
  O  O418  1  0.26888560  0.75048228  0.71066342  1
  O  O419  1  0.26667244  0.74931303  0.96159842  1
  O  O420  1  0.76811890  0.08296015  0.21088999  1
  O  O421  1  0.76715337  0.08313155  0.46013657  1
  O  O422  1  0.76701228  0.08310420  0.71181754  1
  O  O423  1  0.76520705  0.08326482  0.95925712  1
  O  O424  1  0.76737621  0.41646343  0.21309005  1
  O  O425  1  0.76723598  0.41702062  0.45949695  1
  O  O426  1  0.76859881  0.41603457  0.71002124  1
  O  O427  1  0.76823827  0.41669204  0.96080531  1
  O  O428  1  0.76548581  0.75026180  0.21232900  1
  O  O429  1  0.76566058  0.75004931  0.45868272  1
  O  O430  1  0.76635395  0.75037196  0.70950700  1
  O  O431  1  0.76660666  0.75020109  0.96257896  1
  O  O432  1  0.01682004  0.08365649  0.16461638  1
  O  O433  1  0.01796144  0.08322355  0.41183621  1
  O  O434  1  0.01839271  0.08317592  0.66531767  1
  O  O435  1  0.01550858  0.08273623  0.91368784  1
  O  O436  1  0.01539501  0.41629686  0.16296667  1
  O  O437  1  0.01462096  0.41622852  0.41322608  1
  O  O438  1  0.01711646  0.41682653  0.66282793  1
  O  O439  1  0.01440089  0.41639660  0.91387639  1
  O  O440  1  0.01348646  0.74968535  0.16362263  1
  O  O441  1  0.01729075  0.75081052  0.41155642  1
  O  O442  1  0.01716729  0.75030404  0.66507959  1
  O  O443  1  0.01517495  0.75041004  0.91694272  1
  O  O444  1  0.51511524  0.08355807  0.16350873  1
  O  O445  1  0.51474615  0.08329055  0.41569578  1
  O  O446  1  0.51396130  0.08355136  0.66371654  1
  O  O447  1  0.51613349  0.08301095  0.91332365  1
  O  O448  1  0.51660554  0.41672565  0.16497989  1
  O  O449  1  0.51739726  0.41659220  0.41438813  1
  O  O450  1  0.51451235  0.41630687  0.66421141  1
  O  O451  1  0.51558790  0.41648772  0.91331826  1
  O  O452  1  0.51876675  0.75010444  0.16465995  1
  O  O453  1  0.51879501  0.75073792  0.41432995  1
  O  O454  1  0.51564577  0.74989248  0.66602356  1
  O  O455  1  0.51596072  0.75108958  0.91334765  1
  O  O456  1  0.48242771  0.24992881  0.08497551  1
  O  O457  1  0.48316886  0.25025026  0.33443887  1
  O  O458  1  0.48099953  0.25031842  0.58579611  1
  O  O459  1  0.48459591  0.24912689  0.83751580  1
  O  O460  1  0.48426936  0.58343458  0.08680614  1
  O  O461  1  0.48630928  0.58359422  0.33608671  1
  O  O462  1  0.48399539  0.58331769  0.58424145  1
  O  O463  1  0.48496396  0.58317326  0.83784013  1
  O  O464  1  0.48411753  0.91688333  0.08725322  1
  O  O465  1  0.48275163  0.91684411  0.33448415  1
  O  O466  1  0.48374652  0.91682269  0.58744269  1
  O  O467  1  0.48407337  0.91738637  0.83709600  1
  O  O468  1  0.98267677  0.24966112  0.08666612  1
  O  O469  1  0.98296078  0.25023363  0.33498180  1
  O  O470  1  0.98434162  0.24926109  0.58448794  1
  O  O471  1  0.98459112  0.25014851  0.83700104  1
  O  O472  1  0.98108595  0.58300294  0.08557381  1
  O  O473  1  0.98430978  0.58290273  0.33675109  1
  O  O474  1  0.98469919  0.58368520  0.58343328  1
  O  O475  1  0.98397860  0.58337786  0.83701637  1
  O  O476  1  0.98207031  0.91696695  0.08807266  1
  O  O477  1  0.98597493  0.91675570  0.33589630  1
  O  O478  1  0.98371503  0.91713542  0.58432839  1
  O  O479  1  0.98337435  0.91662363  0.83544831  1
  O  O480  1  0.08640291  0.31490679  0.07732168  1
  O  O481  1  0.08695936  0.31469419  0.32612018  1
  O  O482  1  0.08754164  0.31529683  0.57766322  1
  O  O483  1  0.08824724  0.31480669  0.82810411  1
  O  O484  1  0.08552668  0.64719326  0.07673338  1
  O  O485  1  0.08742435  0.64911706  0.32746271  1
  O  O486  1  0.08942226  0.64729440  0.57700074  1
  O  O487  1  0.08736280  0.64878992  0.82801888  1
  O  O488  1  0.08570014  0.98255121  0.07817287  1
  O  O489  1  0.08986765  0.98154362  0.32733348  1
  O  O490  1  0.08761669  0.98280589  0.57721859  1
  O  O491  1  0.08734469  0.98125597  0.82774062  1
  O  O492  1  0.58654129  0.31499119  0.07620429  1
  O  O493  1  0.58700133  0.31580067  0.32762113  1
  O  O494  1  0.58513067  0.31490328  0.57717853  1
  O  O495  1  0.58803187  0.31402357  0.82722860  1
  O  O496  1  0.58791403  0.64924467  0.07769233  1
  O  O497  1  0.59049502  0.64782837  0.32799274  1
  O  O498  1  0.58831571  0.64773661  0.57723339  1
  O  O499  1  0.58838002  0.64836767  0.82833598  1
  O  O500  1  0.58812029  0.98112816  0.07692804  1
  O  O501  1  0.58671416  0.98184330  0.32631943  1
  O  O502  1  0.58707004  0.98215167  0.57770098  1
  O  O503  1  0.58746981  0.98335203  0.82743574  1
  O  O504  1  0.41136822  0.01880102  0.17108998  1
  O  O505  1  0.41140443  0.01667713  0.42217730  1
  O  O506  1  0.41000562  0.01934166  0.67297693  1
  O  O507  1  0.41264540  0.01712780  0.92287346  1
  O  O508  1  0.41281839  0.35129423  0.17189240  1
  O  O509  1  0.41286725  0.35214149  0.42283709  1
  O  O510  1  0.41075394  0.35086531  0.67234271  1
  O  O511  1  0.41186641  0.35154632  0.92261690  1
  O  O512  1  0.41510551  0.68457568  0.17281748  1
  O  O513  1  0.41489906  0.68607615  0.42261051  1
  O  O514  1  0.41178557  0.68473008  0.67318136  1
  O  O515  1  0.41255918  0.68611304  0.92307510  1
  O  O516  1  0.91299607  0.01811355  0.17356389  1
  O  O517  1  0.91419575  0.01903482  0.42225890  1
  O  O518  1  0.91458650  0.01688377  0.67274667  1
  O  O519  1  0.91170103  0.01812359  0.92271515  1
  O  O520  1  0.91150352  0.35154535  0.17196056  1
  O  O521  1  0.91127652  0.35036182  0.42173537  1
  O  O522  1  0.91327017  0.35197924  0.67251319  1
  O  O523  1  0.91061810  0.35160992  0.92319664  1
  O  O524  1  0.90965051  0.68488947  0.17264215  1
  O  O525  1  0.91408951  0.68516238  0.42247370  1
  O  O526  1  0.91310334  0.68603697  0.67198087  1
  O  O527  1  0.91106160  0.68535634  0.92389265  1
  O  O528  1  0.16015400  0.01806766  0.20236249  1
  O  O529  1  0.16229625  0.01763537  0.45219796  1
  O  O530  1  0.16397870  0.01790327  0.70203540  1
  O  O531  1  0.16354188  0.01883228  0.95322454  1
  O  O532  1  0.16073706  0.35059607  0.20184275  1
  O  O533  1  0.16286422  0.35249116  0.45259968  1
  O  O534  1  0.16371768  0.35151520  0.70156955  1
  O  O535  1  0.16080533  0.35152946  0.95412950  1
  O  O536  1  0.16155646  0.68612753  0.20223478  1
  O  O537  1  0.16152724  0.68465502  0.45182904  1
  O  O538  1  0.16501410  0.68541806  0.70262543  1
  O  O539  1  0.16295410  0.68370974  0.95374129  1
  O  O540  1  0.66411518  0.01771236  0.20262706  1
  O  O541  1  0.66312721  0.01851022  0.45226071  1
  O  O542  1  0.66334949  0.01760014  0.70259867  1
  O  O543  1  0.66116630  0.01833502  0.95245339  1
  O  O544  1  0.66366067  0.35195919  0.20263003  1
  O  O545  1  0.66334950  0.35186977  0.45085020  1
  O  O546  1  0.66471837  0.35112435  0.70142265  1
  O  O547  1  0.66462148  0.35106113  0.95296837  1
  O  O548  1  0.66161126  0.68543853  0.20271568  1
  O  O549  1  0.66197899  0.68415582  0.45236403  1
  O  O550  1  0.66219648  0.68625881  0.70307034  1
  O  O551  1  0.66308659  0.68488274  0.95395033  1
  O  O552  1  0.33651929  0.31402185  0.04902201  1
  O  O553  1  0.33497925  0.31519106  0.29718892  1
  O  O554  1  0.33846900  0.31486770  0.54712002  1
  O  O555  1  0.33826029  0.31527230  0.79683458  1
  O  O556  1  0.33675602  0.64791474  0.04957145  1
  O  O557  1  0.33782085  0.64837793  0.29751814  1
  O  O558  1  0.33648696  0.64788494  0.54668738  1
  O  O559  1  0.33760146  0.64838390  0.79764098  1
  O  O560  1  0.33911660  0.98305377  0.04796515  1
  O  O561  1  0.33752917  0.98165412  0.29753546  1
  O  O562  1  0.33614214  0.98228744  0.54607852  1
  O  O563  1  0.33890278  0.98209440  0.79789330  1
  O  O564  1  0.83664137  0.31557838  0.04813002  1
  O  O565  1  0.84021159  0.31442653  0.29684468  1
  O  O566  1  0.83851379  0.31622933  0.54564534  1
  O  O567  1  0.83842266  0.31453255  0.79653350  1
  O  O568  1  0.83640507  0.64835354  0.04865597  1
  O  O569  1  0.83674973  0.64907559  0.29699848  1
  O  O570  1  0.83550607  0.64783067  0.54737615  1
  O  O571  1  0.83793902  0.64771469  0.79726186  1
  O  O572  1  0.83644221  0.98114689  0.04878427  1
  O  O573  1  0.83710107  0.98176132  0.29720457  1
  O  O574  1  0.83889507  0.98138298  0.54828298  1
  O  O575  1  0.83671137  0.98285854  0.79705626  1
  O  O576  1  0.41158638  0.14913379  0.17138745  1
  O  O577  1  0.40995386  0.14679355  0.42250393  1
  O  O578  1  0.41064680  0.14953206  0.67231114  1
  O  O579  1  0.41182757  0.14706230  0.92348286  1
  O  O580  1  0.41293805  0.48181565  0.17209294  1
  O  O581  1  0.41363475  0.48209037  0.42316403  1
  O  O582  1  0.41068225  0.48104135  0.67304683  1
  O  O583  1  0.41201778  0.48161212  0.92301720  1
  O  O584  1  0.41469659  0.81484443  0.17253596  1
  O  O585  1  0.41487216  0.81622348  0.42206188  1
  O  O586  1  0.41159605  0.81479210  0.67314631  1
  O  O587  1  0.41251373  0.81636130  0.92199816  1
  O  O588  1  0.91261675  0.14815437  0.17273741  1
  O  O589  1  0.91479491  0.14918758  0.42171567  1
  O  O590  1  0.91369418  0.14686304  0.67338658  1
  O  O591  1  0.91220036  0.14812628  0.92286144  1
  O  O592  1  0.91176461  0.48176028  0.17264461  1
  O  O593  1  0.91061903  0.48048792  0.42295586  1
  O  O594  1  0.91335924  0.48208926  0.67249091  1
  O  O595  1  0.91063319  0.48144108  0.92313501  1
  O  O596  1  0.90993080  0.81520331  0.17282120  1
  O  O597  1  0.91353789  0.81526944  0.42190756  1
  O  O598  1  0.91374333  0.81639332  0.67147722  1
  O  O599  1  0.91092377  0.81519760  0.92387189  1
  O  O600  1  0.08672219  0.18472846  0.07765565  1
  O  O601  1  0.08681690  0.18466479  0.32653409  1
  O  O602  1  0.08848269  0.18496653  0.57852393  1
  O  O603  1  0.08809423  0.18470370  0.82810477  1
  O  O604  1  0.08495280  0.51720066  0.07702507  1
  O  O605  1  0.08812575  0.51882920  0.32754892  1
  O  O606  1  0.08808851  0.51717376  0.57682784  1
  O  O607  1  0.08754808  0.51860140  0.82800602  1
  O  O608  1  0.08587566  0.85240083  0.07774103  1
  O  O609  1  0.08953529  0.85140958  0.32688797  1
  O  O610  1  0.08805286  0.85269727  0.57663706  1
  O  O611  1  0.08687949  0.85119412  0.82757370  1
  O  O612  1  0.58666198  0.18507987  0.07642504  1
  O  O613  1  0.58708365  0.18557699  0.32722342  1
  O  O614  1  0.58463505  0.18490324  0.57678335  1
  O  O615  1  0.58783804  0.18358669  0.82804670  1
  O  O616  1  0.58837937  0.51909944  0.07700118  1
  O  O617  1  0.58961572  0.51751325  0.32760447  1
  O  O618  1  0.58777514  0.51776349  0.57700161  1
  O  O619  1  0.58835400  0.51800022  0.82781921  1
  O  O620  1  0.58758406  0.85098866  0.07738488  1
  O  O621  1  0.58712535  0.85186586  0.32701619  1
  O  O622  1  0.58744337  0.85208488  0.57824142  1
  O  O623  1  0.58829746  0.85330602  0.82697844  1
  O  O624  1  0.33617579  0.18413992  0.04881542  1
  O  O625  1  0.33532779  0.18514226  0.29696359  1
  O  O626  1  0.33801974  0.18467418  0.54694782  1
  O  O627  1  0.33845902  0.18477367  0.79671719  1
  O  O628  1  0.33630682  0.51801628  0.04937662  1
  O  O629  1  0.33822135  0.51816910  0.29697005  1
  O  O630  1  0.33570071  0.51773270  0.54687696  1
  O  O631  1  0.33781354  0.51798073  0.79755761  1
  O  O632  1  0.34018761  0.85293572  0.04852999  1
  O  O633  1  0.33709750  0.85170546  0.29822015  1
  O  O634  1  0.33683568  0.85220628  0.54635443  1
  O  O635  1  0.33908366  0.85196538  0.79807800  1
  O  O636  1  0.83711176  0.18563148  0.04862807  1
  O  O637  1  0.83976021  0.18412800  0.29721863  1
  O  O638  1  0.83895288  0.18597271  0.54695527  1
  O  O639  1  0.83768412  0.18413197  0.79709563  1
  O  O640  1  0.83675153  0.51826089  0.04838238  1
  O  O641  1  0.83690978  0.51878477  0.29713761  1
  O  O642  1  0.83601583  0.51772288  0.54657328  1
  O  O643  1  0.83756864  0.51738821  0.79675115  1
  O  O644  1  0.83594334  0.85122486  0.04853578  1
  O  O645  1  0.83687093  0.85153560  0.29691294  1
  O  O646  1  0.83854220  0.85140776  0.54792358  1
  O  O647  1  0.83707314  0.85261896  0.79716453  1
  O  O648  1  0.15987985  0.14819040  0.20238810  1
  O  O649  1  0.16157835  0.14770791  0.45203549  1
  O  O650  1  0.16416034  0.14779925  0.70172982  1
  O  O651  1  0.16327977  0.14911847  0.95379273  1
  O  O652  1  0.16006088  0.48051570  0.20146274  1
  O  O653  1  0.16377838  0.48258195  0.45262478  1
  O  O654  1  0.16292778  0.48146689  0.70197090  1
  O  O655  1  0.16120196  0.48219033  0.95414550  1
  O  O656  1  0.16213742  0.81631238  0.20249012  1
  O  O657  1  0.16145328  0.81484066  0.45167660  1
  O  O658  1  0.16511788  0.81545439  0.70251098  1
  O  O659  1  0.16306086  0.81418892  0.95299403  1
  O  O660  1  0.66419677  0.14771496  0.20231314  1
  O  O661  1  0.66352021  0.14868978  0.45201080  1
  O  O662  1  0.66334139  0.14777379  0.70200366  1
  O  O663  1  0.66131969  0.14860983  0.95242307  1
  O  O664  1  0.66396728  0.48209147  0.20311756  1
  O  O665  1  0.66299655  0.48188386  0.45182265  1
  O  O666  1  0.66464728  0.48113137  0.70204748  1
  O  O667  1  0.66421137  0.48135032  0.95324041  1
  O  O668  1  0.66183355  0.81560074  0.20240367  1
  O  O669  1  0.66140030  0.81434690  0.45158682  1
  O  O670  1  0.66292519  0.81649871  0.70284343  1
  O  O671  1  0.66296286  0.81525081  0.95375688  1
