# generated using pymatgen
data_Na2MnFe(PO4)2
_symmetry_space_group_name_H-M   'P 1'
_cell_length_a   21.08168677
_cell_length_b   18.93340971
_cell_length_c   20.04068875
_cell_angle_alpha   89.99959223
_cell_angle_beta   90.00080127
_cell_angle_gamma   90.00216143
_symmetry_Int_Tables_number   1
_chemical_formula_structural   Na2MnFe(PO4)2
_chemical_formula_sum   'Na96 Mn48 Fe48 P96 O384'
_cell_volume   7999.20509455
_cell_formula_units_Z   48
loop_
 _symmetry_equiv_pos_site_id
 _symmetry_equiv_pos_as_xyz
  1  'x, y, z'
loop_
 _atom_site_type_symbol
 _atom_site_label
 _atom_site_symmetry_multiplicity
 _atom_site_fract_x
 _atom_site_fract_y
 _atom_site_fract_z
 _atom_site_occupancy
  Na  Na0  1  -0.00112334  -0.00010781  0.00057513  1
  Na  Na1  1  -0.00214771  -0.00030280  0.24954341  1
  Na  Na2  1  -0.00288948  -0.00049153  0.49931077  1
  Na  Na3  1  -0.00075593  0.00058362  0.75029924  1
  Na  Na4  1  -0.00100198  0.33299841  0.00026659  1
  Na  Na5  1  -0.00073372  0.33358274  0.24972722  1
  Na  Na6  1  -0.00132949  0.33315532  0.49951811  1
  Na  Na7  1  -0.00051013  0.33350190  0.74989008  1
  Na  Na8  1  0.00244207  0.66707263  -0.00088474  1
  Na  Na9  1  -0.00066511  0.66675433  0.25051813  1
  Na  Na10  1  -0.00251634  0.66644774  0.50054884  1
  Na  Na11  1  -0.00065950  0.66621572  0.75011877  1
  Na  Na12  1  0.50121108  0.00017070  0.00058399  1
  Na  Na13  1  0.49961222  -0.00006467  0.25036913  1
  Na  Na14  1  0.49789335  -0.00125948  0.50020326  1
  Na  Na15  1  0.50086122  -0.00041458  0.74965608  1
  Na  Na16  1  0.49813775  0.33256497  0.00000920  1
  Na  Na17  1  0.49916607  0.33287505  0.24985251  1
  Na  Na18  1  0.50002901  0.33291241  0.50118117  1
  Na  Na19  1  0.50036304  0.33356903  0.74956735  1
  Na  Na20  1  0.50020638  0.66755361  -0.00070403  1
  Na  Na21  1  0.49875123  0.66676987  0.25087982  1
  Na  Na22  1  0.49747709  0.66624849  0.49939995  1
  Na  Na23  1  0.49768508  0.66608347  0.74925261  1
  Na  Na24  1  0.25026603  -0.00026453  0.12388982  1
  Na  Na25  1  0.25082898  0.00005656  0.37651400  1
  Na  Na26  1  0.25015812  -0.00035148  0.62474941  1
  Na  Na27  1  0.25072087  0.00051048  0.87436787  1
  Na  Na28  1  0.25090383  0.33309766  0.12595753  1
  Na  Na29  1  0.25224398  0.33336278  0.37441923  1
  Na  Na30  1  0.25172633  0.33431936  0.62545511  1
  Na  Na31  1  0.25050625  0.33384626  0.87508391  1
  Na  Na32  1  0.24902058  0.66650055  0.12396874  1
  Na  Na33  1  0.25192034  0.66760653  0.37453357  1
  Na  Na34  1  0.25173413  0.66734146  0.62600492  1
  Na  Na35  1  0.24879427  0.66614832  0.87528843  1
  Na  Na36  1  0.74976672  0.00009361  0.12509785  1
  Na  Na37  1  0.75312439  0.00090933  0.37504755  1
  Na  Na38  1  0.75226260  0.00039454  0.62545068  1
  Na  Na39  1  0.75070981  0.00052659  0.87541188  1
  Na  Na40  1  0.75238525  0.33417564  0.12408811  1
  Na  Na41  1  0.74999034  0.33318186  0.37416573  1
  Na  Na42  1  0.74886284  0.33271590  0.62567337  1
  Na  Na43  1  0.75027020  0.33320934  0.87513574  1
  Na  Na44  1  0.75029766  0.66673422  0.12373281  1
  Na  Na45  1  0.75250093  0.66736154  0.37526750  1
  Na  Na46  1  0.75291577  0.66748320  0.62582553  1
  Na  Na47  1  0.75046969  0.66697238  0.87521987  1
  Na  Na48  1  -0.00202824  0.16722186  -0.00048878  1
  Na  Na49  1  -0.00214453  0.16694165  0.24963603  1
  Na  Na50  1  -0.00025973  0.16519572  0.49928294  1
  Na  Na51  1  -0.00196815  0.16693695  0.75089763  1
  Na  Na52  1  0.00086247  0.50001786  0.00051237  1
  Na  Na53  1  -0.00258703  0.50059559  0.24978070  1
  Na  Na54  1  -0.00340115  0.50125344  0.50058778  1
  Na  Na55  1  0.00100941  0.50006881  0.74968951  1
  Na  Na56  1  0.00238807  0.83186939  0.00028450  1
  Na  Na57  1  0.00037907  0.83313964  0.25008284  1
  Na  Na58  1  -0.00313875  0.83437673  0.49968808  1
  Na  Na59  1  -0.00159600  0.83370563  0.74939406  1
  Na  Na60  1  0.50204748  0.16614795  0.00041494  1
  Na  Na61  1  0.49968863  0.16749497  0.25102014  1
  Na  Na62  1  0.50079851  0.16720412  0.49980023  1
  Na  Na63  1  0.50266368  0.16622776  0.74962784  1
  Na  Na64  1  0.49665308  0.50098004  -0.00034725  1
  Na  Na65  1  0.49864576  0.50015646  0.24933732  1
  Na  Na66  1  0.49759778  0.50049828  0.50046716  1
  Na  Na67  1  0.49730599  0.50044028  0.75004826  1
  Na  Na68  1  0.50066325  0.83286123  -0.00038962  1
  Na  Na69  1  0.49868532  0.83327463  0.25057789  1
  Na  Na70  1  0.49754441  0.83348302  0.50062201  1
  Na  Na71  1  0.49928468  0.83329329  0.74903284  1
  Na  Na72  1  0.25137573  0.16640184  0.12558938  1
  Na  Na73  1  0.25191028  0.16576758  0.37566239  1
  Na  Na74  1  0.24861107  0.16697801  0.62389401  1
  Na  Na75  1  0.24825148  0.16769681  0.87456199  1
  Na  Na76  1  0.25034205  0.49988182  0.12462982  1
  Na  Na77  1  0.25112763  0.50029847  0.37406161  1
  Na  Na78  1  0.25205110  0.49942477  0.62619972  1
  Na  Na79  1  0.25015671  0.50005454  0.87486515  1
  Na  Na80  1  0.24905425  0.83413019  0.12358090  1
  Na  Na81  1  0.25197195  0.83285677  0.37563250  1
  Na  Na82  1  0.25307065  0.83222856  0.62605339  1
  Na  Na83  1  0.25048192  0.83321486  0.87534499  1
  Na  Na84  1  0.75074119  0.16640398  0.12383924  1
  Na  Na85  1  0.74973737  0.16697644  0.37399584  1
  Na  Na86  1  0.74986305  0.16642819  0.62626118  1
  Na  Na87  1  0.75073007  0.16615188  0.87643022  1
  Na  Na88  1  0.75215658  0.50016454  0.12466890  1
  Na  Na89  1  0.75287730  0.49931002  0.37518898  1
  Na  Na90  1  0.75283998  0.49958043  0.62542523  1
  Na  Na91  1  0.75275316  0.49982479  0.87458146  1
  Na  Na92  1  0.74948086  0.83264733  0.12442542  1
  Na  Na93  1  0.75312879  0.83205068  0.37536350  1
  Na  Na94  1  0.75188332  0.83256170  0.62514396  1
  Na  Na95  1  0.74765173  0.83351798  0.87492306  1
  Mn  Mn96  1  0.35780307  0.08329276  0.50299352  1
  Mn  Mn97  1  0.14291496  0.24902956  0.24786523  1
  Mn  Mn98  1  0.64294364  0.58305019  0.49833044  1
  Mn  Mn99  1  0.64249675  0.91640660  0.24869582  1
  Mn  Mn100  1  0.60795334  0.08282744  0.37305466  1
  Mn  Mn101  1  0.35873611  0.08461017  0.00177801  1
  Mn  Mn102  1  0.60713803  0.74937018  0.62289584  1
  Mn  Mn103  1  0.89229153  0.91634398  0.12750398  1
  Mn  Mn104  1  0.35829667  0.41632681  0.25254977  1
  Mn  Mn105  1  0.64234039  0.58328458  0.74786626  1
  Mn  Mn106  1  0.39154150  0.58302257  0.37762647  1
  Mn  Mn107  1  0.64158732  0.91650018  0.99777154  1
  Mn  Mn108  1  0.85796626  0.75015642  0.00199243  1
  Mn  Mn109  1  0.89182477  0.91610741  0.87770073  1
  Mn  Mn110  1  0.14223249  0.91741177  0.99700918  1
  Mn  Mn111  1  0.89142111  0.24979764  0.62743975  1
  Mn  Mn112  1  0.10683569  0.08354623  0.87275639  1
  Mn  Mn113  1  0.14228958  0.25065340  0.49750681  1
  Mn  Mn114  1  0.35791209  0.08372816  0.75249575  1
  Mn  Mn115  1  0.39250198  0.24905849  0.87727589  1
  Mn  Mn116  1  0.64276116  0.25083491  0.99829249  1
  Mn  Mn117  1  0.89097275  0.25000328  0.37742486  1
  Mn  Mn118  1  0.39219402  0.91673865  0.12774111  1
  Mn  Mn119  1  0.60816317  0.41719483  0.37318718  1
  Mn  Mn120  1  0.35757938  0.74956540  0.00212958  1
  Mn  Mn121  1  0.10708399  0.75102425  0.62283939  1
  Mn  Mn122  1  0.39286165  0.24956561  0.62764444  1
  Mn  Mn123  1  0.60781510  0.74985497  0.37331861  1
  Mn  Mn124  1  0.64309582  0.91662708  0.49768908  1
  Mn  Mn125  1  0.14204897  0.91605872  0.49828832  1
  Mn  Mn126  1  0.14252037  0.91641515  0.74740787  1
  Mn  Mn127  1  0.60748444  0.41774074  0.62312356  1
  Mn  Mn128  1  0.14128716  0.25028596  0.74745219  1
  Mn  Mn129  1  0.10708729  0.08310641  0.37226642  1
  Mn  Mn130  1  0.10717744  0.41677659  0.37338329  1
  Mn  Mn131  1  0.10752910  0.75009566  0.37325926  1
  Mn  Mn132  1  0.14203505  0.58415056  0.24815309  1
  Mn  Mn133  1  0.60774540  0.41733102  0.12234573  1
  Mn  Mn134  1  0.60878861  0.08268638  0.62241680  1
  Mn  Mn135  1  0.10775256  0.08363203  0.12331517  1
  Mn  Mn136  1  0.60727008  0.41726142  0.87310507  1
  Mn  Mn137  1  0.10749357  0.41657816  0.12282007  1
  Mn  Mn138  1  0.89289286  0.58345050  0.12688477  1
  Mn  Mn139  1  0.14235166  0.58325044  0.49819961  1
  Mn  Mn140  1  0.64273459  0.58318492  0.24764216  1
  Mn  Mn141  1  0.85834789  0.41643059  0.75321772  1
  Mn  Mn142  1  0.10784244  0.41626946  0.62189158  1
  Mn  Mn143  1  0.64184327  0.58256207  0.99764170  1
  Fe  Fe144  1  0.35782899  0.41690977  0.50197513  1
  Fe  Fe145  1  0.85723289  0.08382390  0.50238031  1
  Fe  Fe146  1  0.85654821  0.08319786  0.25126880  1
  Fe  Fe147  1  0.89188084  0.58386054  0.37705170  1
  Fe  Fe148  1  0.39176020  0.91715718  0.37666470  1
  Fe  Fe149  1  0.35655834  0.41622532  0.00124940  1
  Fe  Fe150  1  0.60746878  0.08314015  0.12435520  1
  Fe  Fe151  1  0.14298130  0.58229735  0.99770243  1
  Fe  Fe152  1  0.39361748  0.24977386  0.37725011  1
  Fe  Fe153  1  0.10737083  0.74957254  0.87242222  1
  Fe  Fe154  1  0.35825596  0.08223611  0.25176232  1
  Fe  Fe155  1  0.89232103  0.91612512  0.37644376  1
  Fe  Fe156  1  0.89423317  0.58307177  0.87666540  1
  Fe  Fe157  1  0.35721648  0.74968017  0.75268286  1
  Fe  Fe158  1  0.64294340  0.91663080  0.74822546  1
  Fe  Fe159  1  0.14343937  0.58344789  0.74823768  1
  Fe  Fe160  1  0.85862159  0.41675940  0.00142691  1
  Fe  Fe161  1  0.14228522  0.25048507  0.99889200  1
  Fe  Fe162  1  0.89240169  0.25110720  0.87716266  1
  Fe  Fe163  1  0.85799152  0.74996311  0.50244543  1
  Fe  Fe164  1  0.89276690  0.58376548  0.62774370  1
  Fe  Fe165  1  0.10592702  0.08296424  0.62381918  1
  Fe  Fe166  1  0.85682516  0.08342008  0.00221926  1
  Fe  Fe167  1  0.39191809  0.58393071  0.87693113  1
  Fe  Fe168  1  0.89254154  0.24994879  0.12679880  1
  Fe  Fe169  1  0.89203165  0.91659117  0.62748756  1
  Fe  Fe170  1  0.64314692  0.25015782  0.49838461  1
  Fe  Fe171  1  0.60734451  0.74975706  0.12423616  1
  Fe  Fe172  1  0.64337303  0.24981804  0.74933676  1
  Fe  Fe173  1  0.10809359  0.75021238  0.12408410  1
  Fe  Fe174  1  0.39394016  0.91688780  0.87587890  1
  Fe  Fe175  1  0.35756120  0.74937734  0.50214286  1
  Fe  Fe176  1  0.85707239  0.75040543  0.75273272  1
  Fe  Fe177  1  0.35722140  0.75102341  0.25087868  1
  Fe  Fe178  1  0.14282899  0.91696163  0.24928839  1
  Fe  Fe179  1  0.39262806  0.24980664  0.12670726  1
  Fe  Fe180  1  0.35691714  0.41672772  0.75256812  1
  Fe  Fe181  1  0.64281758  0.25026933  0.24779928  1
  Fe  Fe182  1  0.39165744  0.58357265  0.62728837  1
  Fe  Fe183  1  0.85687610  0.08295582  0.75229476  1
  Fe  Fe184  1  0.85708221  0.41615124  0.50215632  1
  Fe  Fe185  1  0.85725873  0.41668049  0.25194256  1
  Fe  Fe186  1  0.10744604  0.41677881  0.87388027  1
  Fe  Fe187  1  0.60842175  0.08279964  0.87325981  1
  Fe  Fe188  1  0.39205151  0.58371138  0.12626478  1
  Fe  Fe189  1  0.39275095  0.91669823  0.62761750  1
  Fe  Fe190  1  0.60658735  0.74986131  0.87255146  1
  Fe  Fe191  1  0.85820087  0.74998159  0.25122199  1
  P  P192  1  0.05252130  0.24966461  0.10949994  1
  P  P193  1  0.05254884  0.25000074  0.35953536  1
  P  P194  1  0.05252610  0.24878324  0.60961113  1
  P  P195  1  0.05282997  0.25114234  0.86146913  1
  P  P196  1  0.05461243  0.58428063  0.10951642  1
  P  P197  1  0.05143241  0.58336096  0.36051298  1
  P  P198  1  0.05318335  0.58393478  0.61121431  1
  P  P199  1  0.05504830  0.58272354  0.86052400  1
  P  P200  1  0.05492269  0.91630299  0.11140830  1
  P  P201  1  0.05226331  0.91659069  0.35954421  1
  P  P202  1  0.05131765  0.91752461  0.61003556  1
  P  P203  1  0.05309272  0.91610171  0.85960042  1
  P  P204  1  0.55366405  0.24964990  0.11143729  1
  P  P205  1  0.55475800  0.25026569  0.36067746  1
  P  P206  1  0.55604965  0.25010994  0.61066134  1
  P  P207  1  0.55438732  0.24961026  0.85968571  1
  P  P208  1  0.55178493  0.58412981  0.10997968  1
  P  P209  1  0.55309803  0.58320065  0.35998580  1
  P  P210  1  0.55134681  0.58359485  0.60988611  1
  P  P211  1  0.55146808  0.58382830  0.85978098  1
  P  P212  1  0.55354266  0.91637865  0.11082251  1
  P  P213  1  0.55174492  0.91637454  0.36051777  1
  P  P214  1  0.55358363  0.91602725  0.61081990  1
  P  P215  1  0.55356064  0.91636473  0.85923152  1
  P  P216  1  0.44758780  0.08418151  0.14066330  1
  P  P217  1  0.44548548  0.08329665  0.38913550  1
  P  P218  1  0.44725009  0.08277956  0.64032651  1
  P  P219  1  0.44901340  0.08238755  0.88972174  1
  P  P220  1  0.44495658  0.41668507  0.13828961  1
  P  P221  1  0.44637110  0.41555862  0.39090497  1
  P  P222  1  0.44449100  0.41737559  0.63994247  1
  P  P223  1  0.44432504  0.41710853  0.88950360  1
  P  P224  1  0.44706025  0.74929808  0.14026232  1
  P  P225  1  0.44433448  0.75113374  0.38946279  1
  P  P226  1  0.44409074  0.74980145  0.63957848  1
  P  P227  1  0.44615686  0.75035299  0.88842932  1
  P  P228  1  0.94457931  0.08407847  0.13929660  1
  P  P229  1  0.94382027  0.08249855  0.38895806  1
  P  P230  1  0.94499387  0.08269688  0.63984698  1
  P  P231  1  0.94395413  0.08387820  0.88975649  1
  P  P232  1  0.94490886  0.41585631  0.13937515  1
  P  P233  1  0.94418049  0.41735271  0.38961242  1
  P  P234  1  0.94536230  0.41706597  0.63917279  1
  P  P235  1  0.94769159  0.41741635  0.89044845  1
  P  P236  1  0.94792137  0.74980296  0.14028148  1
  P  P237  1  0.94463585  0.75016890  0.38936709  1
  P  P238  1  0.94431555  0.75027959  0.63992878  1
  P  P239  1  0.94711093  0.74911914  0.88880993  1
  P  P240  1  0.19846884  0.08203712  0.23537613  1
  P  P241  1  0.19492537  0.08297384  0.48619325  1
  P  P242  1  0.19572223  0.08328592  0.73385576  1
  P  P243  1  0.19674746  0.08481368  0.98481617  1
  P  P244  1  0.19668361  0.41663094  0.23513644  1
  P  P245  1  0.19853383  0.41715000  0.48469585  1
  P  P246  1  0.19609248  0.41769626  0.73641977  1
  P  P247  1  0.19678125  0.41620519  0.98497114  1
  P  P248  1  0.19741403  0.75145247  0.23474230  1
  P  P249  1  0.19805595  0.74981632  0.48545448  1
  P  P250  1  0.19653597  0.74917024  0.73633827  1
  P  P251  1  0.19458739  0.74914096  0.98533777  1
  P  P252  1  0.69705508  0.08382149  0.23467345  1
  P  P253  1  0.69834859  0.08365746  0.48503691  1
  P  P254  1  0.69658969  0.08292597  0.73677077  1
  P  P255  1  0.69570480  0.08347506  0.98605296  1
  P  P256  1  0.69804782  0.41638906  0.23469425  1
  P  P257  1  0.69812523  0.41638830  0.48540380  1
  P  P258  1  0.69684734  0.41638816  0.73545380  1
  P  P259  1  0.69857688  0.41696632  0.98470224  1
  P  P260  1  0.69802213  0.74980308  0.23473412  1
  P  P261  1  0.69849212  0.74976620  0.48555444  1
  P  P262  1  0.69624560  0.75039603  0.73610124  1
  P  P263  1  0.69434373  0.74947289  0.98515912  1
  P  P264  1  0.30272091  0.25082768  0.01546855  1
  P  P265  1  0.30596069  0.24838831  0.26470324  1
  P  P266  1  0.30488151  0.25083830  0.51412487  1
  P  P267  1  0.30298599  0.25049746  0.76503586  1
  P  P268  1  0.30374879  0.58252982  0.01398313  1
  P  P269  1  0.30449500  0.58467340  0.26328053  1
  P  P270  1  0.30386788  0.58317612  0.51592943  1
  P  P271  1  0.30425401  0.58352558  0.76490619  1
  P  P272  1  0.30512997  0.91704299  0.01324853  1
  P  P273  1  0.30278932  0.91669478  0.26531099  1
  P  P274  1  0.30519051  0.91574015  0.51514358  1
  P  P275  1  0.30535323  0.91614041  0.76481939  1
  P  P276  1  0.80581636  0.25038433  0.01412168  1
  P  P277  1  0.80327727  0.24988312  0.26306558  1
  P  P278  1  0.80204009  0.24983064  0.51510154  1
  P  P279  1  0.80305286  0.24903020  0.76609595  1
  P  P280  1  0.80514020  0.58290806  0.01338288  1
  P  P281  1  0.80446354  0.58374924  0.26509148  1
  P  P282  1  0.80556279  0.58329955  0.51498576  1
  P  P283  1  0.80560605  0.58442159  0.76509494  1
  P  P284  1  0.80305142  0.91695235  0.01509331  1
  P  P285  1  0.80397106  0.91631061  0.26513816  1
  P  P286  1  0.80553558  0.91676485  0.51460878  1
  P  P287  1  0.80332046  0.91634059  0.76430107  1
  O  O288  1  0.05677879  0.24955842  0.18620158  1
  O  O289  1  0.05619031  0.24982626  0.43631718  1
  O  O290  1  0.05538954  0.24977949  0.68647934  1
  O  O291  1  0.05778023  0.25053849  0.93808202  1
  O  O292  1  0.05699912  0.58334184  0.18636933  1
  O  O293  1  0.05542752  0.58337317  0.43723202  1
  O  O294  1  0.05868700  0.58374879  0.68783977  1
  O  O295  1  0.05935680  0.58263182  0.93728250  1
  O  O296  1  0.05897383  0.91719441  0.18814298  1
  O  O297  1  0.05618994  0.91669552  0.43626132  1
  O  O298  1  0.05573976  0.91672755  0.68669198  1
  O  O299  1  0.05626307  0.91660567  0.93643985  1
  O  O300  1  0.55866515  0.25056864  0.18813973  1
  O  O301  1  0.55988579  0.25023425  0.43743412  1
  O  O302  1  0.56063230  0.24998114  0.68741282  1
  O  O303  1  0.55718190  0.25042626  0.93654426  1
  O  O304  1  0.55582108  0.58318947  0.18667288  1
  O  O305  1  0.55677609  0.58312744  0.43672365  1
  O  O306  1  0.55588619  0.58348365  0.68655884  1
  O  O307  1  0.55554035  0.58310745  0.93646195  1
  O  O308  1  0.55637703  0.91638277  0.18758552  1
  O  O309  1  0.55599927  0.91629471  0.43722131  1
  O  O310  1  0.55918120  0.91620681  0.68745373  1
  O  O311  1  0.55651286  0.91656937  0.93600894  1
  O  O312  1  0.44426355  0.08371678  0.06390299  1
  O  O313  1  0.44199121  0.08297312  0.31236962  1
  O  O314  1  0.44379267  0.08368053  0.56355031  1
  O  O315  1  0.44489459  0.08338737  0.81310286  1
  O  O316  1  0.44073547  0.41636486  0.06153999  1
  O  O317  1  0.44359238  0.41638881  0.31403557  1
  O  O318  1  0.44086711  0.41656961  0.56314352  1
  O  O319  1  0.44054561  0.41632460  0.81268043  1
  O  O320  1  0.44354553  0.74999741  0.06351815  1
  O  O321  1  0.44040177  0.75059959  0.31269323  1
  O  O322  1  0.44063281  0.74956059  0.56275041  1
  O  O323  1  0.44162649  0.74982836  0.81173028  1
  O  O324  1  0.94072156  0.08307324  0.06250373  1
  O  O325  1  0.93957213  0.08366029  0.31216776  1
  O  O326  1  0.94071414  0.08368607  0.56306827  1
  O  O327  1  0.93994776  0.08305696  0.81289610  1
  O  O328  1  0.94155966  0.41674479  0.06257420  1
  O  O329  1  0.94036369  0.41627966  0.31274993  1
  O  O330  1  0.94081677  0.41602897  0.56243202  1
  O  O331  1  0.94436836  0.41715118  0.81367821  1
  O  O332  1  0.94409010  0.74990451  0.06355397  1
  O  O333  1  0.94127848  0.75012960  0.31256016  1
  O  O334  1  0.94077682  0.75021349  0.56305401  1
  O  O335  1  0.94189835  0.75023261  0.81219205  1
  O  O336  1  0.19367773  0.08384295  0.06157749  1
  O  O337  1  0.19444895  0.08287316  0.31208538  1
  O  O338  1  0.18989329  0.08272612  0.56286212  1
  O  O339  1  0.19225170  0.08326867  0.81067569  1
  O  O340  1  0.19346763  0.41623445  0.06169000  1
  O  O341  1  0.19329493  0.41668913  0.31190193  1
  O  O342  1  0.19446962  0.41695575  0.56148276  1
  O  O343  1  0.19111047  0.41675015  0.81306237  1
  O  O344  1  0.19091522  0.75013574  0.06212783  1
  O  O345  1  0.19390636  0.75041507  0.31150733  1
  O  O346  1  0.19373270  0.75019565  0.56214903  1
  O  O347  1  0.19139943  0.75001347  0.81300533  1
  O  O348  1  0.69061007  0.08327490  0.06271935  1
  O  O349  1  0.69359037  0.08329726  0.31141078  1
  O  O350  1  0.69482792  0.08270672  0.56179524  1
  O  O351  1  0.69226756  0.08259705  0.81351923  1
  O  O352  1  0.69426835  0.41743548  0.06140090  1
  O  O353  1  0.69415984  0.41685187  0.31137391  1
  O  O354  1  0.69417362  0.41741706  0.56208960  1
  O  O355  1  0.69347090  0.41750232  0.81219695  1
  O  O356  1  0.68986495  0.74932266  0.06194373  1
  O  O357  1  0.69406055  0.74976989  0.31145058  1
  O  O358  1  0.69394804  0.74974344  0.56223344  1
  O  O359  1  0.69078504  0.74955722  0.81278135  1
  O  O360  1  0.30982968  0.24930017  0.18785728  1
  O  O361  1  0.30913166  0.24983224  0.43737957  1
  O  O362  1  0.30653106  0.24953893  0.68830836  1
  O  O363  1  0.30644633  0.24965335  0.93875157  1
  O  O364  1  0.30815255  0.58396584  0.18651762  1
  O  O365  1  0.30624140  0.58326938  0.43898628  1
  O  O366  1  0.30828610  0.58372073  0.68819100  1
  O  O367  1  0.30832717  0.58387988  0.93725316  1
  O  O368  1  0.30594425  0.91689088  0.18850037  1
  O  O369  1  0.30884843  0.91692013  0.43832648  1
  O  O370  1  0.30925505  0.91696847  0.68800507  1
  O  O371  1  0.31003520  0.91709412  0.93655551  1
  O  O372  1  0.80769780  0.24991520  0.18640106  1
  O  O373  1  0.80517461  0.24989483  0.43837196  1
  O  O374  1  0.80626321  0.24978648  0.68934683  1
  O  O375  1  0.80938064  0.25067608  0.93729423  1
  O  O376  1  0.80712908  0.58413794  0.18825955  1
  O  O377  1  0.80875063  0.58360587  0.43814060  1
  O  O378  1  0.80950960  0.58363365  0.68827827  1
  O  O379  1  0.80975288  0.58363707  0.93668167  1
  O  O380  1  0.80620154  0.91610307  0.18831053  1
  O  O381  1  0.80896144  0.91650161  0.43781188  1
  O  O382  1  0.80775758  0.91633178  0.68760197  1
  O  O383  1  0.80593138  0.91600036  0.93828968  1
  O  O384  1  0.23269754  0.25028826  0.04020330  1
  O  O385  1  0.23590833  0.24943496  0.28898472  1
  O  O386  1  0.23491572  0.25060728  0.53854126  1
  O  O387  1  0.23317576  0.25069414  0.78977001  1
  O  O388  1  0.23329958  0.58265652  0.03743845  1
  O  O389  1  0.23469155  0.58420220  0.28832107  1
  O  O390  1  0.23440595  0.58334418  0.54182422  1
  O  O391  1  0.23397465  0.58340104  0.78899313  1
  O  O392  1  0.23493756  0.91691447  0.03680247  1
  O  O393  1  0.23297077  0.91662411  0.29074451  1
  O  O394  1  0.23517559  0.91606892  0.53959883  1
  O  O395  1  0.23525651  0.91670456  0.78888521  1
  O  O396  1  0.73579478  0.25031386  0.03852652  1
  O  O397  1  0.73304862  0.24986474  0.28735362  1
  O  O398  1  0.73223339  0.24969538  0.54042339  1
  O  O399  1  0.73304060  0.24954056  0.79085163  1
  O  O400  1  0.73513311  0.58330575  0.03767294  1
  O  O401  1  0.73487289  0.58344459  0.29074711  1
  O  O402  1  0.73572260  0.58353168  0.54012828  1
  O  O403  1  0.73551256  0.58352971  0.78916603  1
  O  O404  1  0.73343898  0.91662091  0.04028997  1
  O  O405  1  0.73447834  0.91645363  0.29118337  1
  O  O406  1  0.73564692  0.91655523  0.53953315  1
  O  O407  1  0.73312825  0.91665362  0.78856314  1
  O  O408  1  0.26846973  0.08234942  0.21065824  1
  O  O409  1  0.26523267  0.08313978  0.46294790  1
  O  O410  1  0.26560890  0.08333241  0.70931244  1
  O  O411  1  0.26642270  0.08460793  0.95949848  1
  O  O412  1  0.26651084  0.41652166  0.21043221  1
  O  O413  1  0.26854384  0.41719724  0.46023736  1
  O  O414  1  0.26656489  0.41727991  0.71308755  1
  O  O415  1  0.26682818  0.41669927  0.96023617  1
  O  O416  1  0.26734109  0.75092282  0.20963166  1
  O  O417  1  0.26819264  0.74970294  0.46137903  1
  O  O418  1  0.26702103  0.74949909  0.71321104  1
  O  O419  1  0.26471655  0.74968195  0.96124094  1
  O  O420  1  0.76717971  0.08327200  0.21018849  1
  O  O421  1  0.76830458  0.08372781  0.46030299  1
  O  O422  1  0.76688331  0.08308839  0.71267215  1
  O  O423  1  0.76622636  0.08372172  0.96294458  1
  O  O424  1  0.76822257  0.41695711  0.21041269  1
  O  O425  1  0.76816284  0.41632473  0.46081700  1
  O  O426  1  0.76669838  0.41639958  0.71076492  1
  O  O427  1  0.76869405  0.41642788  0.96050993  1
  O  O428  1  0.76821623  0.74980161  0.21037059  1
  O  O429  1  0.76882800  0.74979757  0.46198713  1
  O  O430  1  0.76672948  0.75008571  0.71296591  1
  O  O431  1  0.76459219  0.75004330  0.96155216  1
  O  O432  1  0.01454632  0.08348524  0.16376462  1
  O  O433  1  0.01393556  0.08263725  0.41290416  1
  O  O434  1  0.01519118  0.08331546  0.66404946  1
  O  O435  1  0.01403919  0.08312008  0.91384493  1
  O  O436  1  0.01484927  0.41689974  0.16393516  1
  O  O437  1  0.01409516  0.41686099  0.41428492  1
  O  O438  1  0.01540084  0.41676320  0.66327215  1
  O  O439  1  0.01768659  0.41716747  0.91527730  1
  O  O440  1  0.01797743  0.74975712  0.16477251  1
  O  O441  1  0.01451476  0.75038195  0.41440513  1
  O  O442  1  0.01436054  0.75019854  0.66425080  1
  O  O443  1  0.01755994  0.74911872  0.91213565  1
  O  O444  1  0.51764191  0.08362193  0.16546491  1
  O  O445  1  0.51529966  0.08307708  0.41421616  1
  O  O446  1  0.51707636  0.08287814  0.66490499  1
  O  O447  1  0.51911342  0.08276966  0.91422667  1
  O  O448  1  0.51490740  0.41662225  0.16294320  1
  O  O449  1  0.51595652  0.41652478  0.41630808  1
  O  O450  1  0.51454070  0.41708561  0.66425929  1
  O  O451  1  0.51431467  0.41668308  0.91402841  1
  O  O452  1  0.51708277  0.74990731  0.16511505  1
  O  O453  1  0.51430879  0.74999983  0.41405125  1
  O  O454  1  0.51410706  0.74980077  0.66399770  1
  O  O455  1  0.51647103  0.75032312  0.91233499  1
  O  O456  1  0.48330686  0.24961428  0.08764345  1
  O  O457  1  0.48425424  0.25007436  0.33755803  1
  O  O458  1  0.48580349  0.24985682  0.58721436  1
  O  O459  1  0.48467747  0.24988524  0.83446190  1
  O  O460  1  0.48172926  0.58409611  0.08534464  1
  O  O461  1  0.48317698  0.58322499  0.33550226  1
  O  O462  1  0.48110588  0.58367767  0.58612888  1
  O  O463  1  0.48126792  0.58363373  0.83565435  1
  O  O464  1  0.48397771  0.91641788  0.08517092  1
  O  O465  1  0.48169101  0.91679958  0.33613232  1
  O  O466  1  0.48303737  0.91594988  0.58796915  1
  O  O467  1  0.48355791  0.91623656  0.83433630  1
  O  O468  1  0.98231269  0.24989238  0.08558448  1
  O  O469  1  0.98267328  0.25010865  0.33503470  1
  O  O470  1  0.98290688  0.24911555  0.58428122  1
  O  O471  1  0.98238306  0.25082098  0.83771754  1
  O  O472  1  0.98494787  0.58384454  0.08421123  1
  O  O473  1  0.98138301  0.58380650  0.33607311  1
  O  O474  1  0.98265397  0.58418773  0.58820558  1
  O  O475  1  0.98466283  0.58302947  0.83666732  1
  O  O476  1  0.98494840  0.91623703  0.08685644  1
  O  O477  1  0.98206302  0.91629980  0.33547372  1
  O  O478  1  0.98114758  0.91682795  0.58599414  1
  O  O479  1  0.98331951  0.91656930  0.83477146  1
  O  O480  1  0.08643376  0.31467432  0.07658286  1
  O  O481  1  0.08655624  0.31506794  0.32717561  1
  O  O482  1  0.08684786  0.31383751  0.57710714  1
  O  O483  1  0.08592487  0.31636376  0.82821463  1
  O  O484  1  0.08879298  0.64946584  0.07766502  1
  O  O485  1  0.08553562  0.64840293  0.32791148  1
  O  O486  1  0.08620296  0.64904486  0.57769188  1
  O  O487  1  0.08864966  0.64765688  0.82710240  1
  O  O488  1  0.08835168  0.98133992  0.07791847  1
  O  O489  1  0.08593810  0.98152074  0.32629102  1
  O  O490  1  0.08457379  0.98279516  0.57728330  1
  O  O491  1  0.08719498  0.98117903  0.82719843  1
  O  O492  1  0.58683760  0.31459049  0.07753996  1
  O  O493  1  0.58790411  0.31532004  0.32708694  1
  O  O494  1  0.58922893  0.31530856  0.57735697  1
  O  O495  1  0.58876019  0.31451910  0.82708147  1
  O  O496  1  0.58570085  0.64930733  0.07774109  1
  O  O497  1  0.58692618  0.64833738  0.32743666  1
  O  O498  1  0.58497317  0.64856035  0.57682130  1
  O  O499  1  0.58513215  0.64889391  0.82695692  1
  O  O500  1  0.58765243  0.98165934  0.07864023  1
  O  O501  1  0.58580828  0.98131685  0.32782478  1
  O  O502  1  0.58663024  0.98109760  0.57718085  1
  O  O503  1  0.58774219  0.98136487  0.82666610  1
  O  O504  1  0.41332231  0.01917362  0.17335586  1
  O  O505  1  0.41135830  0.01834981  0.42182663  1
  O  O506  1  0.41327599  0.01760046  0.67247735  1
  O  O507  1  0.41542384  0.01718548  0.92223113  1
  O  O508  1  0.41148292  0.35156183  0.17144157  1
  O  O509  1  0.41259598  0.35020116  0.42299394  1
  O  O510  1  0.41066023  0.35251773  0.67329318  1
  O  O511  1  0.41033023  0.35226072  0.92271403  1
  O  O512  1  0.41303679  0.68423719  0.17261905  1
  O  O513  1  0.40995163  0.68633825  0.42254083  1
  O  O514  1  0.41024162  0.68480654  0.67264085  1
  O  O515  1  0.41268549  0.68541678  0.92195676  1
  O  O516  1  0.91041180  0.01941360  0.17258276  1
  O  O517  1  0.91039440  0.01719676  0.42156201  1
  O  O518  1  0.91163618  0.01734421  0.67268554  1
  O  O519  1  0.90987355  0.01915972  0.92309347  1
  O  O520  1  0.91163768  0.35039926  0.17201216  1
  O  O521  1  0.91004605  0.35249304  0.42283512  1
  O  O522  1  0.91180009  0.35211234  0.67262770  1
  O  O523  1  0.91322470  0.35265932  0.92304820  1
  O  O524  1  0.91385694  0.68488036  0.17299393  1
  O  O525  1  0.91084621  0.68510190  0.42233459  1
  O  O526  1  0.91053365  0.68535143  0.67298471  1
  O  O527  1  0.91408427  0.68387432  0.92194933  1
  O  O528  1  0.16460456  0.01689494  0.20294968  1
  O  O529  1  0.16196993  0.01775331  0.45270057  1
  O  O530  1  0.16159651  0.01823241  0.70122690  1
  O  O531  1  0.16252942  0.01991565  0.95198344  1
  O  O532  1  0.16276728  0.35151833  0.20258705  1
  O  O533  1  0.16458770  0.35218835  0.45191398  1
  O  O534  1  0.16269062  0.35295879  0.70247385  1
  O  O535  1  0.16299402  0.35101532  0.95226252  1
  O  O536  1  0.16292182  0.68671122  0.20184206  1
  O  O537  1  0.16439323  0.68477729  0.45252763  1
  O  O538  1  0.16355701  0.68391355  0.70317991  1
  O  O539  1  0.16136392  0.68360510  0.95277903  1
  O  O540  1  0.66291005  0.01880407  0.20206887  1
  O  O541  1  0.66463689  0.01858298  0.45205200  1
  O  O542  1  0.66345972  0.01787499  0.70312313  1
  O  O543  1  0.66265268  0.01844581  0.95228961  1
  O  O544  1  0.66453099  0.35125128  0.20185727  1
  O  O545  1  0.66437288  0.35119824  0.45294206  1
  O  O546  1  0.66301445  0.35100341  0.70360782  1
  O  O547  1  0.66446618  0.35192536  0.95239997  1
  O  O548  1  0.66406914  0.68491450  0.20164744  1
  O  O549  1  0.66501093  0.68474671  0.45248867  1
  O  O550  1  0.66316623  0.68534474  0.70232905  1
  O  O551  1  0.66104343  0.68445553  0.95165815  1
  O  O552  1  0.33645666  0.31619515  0.04771982  1
  O  O553  1  0.34032255  0.31308221  0.29782401  1
  O  O554  1  0.33837482  0.31614022  0.54671174  1
  O  O555  1  0.33711974  0.31554695  0.79724982  1
  O  O556  1  0.33716237  0.64739887  0.04777460  1
  O  O557  1  0.33796527  0.64998287  0.29578460  1
  O  O558  1  0.33840502  0.64822012  0.54803403  1
  O  O559  1  0.33770289  0.64857267  0.79836675  1
  O  O560  1  0.33836673  0.98210083  0.04664439  1
  O  O561  1  0.33718976  0.98156632  0.29800070  1
  O  O562  1  0.33930847  0.98047043  0.54852040  1
  O  O563  1  0.33946462  0.98090979  0.79805781  1
  O  O564  1  0.83962906  0.31537902  0.04699132  1
  O  O565  1  0.83665991  0.31492276  0.29639976  1
  O  O566  1  0.83602433  0.31486578  0.54770838  1
  O  O567  1  0.83742481  0.31394078  0.79885089  1
  O  O568  1  0.83871900  0.64783991  0.04683388  1
  O  O569  1  0.83870245  0.64882887  0.29748657  1
  O  O570  1  0.83970766  0.64822712  0.54783163  1
  O  O571  1  0.83897374  0.64968880  0.79792710  1
  O  O572  1  0.83708224  0.98220996  0.04700421  1
  O  O573  1  0.83843214  0.98145957  0.29702356  1
  O  O574  1  0.83913202  0.98213054  0.54730458  1
  O  O575  1  0.83695869  0.98132932  0.79729220  1
  O  O576  1  0.41360945  0.14912939  0.17316419  1
  O  O577  1  0.41204154  0.14869176  0.42185375  1
  O  O578  1  0.41341886  0.14775995  0.67331717  1
  O  O579  1  0.41519505  0.14737958  0.92295421  1
  O  O580  1  0.41146564  0.48202648  0.17102549  1
  O  O581  1  0.41130996  0.48029789  0.42317464  1
  O  O582  1  0.41078735  0.48264104  0.67249793  1
  O  O583  1  0.41059666  0.48237588  0.92196387  1
  O  O584  1  0.41269835  0.81416432  0.17309584  1
  O  O585  1  0.41108652  0.81647165  0.42224414  1
  O  O586  1  0.41036489  0.81492844  0.67243585  1
  O  O587  1  0.41304475  0.81561303  0.92148658  1
  O  O588  1  0.91110850  0.14948580  0.17184025  1
  O  O589  1  0.91019757  0.14737067  0.42271506  1
  O  O590  1  0.91102153  0.14738792  0.67332991  1
  O  O591  1  0.91071173  0.14927976  0.92230792  1
  O  O592  1  0.91051211  0.48051161  0.17236235  1
  O  O593  1  0.91063452  0.48268162  0.42200774  1
  O  O594  1  0.91206425  0.48235361  0.67198802  1
  O  O595  1  0.91388403  0.48263022  0.92299114  1
  O  O596  1  0.91383007  0.81462380  0.17320593  1
  O  O597  1  0.91063168  0.81527944  0.42204166  1
  O  O598  1  0.91058944  0.81549705  0.67272514  1
  O  O599  1  0.91399777  0.81401124  0.92280111  1
  O  O600  1  0.08619492  0.18471714  0.07637947  1
  O  O601  1  0.08627602  0.18482358  0.32678919  1
  O  O602  1  0.08647878  0.18345717  0.57780871  1
  O  O603  1  0.08596607  0.18613601  0.82776352  1
  O  O604  1  0.08907895  0.51938038  0.07683041  1
  O  O605  1  0.08498590  0.51833041  0.32754680  1
  O  O606  1  0.08602374  0.51881903  0.57745820  1
  O  O607  1  0.08823761  0.51748646  0.82736690  1
  O  O608  1  0.08862066  0.85105760  0.07888755  1
  O  O609  1  0.08646599  0.85166114  0.32695913  1
  O  O610  1  0.08516079  0.85253246  0.57685987  1
  O  O611  1  0.08696321  0.85095360  0.82712591  1
  O  O612  1  0.58713898  0.18443798  0.07874266  1
  O  O613  1  0.58807866  0.18521844  0.32724543  1
  O  O614  1  0.58968419  0.18524287  0.57717197  1
  O  O615  1  0.58865200  0.18439437  0.82772279  1
  O  O616  1  0.58547904  0.51911356  0.07665012  1
  O  O617  1  0.58680070  0.51809841  0.32716558  1
  O  O618  1  0.58500073  0.51852145  0.57695882  1
  O  O619  1  0.58515117  0.51877468  0.82678908  1
  O  O620  1  0.58760229  0.85119588  0.07853492  1
  O  O621  1  0.58542264  0.85130180  0.32770502  1
  O  O622  1  0.58654973  0.85097630  0.57721646  1
  O  O623  1  0.58755260  0.85129191  0.82658810  1
  O  O624  1  0.33734583  0.18620957  0.04848320  1
  O  O625  1  0.33913070  0.18294774  0.29732727  1
  O  O626  1  0.33854240  0.18592635  0.54761520  1
  O  O627  1  0.33673760  0.18539517  0.79808134  1
  O  O628  1  0.33711956  0.51734305  0.04674934  1
  O  O629  1  0.33849649  0.51977693  0.29640329  1
  O  O630  1  0.33833142  0.51807676  0.54793825  1
  O  O631  1  0.33786953  0.51846809  0.79789887  1
  O  O632  1  0.33825174  0.85188433  0.04663343  1
  O  O633  1  0.33702691  0.85151401  0.29747314  1
  O  O634  1  0.33879242  0.85041654  0.54750858  1
  O  O635  1  0.33872941  0.85080121  0.79755458  1
  O  O636  1  0.83934961  0.18513277  0.04694084  1
  O  O637  1  0.83657059  0.18477521  0.29633715  1
  O  O638  1  0.83605801  0.18471348  0.54757332  1
  O  O639  1  0.83693970  0.18395831  0.79841195  1
  O  O640  1  0.83857071  0.51761813  0.04612603  1
  O  O641  1  0.83891372  0.51863303  0.29714132  1
  O  O642  1  0.83935264  0.51797449  0.54742957  1
  O  O643  1  0.83997777  0.51970192  0.79813955  1
  O  O644  1  0.83738769  0.85202806  0.04758560  1
  O  O645  1  0.83848949  0.85129201  0.29724958  1
  O  O646  1  0.83957051  0.85188456  0.54764862  1
  O  O647  1  0.83657262  0.85114791  0.79766230  1
  O  O648  1  0.16446404  0.14699836  0.20237266  1
  O  O649  1  0.16171099  0.14798424  0.45265476  1
  O  O650  1  0.16138132  0.14823658  0.70145678  1
  O  O651  1  0.16257241  0.15015533  0.95295583  1
  O  O652  1  0.16283033  0.48176313  0.20262694  1
  O  O653  1  0.16465947  0.48230566  0.45219241  1
  O  O654  1  0.16332312  0.48312799  0.70319593  1
  O  O655  1  0.16261172  0.48112748  0.95215964  1
  O  O656  1  0.16356950  0.81678495  0.20256626  1
  O  O657  1  0.16441948  0.81482461  0.45240363  1
  O  O658  1  0.16338977  0.81407440  0.70237937  1
  O  O659  1  0.16058259  0.81379024  0.95178952  1
  O  O660  1  0.66332468  0.14884602  0.20183856  1
  O  O661  1  0.66426709  0.14872180  0.45283657  1
  O  O662  1  0.66332052  0.14820285  0.70397302  1
  O  O663  1  0.66241876  0.14841994  0.95257990  1
  O  O664  1  0.66423520  0.48143189  0.20172227  1
  O  O665  1  0.66460467  0.48143188  0.45216668  1
  O  O666  1  0.66301202  0.48137135  0.70232233  1
  O  O667  1  0.66490935  0.48187661  0.95149543  1
  O  O668  1  0.66403217  0.81487001  0.20209381  1
  O  O669  1  0.66510451  0.81483614  0.45235940  1
  O  O670  1  0.66334308  0.81567740  0.70283291  1
  O  O671  1  0.66052553  0.81442421  0.95206973  1
