# generated using pymatgen
data_Na2MnFe(PO4)2
_symmetry_space_group_name_H-M   'P 1'
_cell_length_a   21.08583904
_cell_length_b   18.93900976
_cell_length_c   20.04473775
_cell_angle_alpha   90.00029027
_cell_angle_beta   89.99872652
_cell_angle_gamma   89.99972652
_symmetry_Int_Tables_number   1
_chemical_formula_structural   Na2MnFe(PO4)2
_chemical_formula_sum   'Na96 Mn48 Fe48 P96 O384'
_cell_volume   8004.76401678
_cell_formula_units_Z   48
loop_
 _symmetry_equiv_pos_site_id
 _symmetry_equiv_pos_as_xyz
  1  'x, y, z'
loop_
 _atom_site_type_symbol
 _atom_site_label
 _atom_site_symmetry_multiplicity
 _atom_site_fract_x
 _atom_site_fract_y
 _atom_site_fract_z
 _atom_site_occupancy
  Na  Na0  1  0.00254899  0.00106026  0.00107031  1
  Na  Na1  1  -0.00019284  -0.00034314  0.24972710  1
  Na  Na2  1  -0.00181262  -0.00107807  0.49896618  1
  Na  Na3  1  0.00004307  -0.00019717  0.75049885  1
  Na  Na4  1  -0.00222587  0.33241435  0.00101777  1
  Na  Na5  1  -0.00291642  0.33241233  0.25081109  1
  Na  Na6  1  -0.00065563  0.33266249  0.49935506  1
  Na  Na7  1  0.00027418  0.33314322  0.74910202  1
  Na  Na8  1  0.00284685  0.66760950  0.00032841  1
  Na  Na9  1  0.00059826  0.66702204  0.25106177  1
  Na  Na10  1  0.00068021  0.66706157  0.49879716  1
  Na  Na11  1  0.00141711  0.66664351  0.74966832  1
  Na  Na12  1  0.49863249  -0.00050629  0.00030721  1
  Na  Na13  1  0.49904525  -0.00034573  0.24992092  1
  Na  Na14  1  0.49851439  0.00031443  0.49934829  1
  Na  Na15  1  0.49882198  0.00038497  0.75013223  1
  Na  Na16  1  0.50055967  0.33392777  -0.00064881  1
  Na  Na17  1  0.50005805  0.33379648  0.25019901  1
  Na  Na18  1  0.49855237  0.33347608  0.50033869  1
  Na  Na19  1  0.49911996  0.33385065  0.74971786  1
  Na  Na20  1  0.50199983  0.66728887  -0.00071349  1
  Na  Na21  1  0.49827159  0.66548482  0.25053622  1
  Na  Na22  1  0.49776772  0.66632717  0.50007694  1
  Na  Na23  1  0.49814941  0.66641680  0.75029864  1
  Na  Na24  1  0.24841188  -0.00037036  0.12495988  1
  Na  Na25  1  0.25175321  0.00025343  0.37487590  1
  Na  Na26  1  0.25317503  0.00140856  0.62488050  1
  Na  Na27  1  0.24813680  -0.00050558  0.87497948  1
  Na  Na28  1  0.25067584  0.33383967  0.12496912  1
  Na  Na29  1  0.25268458  0.33385005  0.37519626  1
  Na  Na30  1  0.25075442  0.33368886  0.62471360  1
  Na  Na31  1  0.24806073  0.33313025  0.87523761  1
  Na  Na32  1  0.24751850  0.66641733  0.12636224  1
  Na  Na33  1  0.25051790  0.66721785  0.37533422  1
  Na  Na34  1  0.25039593  0.66712612  0.62449924  1
  Na  Na35  1  0.24794596  0.66666906  0.87454548  1
  Na  Na36  1  0.75150276  0.00049682  0.12629297  1
  Na  Na37  1  0.74958077  -0.00013938  0.37629403  1
  Na  Na38  1  0.74977981  -0.00056021  0.62380696  1
  Na  Na39  1  0.75131627  0.00039864  0.87389164  1
  Na  Na40  1  0.75256083  0.33411854  0.12549086  1
  Na  Na41  1  0.75052937  0.33359843  0.37464358  1
  Na  Na42  1  0.75085097  0.33297224  0.62422041  1
  Na  Na43  1  0.75237026  0.33324498  0.87554603  1
  Na  Na44  1  0.75015510  0.66661949  0.12557337  1
  Na  Na45  1  0.75255005  0.66770469  0.37519088  1
  Na  Na46  1  0.75052139  0.66609097  0.62481099  1
  Na  Na47  1  0.74931348  0.66598535  0.87388772  1
  Na  Na48  1  -0.00094369  0.16690685  0.00056093  1
  Na  Na49  1  -0.00162451  0.16700893  0.25096058  1
  Na  Na50  1  -0.00026778  0.16698774  0.49935944  1
  Na  Na51  1  -0.00017608  0.16720699  0.74918833  1
  Na  Na52  1  0.00147326  0.49896569  0.00071580  1
  Na  Na53  1  -0.00271506  0.50136758  0.25047155  1
  Na  Na54  1  -0.00025982  0.50019155  0.49882585  1
  Na  Na55  1  0.00026025  0.50030456  0.75008535  1
  Na  Na56  1  0.00279956  0.83300919  0.00115074  1
  Na  Na57  1  0.00158271  0.83277595  0.25015377  1
  Na  Na58  1  -0.00045297  0.83302916  0.49911751  1
  Na  Na59  1  0.00144987  0.83286927  0.74988880  1
  Na  Na60  1  0.50013245  0.16624084  -0.00004161  1
  Na  Na61  1  0.49796696  0.16719504  0.24988035  1
  Na  Na62  1  0.49963307  0.16573047  0.49974047  1
  Na  Na63  1  0.50008614  0.16584250  0.74993065  1
  Na  Na64  1  0.50188057  0.49919697  -0.00089701  1
  Na  Na65  1  0.50004204  0.50016015  0.25082142  1
  Na  Na66  1  0.49896491  0.50003417  0.49967218  1
  Na  Na67  1  0.49781349  0.50077176  0.75024318  1
  Na  Na68  1  0.49911483  0.83381178  0.00007873  1
  Na  Na69  1  0.49923659  0.83378631  0.24993126  1
  Na  Na70  1  0.49607011  0.83459518  0.50014940  1
  Na  Na71  1  0.49735716  0.83354026  0.74978158  1
  Na  Na72  1  0.24970474  0.16623566  0.12504932  1
  Na  Na73  1  0.25264918  0.16569042  0.37468382  1
  Na  Na74  1  0.24943310  0.16738518  0.62477389  1
  Na  Na75  1  0.24818716  0.16626840  0.87590633  1
  Na  Na76  1  0.24950698  0.50000134  0.12514364  1
  Na  Na77  1  0.25246640  0.49947626  0.37532929  1
  Na  Na78  1  0.25195678  0.49948762  0.62536463  1
  Na  Na79  1  0.24819030  0.50050201  0.87399250  1
  Na  Na80  1  0.24771949  0.83374997  0.12607148  1
  Na  Na81  1  0.25018325  0.83326151  0.37530115  1
  Na  Na82  1  0.25156220  0.83254759  0.62416685  1
  Na  Na83  1  0.24816383  0.83365579  0.87476220  1
  Na  Na84  1  0.75260594  0.16578178  0.12574398  1
  Na  Na85  1  0.75079859  0.16594710  0.37539492  1
  Na  Na86  1  0.74966358  0.16701122  0.62398315  1
  Na  Na87  1  0.75239192  0.16639942  0.87439436  1
  Na  Na88  1  0.75036156  0.49944764  0.12639695  1
  Na  Na89  1  0.74922707  0.50058594  0.37500728  1
  Na  Na90  1  0.75032314  0.50047500  0.62434370  1
  Na  Na91  1  0.75098330  0.49968546  0.87454211  1
  Na  Na92  1  0.75158063  0.83324309  0.12513165  1
  Na  Na93  1  0.75200023  0.83297880  0.37596170  1
  Na  Na94  1  0.75188396  0.83275147  0.62431531  1
  Na  Na95  1  0.74974084  0.83403840  0.87438114  1
  Mn  Mn96  1  0.14067115  0.25034088  0.99784599  1
  Mn  Mn97  1  0.10727297  0.41632695  0.12380084  1
  Mn  Mn98  1  0.64240639  0.58434816  0.24834874  1
  Mn  Mn99  1  0.60838228  0.74980088  0.12321974  1
  Mn  Mn100  1  0.64279917  0.24988700  0.74778593  1
  Mn  Mn101  1  0.64385626  0.24998777  0.99790690  1
  Mn  Mn102  1  0.64196564  0.91661370  0.74705299  1
  Mn  Mn103  1  0.60854492  0.08332357  0.87309339  1
  Mn  Mn104  1  0.85889715  0.74989762  0.75196975  1
  Mn  Mn105  1  0.60674469  0.41666055  0.62288654  1
  Mn  Mn106  1  0.60647265  0.75034007  0.62244949  1
  Mn  Mn107  1  0.10822476  0.41717927  0.62186546  1
  Mn  Mn108  1  0.64217435  0.58330451  0.74698110  1
  Mn  Mn109  1  0.10814011  0.08256902  0.62215840  1
  Mn  Mn110  1  0.39121746  0.91675910  0.87753675  1
  Mn  Mn111  1  0.64265417  0.24931818  0.24808135  1
  Mn  Mn112  1  0.39227671  0.58339631  0.12622879  1
  Mn  Mn113  1  0.14290099  0.91713372  0.49759484  1
  Mn  Mn114  1  0.39134086  0.24999616  0.87712101  1
  Mn  Mn115  1  0.85732094  0.08281380  0.50233653  1
  Mn  Mn116  1  0.14240522  0.91725929  0.74672261  1
  Mn  Mn117  1  0.60806615  0.08367692  0.12293033  1
  Mn  Mn118  1  0.89343804  0.91693219  0.87778108  1
  Mn  Mn119  1  0.64175023  0.91548836  0.49785180  1
  Mn  Mn120  1  0.89317093  0.91662420  0.12766263  1
  Mn  Mn121  1  0.35710337  0.41713928  0.00227678  1
  Mn  Mn122  1  0.85737380  0.41733689  0.50201068  1
  Mn  Mn123  1  0.89233334  0.58350016  0.12699642  1
  Mn  Mn124  1  0.35635995  0.74982093  0.00257411  1
  Mn  Mn125  1  0.60739774  0.75039190  0.37318702  1
  Mn  Mn126  1  0.10795618  0.08283063  0.37282252  1
  Mn  Mn127  1  0.85827472  0.08317266  0.75145366  1
  Mn  Mn128  1  0.39217227  0.25020157  0.12690028  1
  Mn  Mn129  1  0.14231853  0.58286161  0.74675771  1
  Mn  Mn130  1  0.14275719  0.24984545  0.24836124  1
  Mn  Mn131  1  0.39140094  0.24987378  0.62810473  1
  Mn  Mn132  1  0.35722526  0.75001452  0.25224336  1
  Mn  Mn133  1  0.85894839  0.41671519  0.75184212  1
  Mn  Mn134  1  0.64243531  0.91673099  0.99835419  1
  Mn  Mn135  1  0.64170943  0.25068194  0.49745198  1
  Mn  Mn136  1  0.60877568  0.41626665  0.87259119  1
  Mn  Mn137  1  0.10798734  0.41683289  0.37255566  1
  Mn  Mn138  1  0.60780939  0.75041787  0.87253533  1
  Mn  Mn139  1  0.35637722  0.08307589  0.00238105  1
  Mn  Mn140  1  0.89316308  0.58315521  0.87810817  1
  Mn  Mn141  1  0.39153192  0.58338022  0.87797244  1
  Mn  Mn142  1  0.14243079  0.58279488  0.24857203  1
  Mn  Mn143  1  0.85861104  0.74985177  0.00193177  1
  Fe  Fe144  1  0.10756064  0.74993772  0.62268436  1
  Fe  Fe145  1  0.89345376  0.24994165  0.62647589  1
  Fe  Fe146  1  0.89351931  0.24992103  0.87636853  1
  Fe  Fe147  1  0.10693998  0.08355293  0.12411905  1
  Fe  Fe148  1  0.60612664  0.41631103  0.37359817  1
  Fe  Fe149  1  0.10754758  0.75006371  0.12372426  1
  Fe  Fe150  1  0.89269640  0.91641609  0.37612704  1
  Fe  Fe151  1  0.35744073  0.41676213  0.50177655  1
  Fe  Fe152  1  0.85813281  0.41683435  0.00216351  1
  Fe  Fe153  1  0.89313385  0.91635025  0.62659451  1
  Fe  Fe154  1  0.10681198  0.41607848  0.87350011  1
  Fe  Fe155  1  0.60606764  0.08341295  0.37314638  1
  Fe  Fe156  1  0.89243471  0.24958900  0.12730741  1
  Fe  Fe157  1  0.14237082  0.91629052  0.99843118  1
  Fe  Fe158  1  0.35786667  0.08369324  0.50183316  1
  Fe  Fe159  1  0.89255878  0.58370463  0.37744845  1
  Fe  Fe160  1  0.35633734  0.41624313  0.75241623  1
  Fe  Fe161  1  0.35887873  0.41641963  0.25141184  1
  Fe  Fe162  1  0.39202394  0.58407326  0.62671351  1
  Fe  Fe163  1  0.85771129  0.08256489  0.25268674  1
  Fe  Fe164  1  0.85814152  0.74958821  0.50217038  1
  Fe  Fe165  1  0.60619360  0.08302983  0.62348887  1
  Fe  Fe166  1  0.89251890  0.24990255  0.37728905  1
  Fe  Fe167  1  0.14172730  0.58336716  0.99824110  1
  Fe  Fe168  1  0.39216266  0.91640388  0.62699581  1
  Fe  Fe169  1  0.64331837  0.58314313  0.99856718  1
  Fe  Fe170  1  0.14335129  0.58279828  0.49824548  1
  Fe  Fe171  1  0.14330496  0.25041347  0.49800870  1
  Fe  Fe172  1  0.64237018  0.58375587  0.49840956  1
  Fe  Fe173  1  0.35668632  0.74971408  0.50168333  1
  Fe  Fe174  1  0.35625716  0.74996717  0.75210369  1
  Fe  Fe175  1  0.64288198  0.91659036  0.24913856  1
  Fe  Fe176  1  0.85897642  0.08306787  0.00201723  1
  Fe  Fe177  1  0.35689740  0.08389726  0.75238759  1
  Fe  Fe178  1  0.60818008  0.41661201  0.12331204  1
  Fe  Fe179  1  0.10790475  0.74994352  0.87256557  1
  Fe  Fe180  1  0.89342675  0.58350360  0.62585787  1
  Fe  Fe181  1  0.10683043  0.08411487  0.87276206  1
  Fe  Fe182  1  0.14273901  0.91744868  0.24898264  1
  Fe  Fe183  1  0.39235114  0.58337423  0.37744004  1
  Fe  Fe184  1  0.39220624  0.91662275  0.37630902  1
  Fe  Fe185  1  0.39161412  0.91647906  0.12732810  1
  Fe  Fe186  1  0.35729853  0.08346526  0.25110575  1
  Fe  Fe187  1  0.14212827  0.24992616  0.74827687  1
  Fe  Fe188  1  0.85687502  0.41700709  0.25255811  1
  Fe  Fe189  1  0.10697443  0.75016794  0.37390371  1
  Fe  Fe190  1  0.85859631  0.75042602  0.25181100  1
  Fe  Fe191  1  0.39275831  0.24987974  0.37667328  1
  P  P192  1  0.05178630  0.24936299  0.11120745  1
  P  P193  1  0.05360596  0.24997274  0.36121786  1
  P  P194  1  0.05437465  0.24987603  0.60982471  1
  P  P195  1  0.05269125  0.25020670  0.85955994  1
  P  P196  1  0.05402946  0.58384872  0.11029402  1
  P  P197  1  0.05355720  0.58384017  0.36157552  1
  P  P198  1  0.05325972  0.58394937  0.60863926  1
  P  P199  1  0.05503375  0.58292491  0.86102752  1
  P  P200  1  0.05579252  0.91700730  0.11168867  1
  P  P201  1  0.05299443  0.91594700  0.35975896  1
  P  P202  1  0.05237514  0.91598842  0.60935467  1
  P  P203  1  0.05534249  0.91692877  0.86125738  1
  P  P204  1  0.55378765  0.25082628  0.10996651  1
  P  P205  1  0.55193874  0.24997332  0.36026055  1
  P  P206  1  0.55267273  0.24924395  0.61003744  1
  P  P207  1  0.55339759  0.24988955  0.85973694  1
  P  P208  1  0.55441591  0.58239248  0.10952572  1
  P  P209  1  0.55304691  0.58310950  0.36178679  1
  P  P210  1  0.55183778  0.58351516  0.60932137  1
  P  P211  1  0.55465247  0.58317474  0.86064241  1
  P  P212  1  0.55296990  0.91676025  0.11145218  1
  P  P213  1  0.55225563  0.91710026  0.35976295  1
  P  P214  1  0.55120240  0.91724278  0.60984968  1
  P  P215  1  0.55303832  0.91689521  0.85970205  1
  P  P216  1  0.44560646  0.08255533  0.14045422  1
  P  P217  1  0.44521876  0.08329881  0.38865263  1
  P  P218  1  0.44508942  0.08268245  0.63952477  1
  P  P219  1  0.44524394  0.08351470  0.88956039  1
  P  P220  1  0.44787380  0.41717870  0.14029308  1
  P  P221  1  0.44543714  0.41644891  0.38936905  1
  P  P222  1  0.44373998  0.41778981  0.63955357  1
  P  P223  1  0.44534749  0.41649224  0.88917229  1
  P  P224  1  0.44650122  0.75026735  0.13996717  1
  P  P225  1  0.44534176  0.75018639  0.39041537  1
  P  P226  1  0.44372708  0.74982702  0.63925993  1
  P  P227  1  0.44496526  0.75006893  0.88949812  1
  P  P228  1  0.94613328  0.08370327  0.14003489  1
  P  P229  1  0.94519283  0.08285530  0.38881222  1
  P  P230  1  0.94699685  0.08309395  0.63934043  1
  P  P231  1  0.94782012  0.08410556  0.89027751  1
  P  P232  1  0.94457604  0.41611407  0.14013639  1
  P  P233  1  0.94507190  0.41681228  0.38879867  1
  P  P234  1  0.94710380  0.41702046  0.63911171  1
  P  P235  1  0.94760122  0.41579704  0.89048945  1
  P  P236  1  0.94791681  0.74999206  0.14076953  1
  P  P237  1  0.94564699  0.75033820  0.38913017  1
  P  P238  1  0.94727068  0.74957192  0.63836428  1
  P  P239  1  0.94915299  0.75006926  0.89017489  1
  P  P240  1  0.19722379  0.08283042  0.23506088  1
  P  P241  1  0.19840371  0.08401039  0.48490187  1
  P  P242  1  0.19644421  0.08432068  0.73586016  1
  P  P243  1  0.19361237  0.08251929  0.98588815  1
  P  P244  1  0.19872763  0.41635462  0.23548537  1
  P  P245  1  0.19807003  0.41689746  0.48504628  1
  P  P246  1  0.19609416  0.41561492  0.73592475  1
  P  P247  1  0.19516031  0.41749285  0.98453662  1
  P  P248  1  0.19418338  0.75092343  0.23669178  1
  P  P249  1  0.19570995  0.74930949  0.48572823  1
  P  P250  1  0.19581466  0.75011744  0.73462093  1
  P  P251  1  0.19413636  0.75007088  0.98592349  1
  P  P252  1  0.69655389  0.08237230  0.23702845  1
  P  P253  1  0.69385005  0.08310969  0.48541936  1
  P  P254  1  0.69635391  0.08333886  0.73341842  1
  P  P255  1  0.69928319  0.08342554  0.98519665  1
  P  P256  1  0.69575218  0.41647536  0.23641850  1
  P  P257  1  0.69529507  0.41774043  0.48431713  1
  P  P258  1  0.69751725  0.41631408  0.73413454  1
  P  P259  1  0.69772287  0.41710233  0.98638386  1
  P  P260  1  0.69847035  0.75136021  0.23590361  1
  P  P261  1  0.69781307  0.74905165  0.48517938  1
  P  P262  1  0.69696097  0.75015671  0.73391265  1
  P  P263  1  0.69720097  0.74934294  0.98487961  1
  P  P264  1  0.30202323  0.25003860  0.01517982  1
  P  P265  1  0.30453296  0.24986022  0.26532606  1
  P  P266  1  0.30403446  0.24999216  0.51363980  1
  P  P267  1  0.30151887  0.24986456  0.76531821  1
  P  P268  1  0.30070334  0.58372120  0.01516424  1
  P  P269  1  0.30441190  0.58273998  0.26565253  1
  P  P270  1  0.30408111  0.58347670  0.51416280  1
  P  P271  1  0.30435349  0.58367708  0.76364805  1
  P  P272  1  0.30174888  0.91633074  0.01584297  1
  P  P273  1  0.30362952  0.91735669  0.26441870  1
  P  P274  1  0.30551646  0.91669181  0.51397962  1
  P  P275  1  0.30430455  0.91667102  0.76361257  1
  P  P276  1  0.80650337  0.24975649  0.01447585  1
  P  P277  1  0.80551489  0.24965238  0.26474986  1
  P  P278  1  0.80495541  0.25003242  0.51431831  1
  P  P279  1  0.80591904  0.24994235  0.76436527  1
  P  P280  1  0.80255830  0.58278348  0.01519357  1
  P  P281  1  0.80449649  0.58370379  0.26571684  1
  P  P282  1  0.80410909  0.58416622  0.51430250  1
  P  P283  1  0.80540740  0.58330945  0.76388183  1
  P  P284  1  0.80414375  0.91740535  0.01525464  1
  P  P285  1  0.80341622  0.91668366  0.26592981  1
  P  P286  1  0.80539745  0.91559805  0.51427461  1
  P  P287  1  0.80510534  0.91652819  0.76381242  1
  O  O288  1  0.05576742  0.24996777  0.18787697  1
  O  O289  1  0.05946825  0.25010959  0.43784671  1
  O  O290  1  0.05920387  0.25001224  0.68653764  1
  O  O291  1  0.05548632  0.25021543  0.93632000  1
  O  O292  1  0.05663123  0.58292099  0.18712209  1
  O  O293  1  0.05901949  0.58277496  0.43815057  1
  O  O294  1  0.05697340  0.58314092  0.68541510  1
  O  O295  1  0.05829389  0.58296698  0.93780175  1
  O  O296  1  0.05921525  0.91729032  0.18847798  1
  O  O297  1  0.05683859  0.91680036  0.43644522  1
  O  O298  1  0.05636677  0.91676158  0.68606974  1
  O  O299  1  0.05854982  0.91682291  0.93804554  1
  O  O300  1  0.55683031  0.25002148  0.18675215  1
  O  O301  1  0.55533713  0.24993269  0.43693195  1
  O  O302  1  0.55609442  0.24995038  0.68674734  1
  O  O303  1  0.55729805  0.24997377  0.93651813  1
  O  O304  1  0.55706700  0.58331813  0.18641116  1
  O  O305  1  0.55805601  0.58401149  0.43837755  1
  O  O306  1  0.55572321  0.58360138  0.68606026  1
  O  O307  1  0.55977948  0.58298137  0.93736283  1
  O  O308  1  0.55859729  0.91661881  0.18806391  1
  O  O309  1  0.55589052  0.91635739  0.43645478  1
  O  O310  1  0.55506803  0.91649943  0.68649765  1
  O  O311  1  0.55666538  0.91683348  0.93652318  1
  O  O312  1  0.44236171  0.08294201  0.06367641  1
  O  O313  1  0.44081501  0.08328649  0.31199567  1
  O  O314  1  0.44069725  0.08380284  0.56273079  1
  O  O315  1  0.44047216  0.08376227  0.81277205  1
  O  O316  1  0.44375673  0.41720673  0.06358549  1
  O  O317  1  0.44160739  0.41669826  0.31262864  1
  O  O318  1  0.43987336  0.41676594  0.56267151  1
  O  O319  1  0.44005886  0.41641524  0.81242614  1
  O  O320  1  0.44323724  0.74991676  0.06321344  1
  O  O321  1  0.44287134  0.74996203  0.31362997  1
  O  O322  1  0.43997093  0.74967631  0.56246485  1
  O  O323  1  0.44021703  0.74986705  0.81274292  1
  O  O324  1  0.94221042  0.08286529  0.06330563  1
  O  O325  1  0.94159729  0.08270116  0.31200455  1
  O  O326  1  0.94393447  0.08313126  0.56257458  1
  O  O327  1  0.94411884  0.08311448  0.81359779  1
  O  O328  1  0.94111299  0.41714785  0.06330583  1
  O  O329  1  0.94104925  0.41703831  0.31203977  1
  O  O330  1  0.94395205  0.41697490  0.56237544  1
  O  O331  1  0.94447296  0.41689067  0.81375631  1
  O  O332  1  0.94415307  0.75013763  0.06408061  1
  O  O333  1  0.94148894  0.75029800  0.31239746  1
  O  O334  1  0.94273559  0.74949177  0.56166257  1
  O  O335  1  0.94505428  0.74993129  0.81347914  1
  O  O336  1  0.18981612  0.08383580  0.06267639  1
  O  O337  1  0.19384609  0.08330428  0.31179776  1
  O  O338  1  0.19444471  0.08326617  0.56159862  1
  O  O339  1  0.19117558  0.08357309  0.81250321  1
  O  O340  1  0.19239921  0.41648300  0.06136321  1
  O  O341  1  0.19458088  0.41641094  0.31215409  1
  O  O342  1  0.19441171  0.41702062  0.56174505  1
  O  O343  1  0.19084772  0.41618121  0.81250408  1
  O  O344  1  0.19091093  0.74993488  0.06278746  1
  O  O345  1  0.19039821  0.75019978  0.31349166  1
  O  O346  1  0.19103225  0.75008882  0.56245151  1
  O  O347  1  0.19097240  0.75013608  0.81134959  1
  O  O348  1  0.69500786  0.08347051  0.06193932  1
  O  O349  1  0.69067604  0.08331920  0.31362812  1
  O  O350  1  0.68925796  0.08310766  0.56213094  1
  O  O351  1  0.69365888  0.08335389  0.81026935  1
  O  O352  1  0.69301195  0.41635189  0.06307811  1
  O  O353  1  0.69001648  0.41625143  0.31304942  1
  O  O354  1  0.69233713  0.41678406  0.56108533  1
  O  O355  1  0.69468083  0.41613890  0.81097087  1
  O  O356  1  0.69427724  0.75009234  0.06171982  1
  O  O357  1  0.69426863  0.75072994  0.31253509  1
  O  O358  1  0.69326781  0.74966166  0.56177535  1
  O  O359  1  0.69343267  0.75039449  0.81067523  1
  O  O360  1  0.30678238  0.25002948  0.18852897  1
  O  O361  1  0.30889972  0.24973982  0.43700663  1
  O  O362  1  0.30520213  0.24986975  0.68856337  1
  O  O363  1  0.30513400  0.24984681  0.93845310  1
  O  O364  1  0.30700491  0.58345168  0.18887521  1
  O  O365  1  0.30853355  0.58365618  0.43743079  1
  O  O366  1  0.30799052  0.58382014  0.68687818  1
  O  O367  1  0.30467305  0.58386106  0.93845720  1
  O  O368  1  0.30779759  0.91644705  0.18770699  1
  O  O369  1  0.30901400  0.91665772  0.43713928  1
  O  O370  1  0.30817790  0.91675447  0.68682179  1
  O  O371  1  0.30554964  0.91639431  0.93908036  1
  O  O372  1  0.80909312  0.24949983  0.18790474  1
  O  O373  1  0.80918383  0.24988311  0.43751720  1
  O  O374  1  0.81023615  0.24996151  0.68756168  1
  O  O375  1  0.81026519  0.24969480  0.93764329  1
  O  O376  1  0.80715508  0.58368691  0.18893767  1
  O  O377  1  0.80896950  0.58362361  0.43761162  1
  O  O378  1  0.81026111  0.58340849  0.68713123  1
  O  O379  1  0.80629770  0.58325327  0.93844569  1
  O  O380  1  0.80717877  0.91680388  0.18922570  1
  O  O381  1  0.80956215  0.91652790  0.43756213  1
  O  O382  1  0.80986234  0.91634259  0.68702829  1
  O  O383  1  0.80725385  0.91695101  0.93845062  1
  O  O384  1  0.23233682  0.25017677  0.04033359  1
  O  O385  1  0.23495695  0.24974557  0.29110627  1
  O  O386  1  0.23373209  0.25040443  0.53765341  1
  O  O387  1  0.23156794  0.24972600  0.79014443  1
  O  O388  1  0.23076867  0.58336492  0.03978278  1
  O  O389  1  0.23468833  0.58332950  0.29094326  1
  O  O390  1  0.23370935  0.58333831  0.53816942  1
  O  O391  1  0.23435718  0.58352950  0.78800636  1
  O  O392  1  0.23157856  0.91649195  0.03986478  1
  O  O393  1  0.23335275  0.91698525  0.28860761  1
  O  O394  1  0.23552109  0.91683753  0.53861055  1
  O  O395  1  0.23437989  0.91664655  0.78807869  1
  O  O396  1  0.73660217  0.24999060  0.03929486  1
  O  O397  1  0.73547745  0.24958963  0.28922374  1
  O  O398  1  0.73475602  0.25021679  0.53788152  1
  O  O399  1  0.73594397  0.24982349  0.78854741  1
  O  O400  1  0.73278865  0.58295503  0.04043347  1
  O  O401  1  0.73467909  0.58392167  0.29077326  1
  O  O402  1  0.73369481  0.58345748  0.53781916  1
  O  O403  1  0.73527861  0.58303838  0.78746018  1
  O  O404  1  0.73459646  0.91702644  0.04078106  1
  O  O405  1  0.73339527  0.91679578  0.29074577  1
  O  O406  1  0.73520473  0.91595598  0.53812192  1
  O  O407  1  0.73503415  0.91703749  0.78756378  1
  O  O408  1  0.26724773  0.08315901  0.21040610  1
  O  O409  1  0.26853481  0.08319745  0.46069408  1
  O  O410  1  0.26680191  0.08410359  0.71227654  1
  O  O411  1  0.26362134  0.08286685  0.96153372  1
  O  O412  1  0.26877620  0.41650124  0.21107247  1
  O  O413  1  0.26824856  0.41687230  0.46077941  1
  O  O414  1  0.26647475  0.41633160  0.71236961  1
  O  O415  1  0.26476969  0.41695473  0.95912791  1
  O  O416  1  0.26419899  0.75009443  0.21236105  1
  O  O417  1  0.26622556  0.74993423  0.46243347  1
  O  O418  1  0.26621009  0.75003341  0.71138700  1
  O  O419  1  0.26389741  0.75023112  0.96074692  1
  O  O420  1  0.76719650  0.08275143  0.21422819  1
  O  O421  1  0.76421776  0.08308401  0.46220989  1
  O  O422  1  0.76606777  0.08315898  0.70830967  1
  O  O423  1  0.76935426  0.08347193  0.96078456  1
  O  O424  1  0.76653442  0.41673896  0.21403895  1
  O  O425  1  0.76511279  0.41726392  0.45952044  1
  O  O426  1  0.76708311  0.41656954  0.70877848  1
  O  O427  1  0.76806085  0.41650565  0.96243413  1
  O  O428  1  0.76862098  0.75039647  0.21148698  1
  O  O429  1  0.76805792  0.74970133  0.46129630  1
  O  O430  1  0.76676629  0.74970143  0.70925539  1
  O  O431  1  0.76676207  0.74989643  0.95920900  1
  O  O432  1  0.01644577  0.08329089  0.16413126  1
  O  O433  1  0.01510094  0.08304324  0.41351875  1
  O  O434  1  0.01660171  0.08325637  0.66477622  1
  O  O435  1  0.01793654  0.08411962  0.91468984  1
  O  O436  1  0.01447935  0.41674962  0.16494042  1
  O  O437  1  0.01504019  0.41632366  0.41325360  1
  O  O438  1  0.01675243  0.41696270  0.66442929  1
  O  O439  1  0.01756359  0.41563826  0.91536047  1
  O  O440  1  0.01805226  0.75003139  0.16496031  1
  O  O441  1  0.01612217  0.75015024  0.41284585  1
  O  O442  1  0.01756624  0.74965132  0.66248661  1
  O  O443  1  0.01925189  0.75008722  0.91431690  1
  O  O444  1  0.51540365  0.08325811  0.16533178  1
  O  O445  1  0.51563192  0.08304636  0.41249967  1
  O  O446  1  0.51545960  0.08300966  0.66321045  1
  O  O447  1  0.51526821  0.08304356  0.91357725  1
  O  O448  1  0.51792679  0.41709367  0.16476963  1
  O  O449  1  0.51573546  0.41661458  0.41356860  1
  O  O450  1  0.51378340  0.41714081  0.66371450  1
  O  O451  1  0.51555785  0.41652965  0.91245946  1
  O  O452  1  0.51612721  0.74966624  0.16536158  1
  O  O453  1  0.51494523  0.75057611  0.41599630  1
  O  O454  1  0.51368193  0.74983090  0.66383030  1
  O  O455  1  0.51502868  0.75048735  0.91328436  1
  O  O456  1  0.48414832  0.25034271  0.08468322  1
  O  O457  1  0.48189295  0.25012359  0.33555683  1
  O  O458  1  0.48284390  0.24959159  0.58524079  1
  O  O459  1  0.48364981  0.24993273  0.83487878  1
  O  O460  1  0.48482592  0.58312305  0.08393047  1
  O  O461  1  0.48256690  0.58302689  0.33835465  1
  O  O462  1  0.48157504  0.58340136  0.58537593  1
  O  O463  1  0.48441647  0.58328124  0.83725456  1
  O  O464  1  0.48247850  0.91690525  0.08811839  1
  O  O465  1  0.48194236  0.91672719  0.33575916  1
  O  O466  1  0.48108482  0.91714008  0.58547097  1
  O  O467  1  0.48321890  0.91695935  0.83512949  1
  O  O468  1  0.98176344  0.24948462  0.08669689  1
  O  O469  1  0.98302253  0.24983824  0.33856915  1
  O  O470  1  0.98386107  0.24985576  0.58656663  1
  O  O471  1  0.98274490  0.25012875  0.83454393  1
  O  O472  1  0.98442245  0.58356506  0.08483186  1
  O  O473  1  0.98309918  0.58431318  0.33829169  1
  O  O474  1  0.98315843  0.58357326  0.58430142  1
  O  O475  1  0.98529281  0.58331651  0.83590731  1
  O  O476  1  0.98587815  0.91689189  0.08698248  1
  O  O477  1  0.98286174  0.91614778  0.33544250  1
  O  O478  1  0.98235999  0.91604738  0.58488956  1
  O  O479  1  0.98561934  0.91667072  0.83607528  1
  O  O480  1  0.08533744  0.31444862  0.07820600  1
  O  O481  1  0.08645896  0.31495146  0.32736289  1
  O  O482  1  0.08768866  0.31486470  0.57628615  1
  O  O483  1  0.08674666  0.31523654  0.82693357  1
  O  O484  1  0.08818082  0.64911460  0.07844804  1
  O  O485  1  0.08699269  0.64891273  0.32872133  1
  O  O486  1  0.08723178  0.64897687  0.57621932  1
  O  O487  1  0.08913089  0.64786854  0.82822721  1
  O  O488  1  0.08945294  0.98205023  0.07879130  1
  O  O489  1  0.08702483  0.98082939  0.32668813  1
  O  O490  1  0.08608601  0.98107385  0.57638256  1
  O  O491  1  0.08883526  0.98232213  0.82853804  1
  O  O492  1  0.58776958  0.31620083  0.07805392  1
  O  O493  1  0.58592511  0.31501274  0.32777157  1
  O  O494  1  0.58660924  0.31432731  0.57724803  1
  O  O495  1  0.58742424  0.31490651  0.82707923  1
  O  O496  1  0.58928795  0.64711600  0.07717247  1
  O  O497  1  0.58599572  0.64819914  0.32790009  1
  O  O498  1  0.58559115  0.64850922  0.57630834  1
  O  O499  1  0.58782712  0.64832728  0.82733268  1
  O  O500  1  0.58618804  0.98183277  0.07791459  1
  O  O501  1  0.58597215  0.98215268  0.32699820  1
  O  O502  1  0.58498808  0.98222552  0.57724799  1
  O  O503  1  0.58701374  0.98198661  0.82724860  1
  O  O504  1  0.41152341  0.01752254  0.17301789  1
  O  O505  1  0.41172985  0.01831755  0.42192506  1
  O  O506  1  0.41165225  0.01752165  0.67227316  1
  O  O507  1  0.41139209  0.01853262  0.92250543  1
  O  O508  1  0.41380960  0.35220139  0.17308835  1
  O  O509  1  0.41204758  0.35121683  0.42235563  1
  O  O510  1  0.40970238  0.35298553  0.67286983  1
  O  O511  1  0.41207256  0.35150028  0.92255571  1
  O  O512  1  0.41210493  0.68527572  0.17226671  1
  O  O513  1  0.41107762  0.68513499  0.42287297  1
  O  O514  1  0.41001035  0.68474224  0.67221313  1
  O  O515  1  0.41173058  0.68498953  0.92290541  1
  O  O516  1  0.91241165  0.01882396  0.17342702  1
  O  O517  1  0.91166928  0.01756558  0.42140570  1
  O  O518  1  0.91311761  0.01787494  0.67168603  1
  O  O519  1  0.91418880  0.01924157  0.92381152  1
  O  O520  1  0.91094695  0.35079056  0.17246918  1
  O  O521  1  0.91115169  0.35187959  0.42158700  1
  O  O522  1  0.91315143  0.35180994  0.67141753  1
  O  O523  1  0.91338122  0.35068380  0.92246142  1
  O  O524  1  0.91396577  0.68510417  0.17356394  1
  O  O525  1  0.91213781  0.68541494  0.42260869  1
  O  O526  1  0.91414897  0.68432234  0.67152664  1
  O  O527  1  0.91552187  0.68503488  0.92314575  1
  O  O528  1  0.16314437  0.01777914  0.20280116  1
  O  O529  1  0.16439530  0.01908570  0.45202142  1
  O  O530  1  0.16346068  0.01930401  0.70187690  1
  O  O531  1  0.16035037  0.01712785  0.95332228  1
  O  O532  1  0.16481765  0.35137386  0.20271263  1
  O  O533  1  0.16436143  0.35183910  0.45228036  1
  O  O534  1  0.16325457  0.35037942  0.70261957  1
  O  O535  1  0.16047616  0.35264878  0.95198507  1
  O  O536  1  0.16009155  0.68622850  0.20345643  1
  O  O537  1  0.16264260  0.68407052  0.45264091  1
  O  O538  1  0.16239710  0.68514282  0.70122241  1
  O  O539  1  0.16030008  0.68500751  0.95307770  1
  O  O540  1  0.66378173  0.01708630  0.20367510  1
  O  O541  1  0.66051666  0.01803681  0.45213196  1
  O  O542  1  0.66180706  0.01848722  0.70096167  1
  O  O543  1  0.66537961  0.01840117  0.95249618  1
  O  O544  1  0.66313694  0.35145165  0.20235168  1
  O  O545  1  0.66093570  0.35295356  0.45136220  1
  O  O546  1  0.66337363  0.35126097  0.70180567  1
  O  O547  1  0.66430783  0.35219464  0.95272059  1
  O  O548  1  0.66427591  0.68647410  0.20315553  1
  O  O549  1  0.66441415  0.68392122  0.45219856  1
  O  O550  1  0.66268198  0.68520214  0.70152465  1
  O  O551  1  0.66330469  0.68391086  0.95301758  1
  O  O552  1  0.33626993  0.31509342  0.04738291  1
  O  O553  1  0.33901160  0.31483203  0.29757061  1
  O  O554  1  0.33743766  0.31505113  0.54678402  1
  O  O555  1  0.33529217  0.31503962  0.79783556  1
  O  O556  1  0.33429458  0.64871531  0.04814465  1
  O  O557  1  0.33882193  0.64760604  0.29834268  1
  O  O558  1  0.33727279  0.64867286  0.54741435  1
  O  O559  1  0.33757814  0.64894263  0.79671778  1
  O  O560  1  0.33569835  0.98125394  0.04863400  1
  O  O561  1  0.33710780  0.98255097  0.29718672  1
  O  O562  1  0.33938069  0.98171719  0.54675484  1
  O  O563  1  0.33767969  0.98188012  0.79658384  1
  O  O564  1  0.84039093  0.31482862  0.04729095  1
  O  O565  1  0.83914662  0.31486121  0.29749455  1
  O  O566  1  0.83864734  0.31498670  0.54734544  1
  O  O567  1  0.83966548  0.31482936  0.79760972  1
  O  O568  1  0.83662129  0.64788727  0.04773533  1
  O  O569  1  0.83886484  0.64871895  0.29797228  1
  O  O570  1  0.83746542  0.64928883  0.54748707  1
  O  O571  1  0.83870233  0.64834914  0.79732859  1
  O  O572  1  0.83827390  0.98253580  0.04750020  1
  O  O573  1  0.83758099  0.98155093  0.29880508  1
  O  O574  1  0.83907252  0.98045582  0.54775106  1
  O  O575  1  0.83883315  0.98153470  0.79681388  1
  O  O576  1  0.41110417  0.14744689  0.17293559  1
  O  O577  1  0.41215527  0.14848949  0.42222242  1
  O  O578  1  0.41152297  0.14750547  0.67325964  1
  O  O579  1  0.41185844  0.14857068  0.92273794  1
  O  O580  1  0.41384999  0.48210107  0.17314125  1
  O  O581  1  0.41172373  0.48131927  0.42271537  1
  O  O582  1  0.41036704  0.48313659  0.67198436  1
  O  O583  1  0.41209855  0.48155897  0.92261725  1
  O  O584  1  0.41238673  0.81537966  0.17234264  1
  O  O585  1  0.41065535  0.81519782  0.42229032  1
  O  O586  1  0.40997672  0.81500538  0.67201519  1
  O  O587  1  0.41124409  0.81504583  0.92252210  1
  O  O588  1  0.91250261  0.14868716  0.17291434  1
  O  O589  1  0.91126034  0.14779084  0.42159962  1
  O  O590  1  0.91292293  0.14829357  0.67153028  1
  O  O591  1  0.91398085  0.14929646  0.92258253  1
  O  O592  1  0.91032253  0.48086505  0.17312432  1
  O  O593  1  0.91184410  0.48216457  0.42177280  1
  O  O594  1  0.91329191  0.48229485  0.67142460  1
  O  O595  1  0.91368654  0.48066976  0.92376136  1
  O  O596  1  0.91405470  0.81494191  0.17375121  1
  O  O597  1  0.91248664  0.81548492  0.42230571  1
  O  O598  1  0.91396106  0.81467624  0.67157616  1
  O  O599  1  0.91557736  0.81510281  0.92306435  1
  O  O600  1  0.08550585  0.18434301  0.07854639  1
  O  O601  1  0.08651554  0.18483683  0.32772109  1
  O  O602  1  0.08777496  0.18490808  0.57641557  1
  O  O603  1  0.08682709  0.18518608  0.82692539  1
  O  O604  1  0.08848365  0.51898677  0.07780836  1
  O  O605  1  0.08625717  0.51876531  0.32749492  1
  O  O606  1  0.08741997  0.51909602  0.57566376  1
  O  O607  1  0.08842405  0.51750149  0.82829155  1
  O  O608  1  0.08954461  0.85180390  0.07902148  1
  O  O609  1  0.08699547  0.85087435  0.32753066  1
  O  O610  1  0.08629917  0.85102794  0.57685363  1
  O  O611  1  0.08936652  0.85199257  0.82842173  1
  O  O612  1  0.58812651  0.18582908  0.07752072  1
  O  O613  1  0.58566753  0.18488079  0.32741068  1
  O  O614  1  0.58642123  0.18407479  0.57763434  1
  O  O615  1  0.58736707  0.18471969  0.82738061  1
  O  O616  1  0.58845312  0.51695881  0.07766088  1
  O  O617  1  0.58635392  0.51807013  0.32863912  1
  O  O618  1  0.58576715  0.51855800  0.57657757  1
  O  O619  1  0.58786921  0.51809880  0.82719620  1
  O  O620  1  0.58606693  0.85165897  0.07795815  1
  O  O621  1  0.58627950  0.85221355  0.32673376  1
  O  O622  1  0.58476096  0.85213982  0.57665459  1
  O  O623  1  0.58685969  0.85186550  0.82690367  1
  O  O624  1  0.33605166  0.18501365  0.04758960  1
  O  O625  1  0.33883607  0.18464108  0.29737962  1
  O  O626  1  0.33701058  0.18479619  0.54710956  1
  O  O627  1  0.33548601  0.18482401  0.79787396  1
  O  O628  1  0.33490839  0.51875491  0.04762489  1
  O  O629  1  0.33851019  0.51754570  0.29773602  1
  O  O630  1  0.33763953  0.51848167  0.54719468  1
  O  O631  1  0.33785021  0.51849910  0.79652091  1
  O  O632  1  0.33540327  0.85136045  0.04886054  1
  O  O633  1  0.33733680  0.85254955  0.29795294  1
  O  O634  1  0.33902117  0.85145447  0.54678410  1
  O  O635  1  0.33758518  0.85132632  0.79649322  1
  O  O636  1  0.84015838  0.18459252  0.04746095  1
  O  O637  1  0.83934720  0.18467779  0.29768622  1
  O  O638  1  0.83844554  0.18503494  0.54753864  1
  O  O639  1  0.83972779  0.18498990  0.79744139  1
  O  O640  1  0.83658447  0.51776574  0.04764134  1
  O  O641  1  0.83847397  0.51857268  0.29824019  1
  O  O642  1  0.83783055  0.51936255  0.54776853  1
  O  O643  1  0.83892203  0.51830813  0.79714113  1
  O  O644  1  0.83857186  0.85238265  0.04759124  1
  O  O645  1  0.83754839  0.85158068  0.29837974  1
  O  O646  1  0.83893276  0.85035499  0.54702121  1
  O  O647  1  0.83840765  0.85147128  0.79717228  1
  O  O648  1  0.16300319  0.14770133  0.20224383  1
  O  O649  1  0.16496234  0.14918268  0.45224026  1
  O  O650  1  0.16316681  0.14942606  0.70280611  1
  O  O651  1  0.15968252  0.14730526  0.95242618  1
  O  O652  1  0.16466813  0.48132523  0.20297691  1
  O  O653  1  0.16442444  0.48202226  0.45226056  1
  O  O654  1  0.16290563  0.48058201  0.70210376  1
  O  O655  1  0.16115166  0.48270449  0.95243521  1
  O  O656  1  0.16100457  0.81627358  0.20398521  1
  O  O657  1  0.16214556  0.81411700  0.45210477  1
  O  O658  1  0.16248060  0.81503684  0.70107638  1
  O  O659  1  0.16033337  0.81530817  0.95327486  1
  O  O660  1  0.66371629  0.14729825  0.20286170  1
  O  O661  1  0.66055299  0.14810555  0.45187175  1
  O  O662  1  0.66212081  0.14839434  0.70112545  1
  O  O663  1  0.66559992  0.14849992  0.95232219  1
  O  O664  1  0.66274240  0.48156231  0.20290230  1
  O  O665  1  0.66136985  0.48307752  0.45230578  1
  O  O666  1  0.66308039  0.48126942  0.70192299  1
  O  O667  1  0.66454709  0.48233038  0.95330265  1
  O  O668  1  0.66511424  0.81664516  0.20316943  1
  O  O669  1  0.66397061  0.81401114  0.45209752  1
  O  O670  1  0.66319064  0.81529338  0.70117208  1
  O  O671  1  0.66275495  0.81437321  0.95260568  1
