# generated using pymatgen
data_Na2MnFe(PO4)2
_symmetry_space_group_name_H-M   'P 1'
_cell_length_a   21.08606086
_cell_length_b   18.93890734
_cell_length_c   20.04508155
_cell_angle_alpha   89.99975795
_cell_angle_beta   89.99990386
_cell_angle_gamma   90.00016862
_symmetry_Int_Tables_number   1
_chemical_formula_structural   Na2MnFe(PO4)2
_chemical_formula_sum   'Na96 Mn48 Fe48 P96 O384'
_cell_volume   8004.94223636
_cell_formula_units_Z   48
loop_
 _symmetry_equiv_pos_site_id
 _symmetry_equiv_pos_as_xyz
  1  'x, y, z'
loop_
 _atom_site_type_symbol
 _atom_site_label
 _atom_site_symmetry_multiplicity
 _atom_site_fract_x
 _atom_site_fract_y
 _atom_site_fract_z
 _atom_site_occupancy
  Na  Na0  1  0.00366575  0.00178167  0.00020462  1
  Na  Na1  1  -0.00072174  -0.00038345  0.25123947  1
  Na  Na2  1  -0.00078161  0.00018440  0.49942886  1
  Na  Na3  1  0.00151519  0.00047029  0.74915663  1
  Na  Na4  1  -0.00122382  0.33328050  0.00059409  1
  Na  Na5  1  -0.00063409  0.33286801  0.24941321  1
  Na  Na6  1  0.00080019  0.33370280  0.49962702  1
  Na  Na7  1  -0.00102482  0.33268467  0.75072436  1
  Na  Na8  1  0.00205614  0.66798083  -0.00108686  1
  Na  Na9  1  0.00020814  0.66658335  0.24970797  1
  Na  Na10  1  0.00017627  0.66621571  0.50052994  1
  Na  Na11  1  -0.00003630  0.66575402  0.75054388  1
  Na  Na12  1  0.50006108  0.00072006  -0.00038236  1
  Na  Na13  1  0.49962974  0.00106050  0.25061054  1
  Na  Na14  1  0.49932877  0.00122260  0.49971167  1
  Na  Na15  1  0.49936355  0.00033757  0.74929633  1
  Na  Na16  1  0.50177694  0.33321102  0.00021068  1
  Na  Na17  1  0.50084852  0.33303376  0.24967419  1
  Na  Na18  1  0.49991455  0.33268386  0.50078258  1
  Na  Na19  1  0.50287854  0.33440170  0.74925921  1
  Na  Na20  1  0.50267681  0.66687549  -0.00035802  1
  Na  Na21  1  0.50025678  0.66606655  0.24999802  1
  Na  Na22  1  0.49900033  0.66554365  0.50123548  1
  Na  Na23  1  0.50114226  0.66620712  0.75021852  1
  Na  Na24  1  0.24847947  0.00061032  0.12456306  1
  Na  Na25  1  0.25048631  0.00163486  0.37533147  1
  Na  Na26  1  0.24725255  0.00005684  0.62583116  1
  Na  Na27  1  0.24593930  -0.00040046  0.87550532  1
  Na  Na28  1  0.24792391  0.33272668  0.12551992  1
  Na  Na29  1  0.24926256  0.33318365  0.37534488  1
  Na  Na30  1  0.24768984  0.33344568  0.62445889  1
  Na  Na31  1  0.24590246  0.33233658  0.87456675  1
  Na  Na32  1  0.24849644  0.66584459  0.12471818  1
  Na  Na33  1  0.25074606  0.66675312  0.37478944  1
  Na  Na34  1  0.24972160  0.66583992  0.62365100  1
  Na  Na35  1  0.24926259  0.66583946  0.87613933  1
  Na  Na36  1  0.74953121  -0.00018277  0.12474328  1
  Na  Na37  1  0.75147764  0.00121053  0.37412395  1
  Na  Na38  1  0.75176167  0.00083875  0.62567965  1
  Na  Na39  1  0.75172624  0.00079129  0.87499217  1
  Na  Na40  1  0.75275373  0.33379084  0.12544256  1
  Na  Na41  1  0.75006599  0.33246818  0.37529135  1
  Na  Na42  1  0.75070356  0.33298179  0.62459449  1
  Na  Na43  1  0.75180061  0.33357612  0.87441350  1
  Na  Na44  1  0.74825539  0.66575556  0.12471511  1
  Na  Na45  1  0.75306372  0.66777813  0.37515745  1
  Na  Na46  1  0.75062465  0.66653500  0.62478788  1
  Na  Na47  1  0.74794704  0.66605387  0.87520625  1
  Na  Na48  1  0.00039576  0.16772636  0.00046400  1
  Na  Na49  1  -0.00008696  0.16721574  0.25124165  1
  Na  Na50  1  -0.00080110  0.16776256  0.49932578  1
  Na  Na51  1  0.00206266  0.16643915  0.74942937  1
  Na  Na52  1  0.00063333  0.49934963  -0.00079287  1
  Na  Na53  1  -0.00157019  0.49991571  0.24867482  1
  Na  Na54  1  -0.00001193  0.49935476  0.50023368  1
  Na  Na55  1  0.00205269  0.49849646  0.75072445  1
  Na  Na56  1  -0.00012588  0.83358978  -0.00079892  1
  Na  Na57  1  0.00138937  0.83255814  0.25073293  1
  Na  Na58  1  0.00085396  0.83279645  0.49979399  1
  Na  Na59  1  -0.00195392  0.83449184  0.75068365  1
  Na  Na60  1  0.50083428  0.16681174  -0.00001824  1
  Na  Na61  1  0.50061125  0.16637799  0.25006630  1
  Na  Na62  1  0.49896280  0.16709915  0.50068025  1
  Na  Na63  1  0.50107352  0.16641154  0.74917192  1
  Na  Na64  1  0.50153366  0.49963604  -0.00010127  1
  Na  Na65  1  0.49950292  0.49957435  0.24967129  1
  Na  Na66  1  0.49966304  0.49919223  0.50128147  1
  Na  Na67  1  0.50159596  0.49953323  0.74973996  1
  Na  Na68  1  0.50236518  0.83236091  -0.00037727  1
  Na  Na69  1  0.50084376  0.83348112  0.25049986  1
  Na  Na70  1  0.50014697  0.83340556  0.49976715  1
  Na  Na71  1  0.50079501  0.83288298  0.74969614  1
  Na  Na72  1  0.24795712  0.16750814  0.12443536  1
  Na  Na73  1  0.25063709  0.16674358  0.37621029  1
  Na  Na74  1  0.24757035  0.16755317  0.62487069  1
  Na  Na75  1  0.24656445  0.16714692  0.87533587  1
  Na  Na76  1  0.24926176  0.49970378  0.12504388  1
  Na  Na77  1  0.25079544  0.49892579  0.37533558  1
  Na  Na78  1  0.24821635  0.50024721  0.62480608  1
  Na  Na79  1  0.24792844  0.50021431  0.87481634  1
  Na  Na80  1  0.24774562  0.83375330  0.12554517  1
  Na  Na81  1  0.24757886  0.83416532  0.37404853  1
  Na  Na82  1  0.24737654  0.83382778  0.62450442  1
  Na  Na83  1  0.24758111  0.83350153  0.87569998  1
  Na  Na84  1  0.75057758  0.16707635  0.12453790  1
  Na  Na85  1  0.75198073  0.16648187  0.37439755  1
  Na  Na86  1  0.75156942  0.16705535  0.62435104  1
  Na  Na87  1  0.75030843  0.16814309  0.87538468  1
  Na  Na88  1  0.75064377  0.49894092  0.12641719  1
  Na  Na89  1  0.75080493  0.49916624  0.37566574  1
  Na  Na90  1  0.74858437  0.49989889  0.62418214  1
  Na  Na91  1  0.74905628  0.49967594  0.87434482  1
  Na  Na92  1  0.75086910  0.83265501  0.12358522  1
  Na  Na93  1  0.75011725  0.83427045  0.37488211  1
  Na  Na94  1  0.75306568  0.83290333  0.62645967  1
  Na  Na95  1  0.75099273  0.83334531  0.87526886  1
  Mn  Mn96  1  0.14190161  0.91787857  0.24748600  1
  Mn  Mn97  1  0.64283406  0.24908350  0.49729110  1
  Mn  Mn98  1  0.85823637  0.41613507  0.50225449  1
  Mn  Mn99  1  0.35766154  0.75009558  0.00223474  1
  Mn  Mn100  1  0.39260335  0.58356841  0.12644887  1
  Mn  Mn101  1  0.35787499  0.75050823  0.25189875  1
  Mn  Mn102  1  0.35630104  0.08364700  0.00171900  1
  Mn  Mn103  1  0.39175013  0.24961790  0.12685161  1
  Mn  Mn104  1  0.39083199  0.91628416  0.62723517  1
  Mn  Mn105  1  0.89230351  0.91620111  0.37754226  1
  Mn  Mn106  1  0.35781542  0.41572319  0.25238369  1
  Mn  Mn107  1  0.35722469  0.41612594  0.00089314  1
  Mn  Mn108  1  0.64280695  0.58311195  0.24890303  1
  Mn  Mn109  1  0.10759984  0.08384362  0.37261579  1
  Mn  Mn110  1  0.64230357  0.91659874  0.99723348  1
  Mn  Mn111  1  0.39194203  0.91686531  0.37771311  1
  Mn  Mn112  1  0.39169583  0.25023676  0.62772627  1
  Mn  Mn113  1  0.35549543  0.08345238  0.75237670  1
  Mn  Mn114  1  0.60900086  0.41653147  0.12287463  1
  Mn  Mn115  1  0.89197949  0.58372779  0.12670007  1
  Mn  Mn116  1  0.89197553  0.58301228  0.87741045  1
  Mn  Mn117  1  0.14208273  0.58323719  0.49679433  1
  Mn  Mn118  1  0.39131095  0.91613906  0.87711285  1
  Mn  Mn119  1  0.64298195  0.91730337  0.49832637  1
  Mn  Mn120  1  0.39235937  0.58311325  0.62779179  1
  Mn  Mn121  1  0.64251751  0.58378993  0.49696624  1
  Mn  Mn122  1  0.39190111  0.25074661  0.87637969  1
  Mn  Mn123  1  0.89312335  0.91712164  0.12719127  1
  Mn  Mn124  1  0.60863633  0.75043538  0.62272272  1
  Mn  Mn125  1  0.10688403  0.41682935  0.12248817  1
  Mn  Mn126  1  0.60815935  0.08346054  0.62247105  1
  Mn  Mn127  1  0.85900864  0.75088699  0.50255821  1
  Mn  Mn128  1  0.85730683  0.74884086  0.00224923  1
  Mn  Mn129  1  0.60809244  0.74966743  0.37249541  1
  Mn  Mn130  1  0.35707960  0.75001758  0.75260811  1
  Mn  Mn131  1  0.85921545  0.08375996  0.75263861  1
  Mn  Mn132  1  0.60820955  0.08346194  0.87229683  1
  Mn  Mn133  1  0.10716703  0.74976513  0.62295659  1
  Mn  Mn134  1  0.64334392  0.25058361  0.99776756  1
  Mn  Mn135  1  0.10761778  0.75005272  0.87179044  1
  Mn  Mn136  1  0.14177391  0.58270621  0.24797202  1
  Mn  Mn137  1  0.35689765  0.41649650  0.75256740  1
  Mn  Mn138  1  0.35713437  0.75065277  0.50186132  1
  Mn  Mn139  1  0.64252580  0.91701511  0.24759444  1
  Mn  Mn140  1  0.85919532  0.08388618  0.00276385  1
  Mn  Mn141  1  0.64326770  0.91716854  0.74752243  1
  Mn  Mn142  1  0.39207890  0.91673013  0.12652292  1
  Mn  Mn143  1  0.89248081  0.58278288  0.62828227  1
  Fe  Fe144  1  0.64398503  0.25039449  0.74843057  1
  Fe  Fe145  1  0.85789885  0.08334257  0.50158509  1
  Fe  Fe146  1  0.64240319  0.58256216  0.99804417  1
  Fe  Fe147  1  0.10712684  0.74875106  0.37298853  1
  Fe  Fe148  1  0.89343454  0.24957203  0.87636437  1
  Fe  Fe149  1  0.10738289  0.08321645  0.12424389  1
  Fe  Fe150  1  0.14251923  0.24984828  0.24885796  1
  Fe  Fe151  1  0.39258921  0.58231987  0.37632522  1
  Fe  Fe152  1  0.14094864  0.25049882  0.99814786  1
  Fe  Fe153  1  0.89333240  0.24932473  0.12759464  1
  Fe  Fe154  1  0.14263216  0.58328316  0.74831451  1
  Fe  Fe155  1  0.14219425  0.58293768  0.99784400  1
  Fe  Fe156  1  0.35693091  0.41593686  0.50155847  1
  Fe  Fe157  1  0.14252469  0.25012902  0.49777843  1
  Fe  Fe158  1  0.14177832  0.91706496  0.49843333  1
  Fe  Fe159  1  0.64303153  0.58275440  0.74865488  1
  Fe  Fe160  1  0.89374236  0.91757227  0.87677875  1
  Fe  Fe161  1  0.89316257  0.25068419  0.37654231  1
  Fe  Fe162  1  0.10649765  0.08380421  0.62234524  1
  Fe  Fe163  1  0.60739570  0.74985376  0.87249769  1
  Fe  Fe164  1  0.85741677  0.41739912  0.00099442  1
  Fe  Fe165  1  0.10682569  0.41626289  0.62317674  1
  Fe  Fe166  1  0.14166449  0.91626288  0.99814947  1
  Fe  Fe167  1  0.85749242  0.41660741  0.25265749  1
  Fe  Fe168  1  0.85721028  0.41714593  0.75149189  1
  Fe  Fe169  1  0.85757995  0.08349164  0.25134328  1
  Fe  Fe170  1  0.60779663  0.41621876  0.62301260  1
  Fe  Fe171  1  0.60769797  0.08301963  0.12362568  1
  Fe  Fe172  1  0.89359541  0.91730362  0.62696382  1
  Fe  Fe173  1  0.60855577  0.41658937  0.87284722  1
  Fe  Fe174  1  0.39336171  0.58288944  0.87669939  1
  Fe  Fe175  1  0.89301453  0.58283703  0.37613811  1
  Fe  Fe176  1  0.85831077  0.74982376  0.25118756  1
  Fe  Fe177  1  0.60850222  0.75062599  0.12379597  1
  Fe  Fe178  1  0.85728218  0.74918803  0.75220136  1
  Fe  Fe179  1  0.64348775  0.24969292  0.24890763  1
  Fe  Fe180  1  0.35747512  0.08395563  0.25131072  1
  Fe  Fe181  1  0.10646623  0.41641507  0.87310852  1
  Fe  Fe182  1  0.35650879  0.08373473  0.50175569  1
  Fe  Fe183  1  0.39264479  0.25043959  0.37642077  1
  Fe  Fe184  1  0.89377536  0.25005529  0.62676326  1
  Fe  Fe185  1  0.60738821  0.08426663  0.37308280  1
  Fe  Fe186  1  0.14120769  0.91602076  0.74755966  1
  Fe  Fe187  1  0.14087277  0.25070103  0.74744122  1
  Fe  Fe188  1  0.10738027  0.75010009  0.12338705  1
  Fe  Fe189  1  0.10705468  0.41708102  0.37326402  1
  Fe  Fe190  1  0.10686496  0.08402313  0.87305824  1
  Fe  Fe191  1  0.60675439  0.41582976  0.37390514  1
  P  P192  1  0.05377543  0.24931342  0.11131285  1
  P  P193  1  0.05412909  0.25105278  0.36069252  1
  P  P194  1  0.05405526  0.25048527  0.61022471  1
  P  P195  1  0.05366318  0.25051259  0.86084330  1
  P  P196  1  0.05346868  0.58394332  0.10899063  1
  P  P197  1  0.05208263  0.58250076  0.35985380  1
  P  P198  1  0.05444795  0.58214666  0.61119754  1
  P  P199  1  0.05479059  0.58238847  0.86048910  1
  P  P200  1  0.05403287  0.91673525  0.10988331  1
  P  P201  1  0.05462606  0.91616967  0.36138685  1
  P  P202  1  0.05364072  0.91722032  0.61029869  1
  P  P203  1  0.05391870  0.91742174  0.86046126  1
  P  P204  1  0.55521062  0.24890046  0.11140723  1
  P  P205  1  0.55309774  0.24985367  0.35989134  1
  P  P206  1  0.55509089  0.25054374  0.61108742  1
  P  P207  1  0.55461560  0.25095295  0.85906791  1
  P  P208  1  0.55493632  0.58377997  0.10968082  1
  P  P209  1  0.55206061  0.58165126  0.36045741  1
  P  P210  1  0.55564809  0.58236564  0.61141396  1
  P  P211  1  0.55487543  0.58281454  0.86057235  1
  P  P212  1  0.55380993  0.91739744  0.11011308  1
  P  P213  1  0.55357239  0.91829114  0.36034269  1
  P  P214  1  0.55291777  0.91706742  0.60956997  1
  P  P215  1  0.55316888  0.91613264  0.85935093  1
  P  P216  1  0.44699857  0.08347576  0.14026215  1
  P  P217  1  0.44555892  0.08506354  0.38941417  1
  P  P218  1  0.44453817  0.08351168  0.63920792  1
  P  P219  1  0.44619124  0.08388917  0.88971647  1
  P  P220  1  0.44683854  0.41630435  0.13953706  1
  P  P221  1  0.44693151  0.41560963  0.39052572  1
  P  P222  1  0.44651328  0.41630022  0.63941257  1
  P  P223  1  0.44845317  0.41721892  0.88952081  1
  P  P224  1  0.44852733  0.75013947  0.13974852  1
  P  P225  1  0.44677668  0.74897248  0.39013703  1
  P  P226  1  0.44659362  0.74985998  0.64045925  1
  P  P227  1  0.44765351  0.74868561  0.88974399  1
  P  P228  1  0.94806936  0.08411407  0.14092376  1
  P  P229  1  0.94472394  0.08439192  0.38920880  1
  P  P230  1  0.94701371  0.08393003  0.63829144  1
  P  P231  1  0.94838812  0.08364985  0.88982348  1
  P  P232  1  0.94420131  0.41600437  0.13902991  1
  P  P233  1  0.94652327  0.41651118  0.38856018  1
  P  P234  1  0.94732491  0.41559735  0.64068784  1
  P  P235  1  0.94573080  0.41598261  0.88911480  1
  P  P236  1  0.94769299  0.75010967  0.14008214  1
  P  P237  1  0.94688833  0.74881485  0.38877106  1
  P  P238  1  0.94611067  0.75060570  0.64113937  1
  P  P239  1  0.94512950  0.75037305  0.88872695  1
  P  P240  1  0.19719094  0.08501977  0.23486488  1
  P  P241  1  0.19546223  0.08389327  0.48646740  1
  P  P242  1  0.19263697  0.08370484  0.73546762  1
  P  P243  1  0.19314181  0.08367185  0.98595910  1
  P  P244  1  0.19500591  0.41571883  0.23632337  1
  P  P245  1  0.19534192  0.41586064  0.48544537  1
  P  P246  1  0.19394970  0.41680848  0.73542706  1
  P  P247  1  0.19492720  0.41659965  0.98440138  1
  P  P248  1  0.19470981  0.74955459  0.23534510  1
  P  P249  1  0.19531381  0.75061906  0.48401607  1
  P  P250  1  0.19621127  0.74915835  0.73475051  1
  P  P251  1  0.19464756  0.74976438  0.98629530  1
  P  P252  1  0.69663802  0.08464002  0.23564816  1
  P  P253  1  0.69809420  0.08342526  0.48400006  1
  P  P254  1  0.69776747  0.08478583  0.73493735  1
  P  P255  1  0.69664832  0.08365697  0.98579734  1
  P  P256  1  0.69690918  0.41537578  0.23718349  1
  P  P257  1  0.69527606  0.41604709  0.48515553  1
  P  P258  1  0.69648589  0.41619942  0.73538968  1
  P  P259  1  0.69774704  0.41688743  0.98439337  1
  P  P260  1  0.69823707  0.74996215  0.23462671  1
  P  P261  1  0.69781688  0.75058288  0.48478956  1
  P  P262  1  0.69704517  0.74939802  0.73633451  1
  P  P263  1  0.69457592  0.74911807  0.98529619  1
  P  P264  1  0.30086002  0.25040955  0.01451112  1
  P  P265  1  0.30255548  0.24912029  0.26567342  1
  P  P266  1  0.30334476  0.25048932  0.51378660  1
  P  P267  1  0.30030716  0.25015925  0.76485422  1
  P  P268  1  0.30306054  0.58274607  0.01368875  1
  P  P269  1  0.30387218  0.58302367  0.26538786  1
  P  P270  1  0.30481135  0.58183923  0.51359010  1
  P  P271  1  0.30245430  0.58299975  0.76575562  1
  P  P272  1  0.30105528  0.91664976  0.01493228  1
  P  P273  1  0.30318995  0.91810644  0.26470876  1
  P  P274  1  0.30114801  0.91775526  0.51487435  1
  P  P275  1  0.30023234  0.91676255  0.76526311  1
  P  P276  1  0.80647087  0.25124349  0.01436573  1
  P  P277  1  0.80489203  0.24973578  0.26429737  1
  P  P278  1  0.80601358  0.24927308  0.51429490  1
  P  P279  1  0.80517070  0.25099222  0.76405396  1
  P  P280  1  0.80158708  0.58221664  0.01486734  1
  P  P281  1  0.80447131  0.58327543  0.26559097  1
  P  P282  1  0.80520827  0.58297482  0.51413234  1
  P  P283  1  0.80231805  0.58263035  0.76486371  1
  P  P284  1  0.80510039  0.91692765  0.01386319  1
  P  P285  1  0.80408229  0.91662542  0.26432138  1
  P  P286  1  0.80469572  0.91801576  0.51607505  1
  P  P287  1  0.80625315  0.91643769  0.76484675  1
  O  O288  1  0.05831122  0.24989561  0.18797432  1
  O  O289  1  0.05872732  0.25026185  0.43740116  1
  O  O290  1  0.05775941  0.25047967  0.68701738  1
  O  O291  1  0.05742186  0.25090128  0.93760128  1
  O  O292  1  0.05619820  0.58282181  0.18576837  1
  O  O293  1  0.05549232  0.58245065  0.43660723  1
  O  O294  1  0.05847179  0.58292786  0.68790213  1
  O  O295  1  0.05867863  0.58324302  0.93723699  1
  O  O296  1  0.05623837  0.91670686  0.18674915  1
  O  O297  1  0.05839905  0.91718815  0.43816941  1
  O  O298  1  0.05783706  0.91636758  0.68706795  1
  O  O299  1  0.05825063  0.91630840  0.93715828  1
  O  O300  1  0.55956315  0.24973661  0.18810904  1
  O  O301  1  0.55658077  0.24945882  0.43660771  1
  O  O302  1  0.55994051  0.24991879  0.68772020  1
  O  O303  1  0.55770744  0.25030070  0.93589107  1
  O  O304  1  0.55784119  0.58269709  0.18648193  1
  O  O305  1  0.55568548  0.58244515  0.43716182  1
  O  O306  1  0.56013734  0.58298516  0.68820061  1
  O  O307  1  0.55911032  0.58242992  0.93730215  1
  O  O308  1  0.55651517  0.91748617  0.18691826  1
  O  O309  1  0.55670952  0.91790560  0.43705654  1
  O  O310  1  0.55688390  0.91718448  0.68632640  1
  O  O311  1  0.55645900  0.91693532  0.93612803  1
  O  O312  1  0.44255501  0.08390407  0.06357083  1
  O  O313  1  0.44088866  0.08432956  0.31273206  1
  O  O314  1  0.43953254  0.08378413  0.56241771  1
  O  O315  1  0.44227250  0.08390129  0.81294949  1
  O  O316  1  0.44331069  0.41600143  0.06280236  1
  O  O317  1  0.44363227  0.41561098  0.31377114  1
  O  O318  1  0.44107901  0.41579127  0.56282523  1
  O  O319  1  0.44412726  0.41655070  0.81284793  1
  O  O320  1  0.44439929  0.75010351  0.06303730  1
  O  O321  1  0.44380946  0.74983877  0.31332641  1
  O  O322  1  0.44259714  0.75001277  0.56371014  1
  O  O323  1  0.44348731  0.74938830  0.81306974  1
  O  O324  1  0.94500620  0.08382479  0.06418430  1
  O  O325  1  0.94067775  0.08357239  0.31245560  1
  O  O326  1  0.94265485  0.08383874  0.56167354  1
  O  O327  1  0.94519738  0.08366823  0.81308995  1
  O  O328  1  0.94067898  0.41723406  0.06226303  1
  O  O329  1  0.94195523  0.41625005  0.31185651  1
  O  O330  1  0.94382507  0.41650586  0.56396035  1
  O  O331  1  0.94106067  0.41710076  0.81245152  1
  O  O332  1  0.94351959  0.74988505  0.06337262  1
  O  O333  1  0.94215955  0.74981204  0.31210340  1
  O  O334  1  0.94399286  0.74969299  0.56425578  1
  O  O335  1  0.94078008  0.74892052  0.81201947  1
  O  O336  1  0.18987485  0.08386782  0.06277618  1
  O  O337  1  0.19364774  0.08436211  0.31159372  1
  O  O338  1  0.19056378  0.08386197  0.56314771  1
  O  O339  1  0.18910424  0.08384708  0.81237686  1
  O  O340  1  0.19248755  0.41655697  0.06126191  1
  O  O341  1  0.19089633  0.41673454  0.31305511  1
  O  O342  1  0.19059441  0.41664707  0.56211648  1
  O  O343  1  0.18996740  0.41633149  0.81217238  1
  O  O344  1  0.19093906  0.74982703  0.06306701  1
  O  O345  1  0.19035214  0.74905938  0.31211615  1
  O  O346  1  0.19222698  0.74948447  0.56080292  1
  O  O347  1  0.19372075  0.74924824  0.81158067  1
  O  O348  1  0.69208841  0.08327875  0.06252348  1
  O  O349  1  0.69183685  0.08421648  0.31230569  1
  O  O350  1  0.69402109  0.08380858  0.56070935  1
  O  O351  1  0.69452593  0.08422984  0.81171222  1
  O  O352  1  0.69456973  0.41600331  0.06117253  1
  O  O353  1  0.69149868  0.41578365  0.31375772  1
  O  O354  1  0.69121037  0.41590736  0.56192503  1
  O  O355  1  0.69238117  0.41612243  0.81214083  1
  O  O356  1  0.69089090  0.75027062  0.06211454  1
  O  O357  1  0.69422895  0.75011646  0.31135924  1
  O  O358  1  0.69459730  0.75019367  0.56159340  1
  O  O359  1  0.69202982  0.75018621  0.81301057  1
  O  O360  1  0.30591328  0.24997825  0.18893576  1
  O  O361  1  0.30829596  0.25061102  0.43718042  1
  O  O362  1  0.30484921  0.25046126  0.68818203  1
  O  O363  1  0.30522427  0.25043091  0.93788507  1
  O  O364  1  0.30684034  0.58294695  0.18854048  1
  O  O365  1  0.30932742  0.58216688  0.43686852  1
  O  O366  1  0.30639119  0.58282480  0.68898008  1
  O  O367  1  0.30870057  0.58278082  0.93709367  1
  O  O368  1  0.30615310  0.91718409  0.18793138  1
  O  O369  1  0.30529521  0.91727667  0.43817156  1
  O  O370  1  0.30439569  0.91668989  0.68857463  1
  O  O371  1  0.30503842  0.91638185  0.93822308  1
  O  O372  1  0.80910418  0.24957090  0.18754925  1
  O  O373  1  0.80999961  0.25044512  0.43752929  1
  O  O374  1  0.80984884  0.25002223  0.68735861  1
  O  O375  1  0.81058704  0.24975599  0.93755157  1
  O  O376  1  0.80672858  0.58323848  0.18878047  1
  O  O377  1  0.80990695  0.58271506  0.43740886  1
  O  O378  1  0.80592989  0.58264621  0.68816514  1
  O  O379  1  0.80543463  0.58301540  0.93820548  1
  O  O380  1  0.80685017  0.91647665  0.18754400  1
  O  O381  1  0.80717523  0.91714630  0.43920844  1
  O  O382  1  0.81052512  0.91762824  0.68805669  1
  O  O383  1  0.80987550  0.91765145  0.93712948  1
  O  O384  1  0.23060685  0.25042716  0.03847617  1
  O  O385  1  0.23255912  0.24977242  0.29050768  1
  O  O386  1  0.23288131  0.25049131  0.53738423  1
  O  O387  1  0.22995808  0.25003423  0.78838567  1
  O  O388  1  0.23258066  0.58279012  0.03694426  1
  O  O389  1  0.23409276  0.58282221  0.29033915  1
  O  O390  1  0.23459864  0.58256737  0.53732336  1
  O  O391  1  0.23219796  0.58289514  0.78963023  1
  O  O392  1  0.23094417  0.91693866  0.03918544  1
  O  O393  1  0.23347334  0.91822723  0.28983940  1
  O  O394  1  0.23098673  0.91730489  0.53917605  1
  O  O395  1  0.22999012  0.91658449  0.78925788  1
  O  O396  1  0.73640632  0.25050311  0.03840742  1
  O  O397  1  0.73462500  0.24975447  0.28849333  1
  O  O398  1  0.73590637  0.24988918  0.53816555  1
  O  O399  1  0.73485878  0.25092503  0.78784009  1
  O  O400  1  0.73171216  0.58222001  0.03973509  1
  O  O401  1  0.73490682  0.58328896  0.29134247  1
  O  O402  1  0.73514379  0.58299478  0.53791714  1
  O  O403  1  0.73228710  0.58257340  0.78951496  1
  O  O404  1  0.73503853  0.91618747  0.03763359  1
  O  O405  1  0.73451294  0.91743047  0.28985927  1
  O  O406  1  0.73525478  0.91699079  0.54183309  1
  O  O407  1  0.73613918  0.91729566  0.78883919  1
  O  O408  1  0.26706158  0.08430316  0.20991756  1
  O  O409  1  0.26579223  0.08418170  0.46272836  1
  O  O410  1  0.26257721  0.08400751  0.71095241  1
  O  O411  1  0.26298861  0.08351518  0.96099208  1
  O  O412  1  0.26491063  0.41595024  0.21186337  1
  O  O413  1  0.26573072  0.41592714  0.46189512  1
  O  O414  1  0.26396204  0.41686745  0.71098015  1
  O  O415  1  0.26445018  0.41619745  0.95864013  1
  O  O416  1  0.26476264  0.74972696  0.21126539  1
  O  O417  1  0.26506487  0.75030654  0.45906541  1
  O  O418  1  0.26554671  0.74951552  0.70865894  1
  O  O419  1  0.26450067  0.74966237  0.96149354  1
  O  O420  1  0.76713409  0.08379706  0.21202606  1
  O  O421  1  0.76828932  0.08378640  0.46002982  1
  O  O422  1  0.76759667  0.08433300  0.71016841  1
  O  O423  1  0.76676171  0.08447779  0.96186869  1
  O  O424  1  0.76739562  0.41604624  0.21383520  1
  O  O425  1  0.76546975  0.41576787  0.46153382  1
  O  O426  1  0.76683064  0.41620031  0.71122080  1
  O  O427  1  0.76770524  0.41669754  0.95952325  1
  O  O428  1  0.76835576  0.74941614  0.21018899  1
  O  O429  1  0.76757865  0.75102517  0.45999148  1
  O  O430  1  0.76747278  0.74945779  0.71275812  1
  O  O431  1  0.76463322  0.74971970  0.96109268  1
  O  O432  1  0.01800238  0.08339854  0.16597721  1
  O  O433  1  0.01483380  0.08411778  0.41314830  1
  O  O434  1  0.01726538  0.08394996  0.66241287  1
  O  O435  1  0.01832676  0.08444339  0.91471163  1
  O  O436  1  0.01427152  0.41616304  0.16327591  1
  O  O437  1  0.01669348  0.41634752  0.41281227  1
  O  O438  1  0.01738556  0.41547298  0.66507898  1
  O  O439  1  0.01612116  0.41648359  0.91274673  1
  O  O440  1  0.01784652  0.74989709  0.16416338  1
  O  O441  1  0.01710478  0.74917302  0.41293367  1
  O  O442  1  0.01566352  0.75008997  0.66667330  1
  O  O443  1  0.01525858  0.75047209  0.91250613  1
  O  O444  1  0.51719306  0.08350354  0.16432416  1
  O  O445  1  0.51600956  0.08475116  0.41304081  1
  O  O446  1  0.51480915  0.08358190  0.66247249  1
  O  O447  1  0.51608739  0.08395705  0.91419262  1
  O  O448  1  0.51666637  0.41647855  0.16428273  1
  O  O449  1  0.51697172  0.41541837  0.41534721  1
  O  O450  1  0.51700885  0.41668039  0.66250737  1
  O  O451  1  0.51860046  0.41680262  0.91378925  1
  O  O452  1  0.51858947  0.75016362  0.16432345  1
  O  O453  1  0.51643901  0.74932523  0.41552986  1
  O  O454  1  0.51648295  0.74961381  0.66484158  1
  O  O455  1  0.51787900  0.74904489  0.91369866  1
  O  O456  1  0.48522720  0.24947621  0.08695382  1
  O  O457  1  0.48300241  0.24995943  0.33530204  1
  O  O458  1  0.48492497  0.25000910  0.58734059  1
  O  O459  1  0.48489511  0.25047247  0.83382642  1
  O  O460  1  0.48525769  0.58304853  0.08437864  1
  O  O461  1  0.48213842  0.58205229  0.33554062  1
  O  O462  1  0.48551567  0.58242654  0.58767571  1
  O  O463  1  0.48462025  0.58290061  0.83632939  1
  O  O464  1  0.48434975  0.91707308  0.08416325  1
  O  O465  1  0.48384068  0.91764400  0.33524124  1
  O  O466  1  0.48314828  0.91715140  0.58479133  1
  O  O467  1  0.48343451  0.91636276  0.83424779  1
  O  O468  1  0.98340817  0.25024194  0.08758251  1
  O  O469  1  0.98371280  0.25034133  0.33719805  1
  O  O470  1  0.98380884  0.25063568  0.58608306  1
  O  O471  1  0.98340713  0.24989710  0.83651776  1
  O  O472  1  0.98379973  0.58369042  0.08361987  1
  O  O473  1  0.98229257  0.58264630  0.33463872  1
  O  O474  1  0.98451102  0.58266995  0.58680437  1
  O  O475  1  0.98470931  0.58244624  0.83642859  1
  O  O476  1  0.98456570  0.91736830  0.08398244  1
  O  O477  1  0.98468191  0.91638487  0.33692566  1
  O  O478  1  0.98334682  0.91675431  0.58638303  1
  O  O479  1  0.98363638  0.91702270  0.83652938  1
  O  O480  1  0.08744415  0.31402727  0.07749815  1
  O  O481  1  0.08721363  0.31610764  0.32743546  1
  O  O482  1  0.08772821  0.31550750  0.57725215  1
  O  O483  1  0.08674514  0.31563500  0.82737569  1
  O  O484  1  0.08774209  0.64906249  0.07711683  1
  O  O485  1  0.08620440  0.64749201  0.32744649  1
  O  O486  1  0.08823723  0.64694194  0.57784358  1
  O  O487  1  0.08849399  0.64726335  0.82703902  1
  O  O488  1  0.08877523  0.98177055  0.07821634  1
  O  O489  1  0.08802171  0.98134249  0.32819460  1
  O  O490  1  0.08688970  0.98244723  0.57726230  1
  O  O491  1  0.08699973  0.98274831  0.82773474  1
  O  O492  1  0.58910119  0.31379907  0.07812748  1
  O  O493  1  0.58722489  0.31493017  0.32734463  1
  O  O494  1  0.58822832  0.31583395  0.57806464  1
  O  O495  1  0.58877969  0.31628873  0.82707600  1
  O  O496  1  0.58879769  0.64915797  0.07781489  1
  O  O497  1  0.58635934  0.64649879  0.32770135  1
  O  O498  1  0.58899756  0.64739828  0.57799272  1
  O  O499  1  0.58855366  0.64795322  0.82760175  1
  O  O500  1  0.58795185  0.98267138  0.07793906  1
  O  O501  1  0.58723000  0.98371716  0.32803663  1
  O  O502  1  0.58698995  0.98210969  0.57699212  1
  O  O503  1  0.58742952  0.98110306  0.82677912  1
  O  O504  1  0.41318996  0.01843918  0.17305562  1
  O  O505  1  0.41178329  0.02028328  0.42306338  1
  O  O506  1  0.41112570  0.01842867  0.67231133  1
  O  O507  1  0.41231079  0.01871937  0.92225360  1
  O  O508  1  0.41297444  0.35124515  0.17230496  1
  O  O509  1  0.41287893  0.35043266  0.42309781  1
  O  O510  1  0.41353695  0.35134229  0.67331305  1
  O  O511  1  0.41447729  0.35225787  0.92246521  1
  O  O512  1  0.41464592  0.68505899  0.17228263  1
  O  O513  1  0.41276986  0.68371952  0.42205011  1
  O  O514  1  0.41278397  0.68475489  0.67310562  1
  O  O515  1  0.41426420  0.68334431  0.92242764  1
  O  O516  1  0.91349209  0.01937722  0.17341350  1
  O  O517  1  0.91104984  0.01951104  0.42261360  1
  O  O518  1  0.91383687  0.01892215  0.67176766  1
  O  O519  1  0.91505977  0.01842332  0.92263086  1
  O  O520  1  0.91071832  0.35077577  0.17182041  1
  O  O521  1  0.91314453  0.35144674  0.42186925  1
  O  O522  1  0.91320050  0.35056227  0.67293125  1
  O  O523  1  0.91270278  0.35071810  0.92203747  1
  O  O524  1  0.91368874  0.68520489  0.17291908  1
  O  O525  1  0.91371353  0.68362553  0.42172750  1
  O  O526  1  0.91140852  0.68578385  0.67364154  1
  O  O527  1  0.91198003  0.68530062  0.92242932  1
  O  O528  1  0.16252041  0.02039090  0.20206854  1
  O  O529  1  0.16228300  0.01892983  0.45300230  1
  O  O530  1  0.15902507  0.01843213  0.70281054  1
  O  O531  1  0.15913484  0.01860342  0.95331082  1
  O  O532  1  0.16143011  0.35035889  0.20389171  1
  O  O533  1  0.16178822  0.35084063  0.45236750  1
  O  O534  1  0.16019147  0.35182646  0.70214672  1
  O  O535  1  0.16008554  0.35169893  0.95234653  1
  O  O536  1  0.16100716  0.68471353  0.20205841  1
  O  O537  1  0.16108005  0.68562259  0.45114168  1
  O  O538  1  0.16214128  0.68384092  0.70273951  1
  O  O539  1  0.16080967  0.68478689  0.95337502  1
  O  O540  1  0.66287282  0.01989673  0.20206445  1
  O  O541  1  0.66440892  0.01838740  0.45125029  1
  O  O542  1  0.66367402  0.01978559  0.70232198  1
  O  O543  1  0.66362505  0.01851845  0.95229857  1
  O  O544  1  0.66427685  0.35021225  0.20343092  1
  O  O545  1  0.66159695  0.35116870  0.45190737  1
  O  O546  1  0.66306603  0.35111070  0.70214520  1
  O  O547  1  0.66378994  0.35206163  0.95128299  1
  O  O548  1  0.66385195  0.68505424  0.20228668  1
  O  O549  1  0.66414082  0.68542097  0.45199875  1
  O  O550  1  0.66391977  0.68421263  0.70332587  1
  O  O551  1  0.66135008  0.68352228  0.95299233  1
  O  O552  1  0.33455230  0.31531648  0.04758176  1
  O  O553  1  0.33696967  0.31379743  0.29875176  1
  O  O554  1  0.33640010  0.31566577  0.54734592  1
  O  O555  1  0.33383310  0.31519589  0.79796562  1
  O  O556  1  0.33612938  0.64783529  0.04734264  1
  O  O557  1  0.33809571  0.64801839  0.29770428  1
  O  O558  1  0.33836829  0.64685278  0.54678836  1
  O  O559  1  0.33621274  0.64798450  0.79863406  1
  O  O560  1  0.33487410  0.98178455  0.04738672  1
  O  O561  1  0.33721270  0.98338502  0.29667442  1
  O  O562  1  0.33454969  0.98292048  0.54761881  1
  O  O563  1  0.33355560  0.98193728  0.79815763  1
  O  O564  1  0.83947961  0.31686093  0.04666521  1
  O  O565  1  0.83850478  0.31473139  0.29765613  1
  O  O566  1  0.83994418  0.31389422  0.54793703  1
  O  O567  1  0.83860232  0.31613520  0.79696331  1
  O  O568  1  0.83539066  0.64725866  0.04784518  1
  O  O569  1  0.83900629  0.64833744  0.29755872  1
  O  O570  1  0.83872494  0.64800337  0.54718283  1
  O  O571  1  0.83616603  0.64748245  0.79784110  1
  O  O572  1  0.83812809  0.98205003  0.04742042  1
  O  O573  1  0.83869838  0.98156983  0.29637622  1
  O  O574  1  0.83857478  0.98361656  0.54783903  1
  O  O575  1  0.84036707  0.98124975  0.79820005  1
  O  O576  1  0.41311365  0.14836369  0.17348570  1
  O  O577  1  0.41224204  0.15034238  0.42244729  1
  O  O578  1  0.41122135  0.14851862  0.67264415  1
  O  O579  1  0.41237971  0.14906927  0.92236231  1
  O  O580  1  0.41278610  0.48132908  0.17194838  1
  O  O581  1  0.41284679  0.48053560  0.42322821  1
  O  O582  1  0.41323531  0.48126574  0.67285217  1
  O  O583  1  0.41483436  0.48247358  0.92211463  1
  O  O584  1  0.41458734  0.81516404  0.17242390  1
  O  O585  1  0.41252656  0.81413973  0.42255184  1
  O  O586  1  0.41276159  0.81500282  0.67307944  1
  O  O587  1  0.41375444  0.81362881  0.92280005  1
  O  O588  1  0.91412577  0.14922682  0.17340825  1
  O  O589  1  0.91136546  0.14960785  0.42200924  1
  O  O590  1  0.91392601  0.14909831  0.67172046  1
  O  O591  1  0.91413960  0.14850852  0.92230848  1
  O  O592  1  0.91043479  0.48080689  0.17239457  1
  O  O593  1  0.91321287  0.48157703  0.42175582  1
  O  O594  1  0.91347818  0.48044593  0.67402317  1
  O  O595  1  0.91205511  0.48068052  0.92298505  1
  O  O596  1  0.91411159  0.81513504  0.17312170  1
  O  O597  1  0.91358005  0.81388067  0.42233390  1
  O  O598  1  0.91199582  0.81592935  0.67267615  1
  O  O599  1  0.91178146  0.81562305  0.92124325  1
  O  O600  1  0.08664075  0.18400600  0.07821542  1
  O  O601  1  0.08774761  0.18619295  0.32717583  1
  O  O602  1  0.08755077  0.18548505  0.57693900  1
  O  O603  1  0.08746264  0.18564846  0.82784352  1
  O  O604  1  0.08781728  0.51895898  0.07643314  1
  O  O605  1  0.08588311  0.51736920  0.32722569  1
  O  O606  1  0.08765447  0.51673742  0.57838168  1
  O  O607  1  0.08843366  0.51725760  0.82786015  1
  O  O608  1  0.08798454  0.85153836  0.07750866  1
  O  O609  1  0.08821249  0.85108077  0.32888436  1
  O  O610  1  0.08741022  0.85238459  0.57706841  1
  O  O611  1  0.08746301  0.85263055  0.82663083  1
  O  O612  1  0.58860547  0.18361214  0.07863773  1
  O  O613  1  0.58729574  0.18495019  0.32703409  1
  O  O614  1  0.58861502  0.18572399  0.57735207  1
  O  O615  1  0.58935212  0.18630525  0.82636875  1
  O  O616  1  0.58962115  0.51903735  0.07688205  1
  O  O617  1  0.58574983  0.51633695  0.32809965  1
  O  O618  1  0.58904582  0.51715271  0.57858873  1
  O  O619  1  0.58856257  0.51780725  0.82734047  1
  O  O620  1  0.58834255  0.85228417  0.07827447  1
  O  O621  1  0.58800843  0.85335792  0.32787167  1
  O  O622  1  0.58695972  0.85191682  0.57725546  1
  O  O623  1  0.58725082  0.85080415  0.82739256  1
  O  O624  1  0.33441647  0.18532676  0.04753006  1
  O  O625  1  0.33638430  0.18389625  0.29799973  1
  O  O626  1  0.33638001  0.18538050  0.54724057  1
  O  O627  1  0.33373674  0.18517483  0.79787147  1
  O  O628  1  0.33605163  0.51759374  0.04709675  1
  O  O629  1  0.33813920  0.51801479  0.29787361  1
  O  O630  1  0.33760320  0.51641110  0.54681164  1
  O  O631  1  0.33627071  0.51802151  0.79871464  1
  O  O632  1  0.33475330  0.85161716  0.04784189  1
  O  O633  1  0.33704596  0.85299531  0.29739422  1
  O  O634  1  0.33479999  0.85259371  0.54771667  1
  O  O635  1  0.33404760  0.85175737  0.79812704  1
  O  O636  1  0.84062075  0.18676603  0.04822169  1
  O  O637  1  0.83851949  0.18473563  0.29732878  1
  O  O638  1  0.83934876  0.18395574  0.54704795  1
  O  O639  1  0.83867966  0.18615525  0.79792947  1
  O  O640  1  0.83568126  0.51721218  0.04713829  1
  O  O641  1  0.83883101  0.51817695  0.29788836  1
  O  O642  1  0.83845078  0.51783662  0.54748366  1
  O  O643  1  0.83605686  0.51740512  0.79740237  1
  O  O644  1  0.83884206  0.85187402  0.04662897  1
  O  O645  1  0.83779982  0.85127046  0.29678481  1
  O  O646  1  0.83996862  0.85357014  0.54843202  1
  O  O647  1  0.83937089  0.85104872  0.79748709  1
  O  O648  1  0.16318778  0.15021877  0.20260619  1
  O  O649  1  0.16217197  0.14901567  0.45315730  1
  O  O650  1  0.15869180  0.14867351  0.70251706  1
  O  O651  1  0.15932880  0.14883308  0.95313512  1
  O  O652  1  0.16118580  0.48042906  0.20284610  1
  O  O653  1  0.16187524  0.48071100  0.45160108  1
  O  O654  1  0.16030933  0.48199545  0.70261329  1
  O  O655  1  0.16069387  0.48169691  0.95218607  1
  O  O656  1  0.16092866  0.81470896  0.20265329  1
  O  O657  1  0.16117747  0.81580989  0.45219234  1
  O  O658  1  0.16147278  0.81419228  0.70291780  1
  O  O659  1  0.16092799  0.81495735  0.95344265  1
  O  O660  1  0.66373678  0.14993612  0.20242964  1
  O  O661  1  0.66415204  0.14826626  0.45081138  1
  O  O662  1  0.66411952  0.15003130  0.70253197  1
  O  O663  1  0.66288111  0.14861679  0.95289970  1
  O  O664  1  0.66368307  0.48039056  0.20360725  1
  O  O665  1  0.66175699  0.48099695  0.45191691  1
  O  O666  1  0.66292055  0.48127908  0.70244269  1
  O  O667  1  0.66355528  0.48190002  0.95208357  1
  O  O668  1  0.66456705  0.81506150  0.20167066  1
  O  O669  1  0.66356104  0.81554715  0.45261456  1
  O  O670  1  0.66414860  0.81454426  0.70265157  1
  O  O671  1  0.66053981  0.81367796  0.95169299  1
