# generated using pymatgen
data_Na2MnFe(PO4)2
_symmetry_space_group_name_H-M   'P 1'
_cell_length_a   21.09012001
_cell_length_b   18.94342087
_cell_length_c   20.04856726
_cell_angle_alpha   90.00003485
_cell_angle_beta   89.99904031
_cell_angle_gamma   89.99842815
_symmetry_Int_Tables_number   1
_chemical_formula_structural   Na2MnFe(PO4)2
_chemical_formula_sum   'Na96 Mn48 Fe48 P96 O384'
_cell_volume   8009.78393306
_cell_formula_units_Z   48
loop_
 _symmetry_equiv_pos_site_id
 _symmetry_equiv_pos_as_xyz
  1  'x, y, z'
loop_
 _atom_site_type_symbol
 _atom_site_label
 _atom_site_symmetry_multiplicity
 _atom_site_fract_x
 _atom_site_fract_y
 _atom_site_fract_z
 _atom_site_occupancy
  Na  Na0  1  0.00057065  -0.00061270  -0.00001930  1
  Na  Na1  1  0.00007445  -0.00076015  0.25012599  1
  Na  Na2  1  0.00093583  -0.00006830  0.49952684  1
  Na  Na3  1  0.00191727  0.00057475  0.75093323  1
  Na  Na4  1  0.00016211  0.33293899  -0.00027233  1
  Na  Na5  1  0.00132857  0.33408451  0.24895219  1
  Na  Na6  1  0.00000474  0.33358393  0.49984573  1
  Na  Na7  1  0.00001652  0.33350311  0.75069779  1
  Na  Na8  1  -0.00105693  0.66640535  0.00012819  1
  Na  Na9  1  -0.00044527  0.66602255  0.24975676  1
  Na  Na10  1  -0.00248480  0.66574114  0.50042043  1
  Na  Na11  1  -0.00280104  0.66646740  0.74979787  1
  Na  Na12  1  0.49565908  -0.00088917  0.00005964  1
  Na  Na13  1  0.49729293  -0.00033550  0.25016402  1
  Na  Na14  1  0.50050409  -0.00025401  0.49987404  1
  Na  Na15  1  0.49928073  -0.00036670  0.74994646  1
  Na  Na16  1  0.49949099  0.33309508  -0.00019217  1
  Na  Na17  1  0.49824688  0.33295839  0.25114295  1
  Na  Na18  1  0.49826234  0.33255117  0.50065962  1
  Na  Na19  1  0.49982768  0.33274310  0.74901254  1
  Na  Na20  1  0.49788189  0.66616338  0.00001607  1
  Na  Na21  1  0.49939213  0.66623494  0.24876217  1
  Na  Na22  1  0.50226940  0.66736431  0.50029368  1
  Na  Na23  1  0.50166527  0.66722110  0.75027885  1
  Na  Na24  1  0.25232282  0.00018760  0.12475196  1
  Na  Na25  1  0.25218662  0.00007533  0.37608688  1
  Na  Na26  1  0.24952056  -0.00061676  0.62562758  1
  Na  Na27  1  0.25037489  -0.00019971  0.87333929  1
  Na  Na28  1  0.24739326  0.33215535  0.12536869  1
  Na  Na29  1  0.25002538  0.33387273  0.37638617  1
  Na  Na30  1  0.24957124  0.33336333  0.62430424  1
  Na  Na31  1  0.24824912  0.33276224  0.87389112  1
  Na  Na32  1  0.25264140  0.66747843  0.12511511  1
  Na  Na33  1  0.25064493  0.66622982  0.37573099  1
  Na  Na34  1  0.25093213  0.66702981  0.62454469  1
  Na  Na35  1  0.25126414  0.66725829  0.87516532  1
  Na  Na36  1  0.75217691  0.00108815  0.12651099  1
  Na  Na37  1  0.74785248  -0.00048603  0.37389101  1
  Na  Na38  1  0.74845663  -0.00054232  0.62534665  1
  Na  Na39  1  0.74999429  -0.00071735  0.87470888  1
  Na  Na40  1  0.75233293  0.33425783  0.12520896  1
  Na  Na41  1  0.75142644  0.33381290  0.37487265  1
  Na  Na42  1  0.75158357  0.33330846  0.62551972  1
  Na  Na43  1  0.75168233  0.33328491  0.87476210  1
  Na  Na44  1  0.75030771  0.66638236  0.12534151  1
  Na  Na45  1  0.74910965  0.66620388  0.37550447  1
  Na  Na46  1  0.75001346  0.66679960  0.62363267  1
  Na  Na47  1  0.75027067  0.66657221  0.87493087  1
  Na  Na48  1  0.00227624  0.16587325  0.00084716  1
  Na  Na49  1  0.00161748  0.16628036  0.24893663  1
  Na  Na50  1  0.00011136  0.16699921  0.50056209  1
  Na  Na51  1  0.00143913  0.16647079  0.75048535  1
  Na  Na52  1  -0.00303821  0.50096960  0.00027602  1
  Na  Na53  1  -0.00026222  0.49973569  0.24907221  1
  Na  Na54  1  -0.00213851  0.49999485  0.49963814  1
  Na  Na55  1  -0.00271545  0.50017477  0.74985319  1
  Na  Na56  1  0.00177152  0.83265833  -0.00103570  1
  Na  Na57  1  0.00000254  0.83415352  0.25059792  1
  Na  Na58  1  0.00028466  0.83339373  0.49970178  1
  Na  Na59  1  -0.00139833  0.83450506  0.75054556  1
  Na  Na60  1  0.49731622  0.16734079  0.00023238  1
  Na  Na61  1  0.49885688  0.16684288  0.24987994  1
  Na  Na62  1  0.50089343  0.16699247  0.49967844  1
  Na  Na63  1  0.50043757  0.16704237  0.74958634  1
  Na  Na64  1  0.49871667  0.50070869  0.00000787  1
  Na  Na65  1  0.49935579  0.50033147  0.25028820  1
  Na  Na66  1  0.49831418  0.50134437  0.50113582  1
  Na  Na67  1  0.50151847  0.49911851  0.74920221  1
  Na  Na68  1  0.49718165  0.83352637  -0.00057192  1
  Na  Na69  1  0.49697918  0.83380349  0.24996617  1
  Na  Na70  1  0.50118306  0.83281057  0.49970819  1
  Na  Na71  1  0.49898828  0.83404813  0.75058254  1
  Na  Na72  1  0.25061973  0.16642388  0.12437379  1
  Na  Na73  1  0.25048610  0.16660172  0.37725588  1
  Na  Na74  1  0.24960021  0.16718678  0.62501108  1
  Na  Na75  1  0.24873890  0.16749088  0.87388698  1
  Na  Na76  1  0.25057764  0.49994615  0.12628469  1
  Na  Na77  1  0.25042525  0.49983913  0.37585134  1
  Na  Na78  1  0.24868815  0.49996767  0.62405383  1
  Na  Na79  1  0.24976781  0.49997265  0.87478699  1
  Na  Na80  1  0.25192977  0.83294558  0.12455091  1
  Na  Na81  1  0.25189931  0.83341784  0.37518601  1
  Na  Na82  1  0.25144732  0.83309645  0.62549105  1
  Na  Na83  1  0.25076176  0.83325923  0.87373374  1
  Na  Na84  1  0.74983059  0.16627600  0.12598568  1
  Na  Na85  1  0.74777208  0.16743724  0.37467475  1
  Na  Na86  1  0.74894865  0.16681911  0.62503407  1
  Na  Na87  1  0.74990633  0.16668770  0.87436064  1
  Na  Na88  1  0.75323190  0.49986977  0.12468256  1
  Na  Na89  1  0.75241577  0.49951567  0.37497653  1
  Na  Na90  1  0.75228874  0.49995352  0.62451048  1
  Na  Na91  1  0.75293201  0.49997931  0.87482072  1
  Na  Na92  1  0.75107718  0.83277595  0.12646354  1
  Na  Na93  1  0.74787996  0.83385301  0.37458779  1
  Na  Na94  1  0.74871450  0.83384132  0.62498024  1
  Na  Na95  1  0.74956703  0.83371445  0.87498311  1
  Mn  Mn96  1  0.60726571  0.08345681  0.87413148  1
  Mn  Mn97  1  0.64182745  0.91711246  0.99882690  1
  Mn  Mn98  1  0.60870136  0.41610508  0.87296657  1
  Mn  Mn99  1  0.89310485  0.24928387  0.12723913  1
  Mn  Mn100  1  0.14264746  0.91649312  0.74710842  1
  Mn  Mn101  1  0.85855792  0.75095484  0.00259117  1
  Mn  Mn102  1  0.14197766  0.24978249  0.49808409  1
  Mn  Mn103  1  0.10914267  0.08234581  0.12281444  1
  Mn  Mn104  1  0.35718974  0.41652836  0.25315827  1
  Mn  Mn105  1  0.39061303  0.25054241  0.12765238  1
  Mn  Mn106  1  0.89240540  0.91693773  0.87759165  1
  Mn  Mn107  1  0.35753893  0.41667421  0.00227625  1
  Mn  Mn108  1  0.85769471  0.08401005  0.25274301  1
  Mn  Mn109  1  0.10861457  0.75001394  0.12321438  1
  Mn  Mn110  1  0.60802738  0.41677417  0.12288495  1
  Mn  Mn111  1  0.10695151  0.41731076  0.87269093  1
  Mn  Mn112  1  0.60737384  0.75030113  0.87299902  1
  Mn  Mn113  1  0.60796412  0.08291477  0.62272943  1
  Mn  Mn114  1  0.60638294  0.08298448  0.12218546  1
  Mn  Mn115  1  0.85756431  0.74970001  0.25264163  1
  Mn  Mn116  1  0.10812181  0.74905093  0.37261086  1
  Mn  Mn117  1  0.10697468  0.74999166  0.62307166  1
  Mn  Mn118  1  0.85798460  0.08287889  0.75216490  1
  Mn  Mn119  1  0.60761558  0.41702908  0.37331792  1
  Mn  Mn120  1  0.10749717  0.41731357  0.12269387  1
  Mn  Mn121  1  0.89205943  0.91651318  0.37782589  1
  Mn  Mn122  1  0.85681054  0.75077359  0.50203742  1
  Mn  Mn123  1  0.39235972  0.58277150  0.87669829  1
  Mn  Mn124  1  0.10868784  0.08385320  0.37239623  1
  Mn  Mn125  1  0.14384859  0.91656297  0.24781189  1
  Mn  Mn126  1  0.64101670  0.91628030  0.24697539  1
  Mn  Mn127  1  0.64151813  0.25157781  0.24778610  1
  Mn  Mn128  1  0.35883272  0.74961056  0.50270862  1
  Mn  Mn129  1  0.14145600  0.58397944  0.49773416  1
  Mn  Mn130  1  0.89280804  0.24938387  0.87740367  1
  Mn  Mn131  1  0.14218502  0.58377198  0.99762384  1
  Mn  Mn132  1  0.60622201  0.75031678  0.12271398  1
  Mn  Mn133  1  0.35816676  0.08372057  0.50313596  1
  Mn  Mn134  1  0.85701674  0.08339621  0.50200659  1
  Mn  Mn135  1  0.64298246  0.58253486  0.49720447  1
  Mn  Mn136  1  0.64284920  0.58313525  0.99819683  1
  Mn  Mn137  1  0.60870847  0.41682459  0.62242936  1
  Mn  Mn138  1  0.39277498  0.58367520  0.62794039  1
  Mn  Mn139  1  0.64245418  0.24979490  0.99796945  1
  Mn  Mn140  1  0.35724396  0.41705448  0.75187869  1
  Mn  Mn141  1  0.35743678  0.08358937  0.75194196  1
  Mn  Mn142  1  0.14114862  0.58307305  0.74768651  1
  Mn  Mn143  1  0.89267862  0.24995872  0.37709924  1
  Fe  Fe144  1  0.35622947  0.08350856  0.00090277  1
  Fe  Fe145  1  0.39323872  0.24971954  0.62721626  1
  Fe  Fe146  1  0.10674273  0.08322284  0.62350932  1
  Fe  Fe147  1  0.89200833  0.91701592  0.62629627  1
  Fe  Fe148  1  0.64277429  0.25031420  0.74828919  1
  Fe  Fe149  1  0.85787097  0.41569338  0.00199284  1
  Fe  Fe150  1  0.39227754  0.91737410  0.87668899  1
  Fe  Fe151  1  0.89192098  0.58377566  0.62694485  1
  Fe  Fe152  1  0.64278209  0.58266537  0.24843199  1
  Fe  Fe153  1  0.89350142  0.91619585  0.12617789  1
  Fe  Fe154  1  0.60644089  0.74971950  0.37276062  1
  Fe  Fe155  1  0.14237263  0.25045025  0.74747415  1
  Fe  Fe156  1  0.14349828  0.25000359  0.24916747  1
  Fe  Fe157  1  0.10823741  0.08271855  0.87360875  1
  Fe  Fe158  1  0.89226102  0.58425090  0.87662561  1
  Fe  Fe159  1  0.64284244  0.25012710  0.49834167  1
  Fe  Fe160  1  0.89268746  0.58443901  0.12770681  1
  Fe  Fe161  1  0.35684368  0.41684301  0.50201345  1
  Fe  Fe162  1  0.10699341  0.41715458  0.37355799  1
  Fe  Fe163  1  0.64184696  0.91733175  0.49791962  1
  Fe  Fe164  1  0.39104316  0.91627610  0.12693126  1
  Fe  Fe165  1  0.14359597  0.91666580  0.99835314  1
  Fe  Fe166  1  0.10560143  0.41671603  0.62331803  1
  Fe  Fe167  1  0.39226740  0.25041366  0.37744250  1
  Fe  Fe168  1  0.39340710  0.91636907  0.37769184  1
  Fe  Fe169  1  0.35809106  0.74939012  0.75171406  1
  Fe  Fe170  1  0.39205073  0.25004506  0.87603114  1
  Fe  Fe171  1  0.85782468  0.41665246  0.25193249  1
  Fe  Fe172  1  0.35758319  0.74961413  0.25251410  1
  Fe  Fe173  1  0.39344792  0.91666025  0.62638763  1
  Fe  Fe174  1  0.35676090  0.75007419  0.00131969  1
  Fe  Fe175  1  0.89286872  0.58338899  0.37578067  1
  Fe  Fe176  1  0.10767782  0.74976694  0.87278163  1
  Fe  Fe177  1  0.39284951  0.58310374  0.37667502  1
  Fe  Fe178  1  0.60599416  0.08330966  0.37331202  1
  Fe  Fe179  1  0.14291179  0.24943959  0.99777159  1
  Fe  Fe180  1  0.60783619  0.75016820  0.62423451  1
  Fe  Fe181  1  0.64194120  0.91627267  0.74833013  1
  Fe  Fe182  1  0.85845124  0.08334456  0.00184896  1
  Fe  Fe183  1  0.14312739  0.58343274  0.24863952  1
  Fe  Fe184  1  0.14303965  0.91627609  0.49900147  1
  Fe  Fe185  1  0.85667011  0.75033164  0.75116585  1
  Fe  Fe186  1  0.89253568  0.24922627  0.62680787  1
  Fe  Fe187  1  0.35744460  0.08370400  0.25259048  1
  Fe  Fe188  1  0.39215077  0.58304391  0.12753242  1
  Fe  Fe189  1  0.85815063  0.41557997  0.50165992  1
  Fe  Fe190  1  0.85741743  0.41663255  0.75133507  1
  Fe  Fe191  1  0.64388597  0.58333716  0.74881090  1
  P  P192  1  0.05619934  0.24973782  0.11050426  1
  P  P193  1  0.05418754  0.25116158  0.35925732  1
  P  P194  1  0.05307523  0.25024467  0.61147456  1
  P  P195  1  0.05561846  0.24903886  0.86069186  1
  P  P196  1  0.05326783  0.58366764  0.11103716  1
  P  P197  1  0.05270753  0.58230854  0.35937224  1
  P  P198  1  0.05113958  0.58259202  0.61022577  1
  P  P199  1  0.05151450  0.58414110  0.85998680  1
  P  P200  1  0.05393900  0.91626735  0.10927734  1
  P  P201  1  0.05504933  0.91645051  0.36093672  1
  P  P202  1  0.05247739  0.91710935  0.60970894  1
  P  P203  1  0.05559866  0.91648312  0.86138252  1
  P  P204  1  0.55230315  0.25025219  0.10988908  1
  P  P205  1  0.55293075  0.24994319  0.36154315  1
  P  P206  1  0.55462029  0.25011205  0.61032907  1
  P  P207  1  0.55262977  0.24972561  0.85939688  1
  P  P208  1  0.55282173  0.58325094  0.11095385  1
  P  P209  1  0.55279669  0.58357386  0.35957073  1
  P  P210  1  0.55563846  0.58418649  0.61150216  1
  P  P211  1  0.55441542  0.58303587  0.85934836  1
  P  P212  1  0.55014563  0.91651244  0.10980899  1
  P  P213  1  0.55310122  0.91667728  0.36099606  1
  P  P214  1  0.55416682  0.91571074  0.61074715  1
  P  P215  1  0.55227407  0.91721129  0.85999692  1
  P  P216  1  0.44328469  0.08284772  0.13944477  1
  P  P217  1  0.44591821  0.08354643  0.38910287  1
  P  P218  1  0.44682837  0.08349174  0.63996278  1
  P  P219  1  0.44521339  0.08389889  0.88997225  1
  P  P220  1  0.44619865  0.41731327  0.14058641  1
  P  P221  1  0.44571562  0.41715741  0.39105009  1
  P  P222  1  0.44575140  0.41590154  0.63883329  1
  P  P223  1  0.44684989  0.41558271  0.88960281  1
  P  P224  1  0.44337638  0.74978518  0.13911250  1
  P  P225  1  0.44651924  0.74926842  0.38875016  1
  P  P226  1  0.44784598  0.75070800  0.64065784  1
  P  P227  1  0.44457215  0.75058100  0.88923714  1
  P  P228  1  0.94649185  0.08191313  0.13910193  1
  P  P229  1  0.94728070  0.08360831  0.39032059  1
  P  P230  1  0.94753853  0.08297817  0.63983812  1
  P  P231  1  0.94809771  0.08336448  0.89072375  1
  P  P232  1  0.94462534  0.41714402  0.13925100  1
  P  P233  1  0.94605780  0.41729980  0.38894437  1
  P  P234  1  0.94510422  0.41595951  0.63917184  1
  P  P235  1  0.94427731  0.41722971  0.88922447  1
  P  P236  1  0.94701582  0.75076275  0.14017216  1
  P  P237  1  0.94666570  0.74900809  0.39015781  1
  P  P238  1  0.94522496  0.75083112  0.64018162  1
  P  P239  1  0.94660246  0.74985956  0.88849225  1
  P  P240  1  0.19883305  0.08390928  0.23542737  1
  P  P241  1  0.19528577  0.08225635  0.48700520  1
  P  P242  1  0.19468692  0.08418944  0.73518043  1
  P  P243  1  0.19744880  0.08268860  0.98443251  1
  P  P244  1  0.19503704  0.41690996  0.23703686  1
  P  P245  1  0.19501736  0.41675985  0.48592497  1
  P  P246  1  0.19508225  0.41622976  0.73379185  1
  P  P247  1  0.19642306  0.41650096  0.98492798  1
  P  P248  1  0.19865343  0.74915659  0.23541552  1
  P  P249  1  0.19690488  0.75102767  0.48534596  1
  P  P250  1  0.19699656  0.74960411  0.73565215  1
  P  P251  1  0.19737845  0.75077590  0.98443684  1
  P  P252  1  0.69422204  0.08363301  0.23603840  1
  P  P253  1  0.69520704  0.08342649  0.48427863  1
  P  P254  1  0.69608970  0.08315316  0.73557884  1
  P  P255  1  0.69845582  0.08297369  0.98529180  1
  P  P256  1  0.69802222  0.41812589  0.23514624  1
  P  P257  1  0.69866850  0.41566816  0.48500748  1
  P  P258  1  0.69829777  0.41697742  0.73523733  1
  P  P259  1  0.69885171  0.41678243  0.98508291  1
  P  P260  1  0.69452323  0.74853587  0.23620897  1
  P  P261  1  0.69412694  0.75108463  0.48541853  1
  P  P262  1  0.69697051  0.74982548  0.73479804  1
  P  P263  1  0.69682058  0.75032456  0.98534548  1
  P  P264  1  0.30281084  0.24951160  0.01320835  1
  P  P265  1  0.30256788  0.24941342  0.26643318  1
  P  P266  1  0.30526555  0.25098200  0.51501836  1
  P  P267  1  0.30349260  0.25021729  0.76387247  1
  P  P268  1  0.30391101  0.58386684  0.01560722  1
  P  P269  1  0.30388998  0.58379766  0.26516088  1
  P  P270  1  0.30456087  0.58259021  0.51415087  1
  P  P271  1  0.30283841  0.58374779  0.76476775  1
  P  P272  1  0.30392383  0.91683073  0.01325763  1
  P  P273  1  0.30595941  0.91659471  0.26483116  1
  P  P274  1  0.30469503  0.91658951  0.51511760  1
  P  P275  1  0.30594586  0.91593235  0.76369605  1
  P  P276  1  0.80396419  0.24912071  0.01494947  1
  P  P277  1  0.80343861  0.25080992  0.26516059  1
  P  P278  1  0.80296581  0.25005102  0.51535912  1
  P  P279  1  0.80389678  0.25007928  0.76370395  1
  P  P280  1  0.80593108  0.58322517  0.01456015  1
  P  P281  1  0.80421337  0.58294503  0.26472927  1
  P  P282  1  0.80578605  0.58260184  0.51380981  1
  P  P283  1  0.80457475  0.58404255  0.76370319  1
  P  P284  1  0.80393345  0.91764925  0.01612514  1
  P  P285  1  0.80419920  0.91651718  0.26423559  1
  P  P286  1  0.80159960  0.91712440  0.51535693  1
  P  P287  1  0.80323173  0.91584857  0.76364563  1
  O  O288  1  0.06047394  0.24962575  0.18723717  1
  O  O289  1  0.05667901  0.25023910  0.43605596  1
  O  O290  1  0.05748098  0.25041246  0.68816201  1
  O  O291  1  0.05971905  0.24968796  0.93752970  1
  O  O292  1  0.05896444  0.58365434  0.18762359  1
  O  O293  1  0.05595297  0.58304777  0.43606803  1
  O  O294  1  0.05492854  0.58312106  0.68690384  1
  O  O295  1  0.05539710  0.58367484  0.93666144  1
  O  O296  1  0.05799537  0.91654599  0.18604501  1
  O  O297  1  0.05957635  0.91636749  0.43757970  1
  O  O298  1  0.05636719  0.91647434  0.68656033  1
  O  O299  1  0.05999190  0.91629808  0.93802411  1
  O  O300  1  0.55579962  0.25048936  0.18667713  1
  O  O301  1  0.55827761  0.25076395  0.43818074  1
  O  O302  1  0.55988873  0.25056342  0.68699592  1
  O  O303  1  0.55659806  0.24993937  0.93613155  1
  O  O304  1  0.55815821  0.58276934  0.18752303  1
  O  O305  1  0.55680873  0.58285808  0.43633923  1
  O  O306  1  0.56038891  0.58301387  0.68815377  1
  O  O307  1  0.55719440  0.58315730  0.93617853  1
  O  O308  1  0.55438852  0.91659208  0.18647061  1
  O  O309  1  0.55757176  0.91680680  0.43772770  1
  O  O310  1  0.55870431  0.91648673  0.68745714  1
  O  O311  1  0.55599216  0.91694787  0.93669390  1
  O  O312  1  0.43900278  0.08373830  0.06267050  1
  O  O313  1  0.44153155  0.08398614  0.31247480  1
  O  O314  1  0.44441136  0.08351812  0.56294758  1
  O  O315  1  0.44302547  0.08398768  0.81333187  1
  O  O316  1  0.44316844  0.41674929  0.06378199  1
  O  O317  1  0.44283487  0.41693566  0.31437296  1
  O  O318  1  0.44122342  0.41682318  0.56218250  1
  O  O319  1  0.44370817  0.41615528  0.81286706  1
  O  O320  1  0.43971451  0.74986015  0.06229113  1
  O  O321  1  0.44188667  0.74913312  0.31210758  1
  O  O322  1  0.44451595  0.74985436  0.56386619  1
  O  O323  1  0.44121420  0.74953002  0.81246441  1
  O  O324  1  0.94247620  0.08304549  0.06231375  1
  O  O325  1  0.94384106  0.08352660  0.31353920  1
  O  O326  1  0.94370682  0.08313541  0.56323198  1
  O  O327  1  0.94373247  0.08350164  0.81400672  1
  O  O328  1  0.94084322  0.41597359  0.06244444  1
  O  O329  1  0.94169361  0.41642694  0.31222104  1
  O  O330  1  0.94121422  0.41551628  0.56238313  1
  O  O331  1  0.94026597  0.41619914  0.81237839  1
  O  O332  1  0.94447392  0.75064237  0.06342568  1
  O  O333  1  0.94364491  0.74997822  0.31334383  1
  O  O334  1  0.94245589  0.75098786  0.56366671  1
  O  O335  1  0.94116603  0.75065277  0.81189145  1
  O  O336  1  0.19473014  0.08247002  0.06089683  1
  O  O337  1  0.19533589  0.08307875  0.31225409  1
  O  O338  1  0.19062140  0.08295422  0.56365517  1
  O  O339  1  0.19116224  0.08325270  0.81197935  1
  O  O340  1  0.19351682  0.41728870  0.06170551  1
  O  O341  1  0.19147603  0.41735587  0.31384455  1
  O  O342  1  0.18942634  0.41684995  0.56252707  1
  O  O343  1  0.19215108  0.41724741  0.81060451  1
  O  O344  1  0.19397614  0.75018874  0.06116455  1
  O  O345  1  0.19471518  0.74956748  0.31207739  1
  O  O346  1  0.19323495  0.75026315  0.56210894  1
  O  O347  1  0.19162154  0.74944367  0.81228416  1
  O  O348  1  0.69404743  0.08279748  0.06197994  1
  O  O349  1  0.68904654  0.08331107  0.31276877  1
  O  O350  1  0.69286723  0.08312806  0.56104214  1
  O  O351  1  0.69317368  0.08302426  0.81228912  1
  O  O352  1  0.69475510  0.41704680  0.06175470  1
  O  O353  1  0.69381539  0.41747610  0.31180026  1
  O  O354  1  0.69487777  0.41647160  0.56167966  1
  O  O355  1  0.69498372  0.41686186  0.81189012  1
  O  O356  1  0.69302047  0.75024148  0.06211609  1
  O  O357  1  0.68995019  0.74950671  0.31297252  1
  O  O358  1  0.69063836  0.75041595  0.56222558  1
  O  O359  1  0.69361223  0.75003246  0.81150971  1
  O  O360  1  0.30535945  0.25023809  0.18965885  1
  O  O361  1  0.30948803  0.25007887  0.43824461  1
  O  O362  1  0.30875207  0.24997996  0.68725035  1
  O  O363  1  0.30743927  0.25044454  0.93655486  1
  O  O364  1  0.30832729  0.58301035  0.18848233  1
  O  O365  1  0.30902935  0.58329695  0.43744092  1
  O  O366  1  0.30613532  0.58323641  0.68801140  1
  O  O367  1  0.30686501  0.58272970  0.93883047  1
  O  O368  1  0.30871206  0.91645442  0.18791739  1
  O  O369  1  0.30987539  0.91659588  0.43841558  1
  O  O370  1  0.31022136  0.91662831  0.68695898  1
  O  O371  1  0.30784136  0.91682827  0.93651405  1
  O  O372  1  0.80711345  0.24959722  0.18835519  1
  O  O373  1  0.80670723  0.24950961  0.43869030  1
  O  O374  1  0.80884780  0.24905725  0.68700318  1
  O  O375  1  0.80662862  0.24897750  0.93830317  1
  O  O376  1  0.80888685  0.58420133  0.18800320  1
  O  O377  1  0.80959759  0.58343602  0.43706919  1
  O  O378  1  0.80861260  0.58410118  0.68690274  1
  O  O379  1  0.80954154  0.58449674  0.93769905  1
  O  O380  1  0.80944318  0.91636671  0.18760141  1
  O  O381  1  0.80564400  0.91694829  0.43862939  1
  O  O382  1  0.80826184  0.91691677  0.68703828  1
  O  O383  1  0.80668332  0.91656974  0.93929293  1
  O  O384  1  0.23258885  0.24919569  0.03732641  1
  O  O385  1  0.23271886  0.25017180  0.29165548  1
  O  O386  1  0.23507689  0.25017834  0.53859078  1
  O  O387  1  0.23294326  0.25027310  0.78682349  1
  O  O388  1  0.23420448  0.58364403  0.04082606  1
  O  O389  1  0.23357460  0.58317034  0.28912046  1
  O  O390  1  0.23446426  0.58326067  0.53811168  1
  O  O391  1  0.23322985  0.58360435  0.79002837  1
  O  O392  1  0.23376201  0.91654197  0.03790395  1
  O  O393  1  0.23616009  0.91663543  0.28981559  1
  O  O394  1  0.23440902  0.91638700  0.53867881  1
  O  O395  1  0.23567912  0.91663507  0.78727307  1
  O  O396  1  0.73453329  0.24979941  0.04096969  1
  O  O397  1  0.73368554  0.25094451  0.28983136  1
  O  O398  1  0.73283209  0.24990137  0.53975122  1
  O  O399  1  0.73353420  0.25003696  0.78739368  1
  O  O400  1  0.73595779  0.58356619  0.03903984  1
  O  O401  1  0.73399343  0.58305266  0.28869373  1
  O  O402  1  0.73564921  0.58307873  0.53786066  1
  O  O403  1  0.73434311  0.58358611  0.78795838  1
  O  O404  1  0.73439706  0.91692819  0.04181601  1
  O  O405  1  0.73387939  0.91641318  0.28738369  1
  O  O406  1  0.73134586  0.91710390  0.53924766  1
  O  O407  1  0.73281863  0.91612728  0.78727075  1
  O  O408  1  0.26873902  0.08345164  0.21061196  1
  O  O409  1  0.26556554  0.08327467  0.46327874  1
  O  O410  1  0.26465900  0.08346039  0.71091359  1
  O  O411  1  0.26734920  0.08323725  0.95891547  1
  O  O412  1  0.26481548  0.41633843  0.21220035  1
  O  O413  1  0.26562880  0.41658189  0.46314532  1
  O  O414  1  0.26478238  0.41653073  0.70879503  1
  O  O415  1  0.26594804  0.41657663  0.95938131  1
  O  O416  1  0.26868844  0.74985449  0.21100839  1
  O  O417  1  0.26673028  0.75025884  0.46072879  1
  O  O418  1  0.26738170  0.74988850  0.71223974  1
  O  O419  1  0.26756063  0.75045372  0.96014140  1
  O  O420  1  0.76456813  0.08379064  0.21303915  1
  O  O421  1  0.76476100  0.08334127  0.45856879  1
  O  O422  1  0.76572720  0.08308311  0.71010456  1
  O  O423  1  0.76839110  0.08297254  0.96054773  1
  O  O424  1  0.76813290  0.41761422  0.21091277  1
  O  O425  1  0.76874599  0.41602218  0.46063756  1
  O  O426  1  0.76836511  0.41702945  0.71043074  1
  O  O427  1  0.76895129  0.41643244  0.96078763  1
  O  O428  1  0.76464536  0.74908035  0.21243428  1
  O  O429  1  0.76406057  0.75037580  0.46098127  1
  O  O430  1  0.76693886  0.75007438  0.70982626  1
  O  O431  1  0.76658834  0.75044481  0.96064630  1
  O  O432  1  0.01637248  0.08245771  0.16345866  1
  O  O433  1  0.01700928  0.08373640  0.41504619  1
  O  O434  1  0.01758586  0.08315131  0.66458932  1
  O  O435  1  0.01835614  0.08268949  0.91449735  1
  O  O436  1  0.01470475  0.41694197  0.16317556  1
  O  O437  1  0.01630285  0.41696559  0.41299206  1
  O  O438  1  0.01534252  0.41645122  0.66347210  1
  O  O439  1  0.01432217  0.41676739  0.91346507  1
  O  O440  1  0.01650503  0.75041895  0.16595849  1
  O  O441  1  0.01626539  0.74901367  0.41546294  1
  O  O442  1  0.01497506  0.75057560  0.66563427  1
  O  O443  1  0.01697947  0.74969094  0.91210100  1
  O  O444  1  0.51330258  0.08336465  0.16362768  1
  O  O445  1  0.51610380  0.08334504  0.41334698  1
  O  O446  1  0.51627079  0.08344740  0.66541693  1
  O  O447  1  0.51465954  0.08338883  0.91611748  1
  O  O448  1  0.51573813  0.41670544  0.16610690  1
  O  O449  1  0.51543831  0.41718835  0.41640935  1
  O  O450  1  0.51587043  0.41603775  0.66272422  1
  O  O451  1  0.51643829  0.41635498  0.91505084  1
  O  O452  1  0.51333311  0.75020731  0.16359922  1
  O  O453  1  0.51679720  0.74964176  0.41272894  1
  O  O454  1  0.51786516  0.75041628  0.66527799  1
  O  O455  1  0.51447014  0.74988777  0.91396287  1
  O  O456  1  0.48248499  0.25037934  0.08536600  1
  O  O457  1  0.48240356  0.25035585  0.33822255  1
  O  O458  1  0.48408769  0.24972028  0.58733052  1
  O  O459  1  0.48250713  0.24962805  0.83509181  1
  O  O460  1  0.48240852  0.58358871  0.08761003  1
  O  O461  1  0.48258652  0.58304837  0.33553273  1
  O  O462  1  0.48552151  0.58427233  0.58768279  1
  O  O463  1  0.48471262  0.58305866  0.83423398  1
  O  O464  1  0.47998002  0.91608584  0.08583967  1
  O  O465  1  0.48270790  0.91646575  0.33725874  1
  O  O466  1  0.48380615  0.91645478  0.58688299  1
  O  O467  1  0.48208290  0.91725179  0.83589223  1
  O  O468  1  0.98595519  0.24967267  0.08670941  1
  O  O469  1  0.98466931  0.25029946  0.33365305  1
  O  O470  1  0.98282953  0.25004235  0.58724630  1
  O  O471  1  0.98553144  0.24985805  0.83675828  1
  O  O472  1  0.98278479  0.58373074  0.08803902  1
  O  O473  1  0.98269877  0.58277717  0.33467972  1
  O  O474  1  0.98097514  0.58297140  0.58601076  1
  O  O475  1  0.98146824  0.58373263  0.83545886  1
  O  O476  1  0.98388216  0.91602352  0.08491833  1
  O  O477  1  0.98494026  0.91662730  0.33709138  1
  O  O478  1  0.98230964  0.91659248  0.58546709  1
  O  O479  1  0.98553374  0.91727617  0.83724787  1
  O  O480  1  0.08949328  0.31480695  0.07726264  1
  O  O481  1  0.08805379  0.31662221  0.32750834  1
  O  O482  1  0.08627633  0.31531063  0.57809728  1
  O  O483  1  0.08946666  0.31384224  0.82734221  1
  O  O484  1  0.08633915  0.64870361  0.07748690  1
  O  O485  1  0.08709194  0.64705420  0.32639669  1
  O  O486  1  0.08495435  0.64763170  0.57739578  1
  O  O487  1  0.08530313  0.64909606  0.82717999  1
  O  O488  1  0.08793023  0.98112679  0.07642573  1
  O  O489  1  0.08859784  0.98142459  0.32762166  1
  O  O490  1  0.08634921  0.98219231  0.57731261  1
  O  O491  1  0.08942212  0.98150596  0.82849220  1
  O  O492  1  0.58649148  0.31517971  0.07738115  1
  O  O493  1  0.58600934  0.31508781  0.32793525  1
  O  O494  1  0.58777486  0.31498832  0.57645133  1
  O  O495  1  0.58670347  0.31460199  0.82640615  1
  O  O496  1  0.58598222  0.64832971  0.07753485  1
  O  O497  1  0.58636605  0.64861346  0.32680903  1
  O  O498  1  0.58895975  0.64945460  0.57885172  1
  O  O499  1  0.58878610  0.64803876  0.82708576  1
  O  O500  1  0.58349175  0.98165780  0.07682915  1
  O  O501  1  0.58597010  0.98186733  0.32766219  1
  O  O502  1  0.58779447  0.98049811  0.57712510  1
  O  O503  1  0.58613074  0.98214768  0.82724260  1
  O  O504  1  0.40995367  0.01744823  0.17204325  1
  O  O505  1  0.41257632  0.01832243  0.42214414  1
  O  O506  1  0.41257718  0.01842885  0.67180217  1
  O  O507  1  0.41039672  0.01892103  0.92198161  1
  O  O508  1  0.41159982  0.35247854  0.17295622  1
  O  O509  1  0.41127017  0.35217935  0.42336834  1
  O  O510  1  0.41237635  0.35062308  0.67159780  1
  O  O511  1  0.41294733  0.35023122  0.92174352  1
  O  O512  1  0.41004500  0.68453340  0.17221275  1
  O  O513  1  0.41357617  0.68408620  0.42217510  1
  O  O514  1  0.41360332  0.68596881  0.67365434  1
  O  O515  1  0.41029661  0.68598599  0.92244235  1
  O  O516  1  0.91311584  0.01648536  0.17152135  1
  O  O517  1  0.91317684  0.01868572  0.42292132  1
  O  O518  1  0.91396141  0.01773787  0.67262888  1
  O  O519  1  0.91381665  0.01862567  0.92341466  1
  O  O520  1  0.91106757  0.35226391  0.17281478  1
  O  O521  1  0.91250519  0.35247108  0.42271386  1
  O  O522  1  0.91185187  0.35092442  0.67260096  1
  O  O523  1  0.91063521  0.35232210  0.92257717  1
  O  O524  1  0.91243005  0.68576639  0.17231373  1
  O  O525  1  0.91249628  0.68375131  0.42175214  1
  O  O526  1  0.91087816  0.68568687  0.67248868  1
  O  O527  1  0.91315095  0.68489177  0.92161789  1
  O  O528  1  0.16495616  0.01900741  0.20244070  1
  O  O529  1  0.16279389  0.01687366  0.45379195  1
  O  O530  1  0.16059417  0.01942037  0.70199413  1
  O  O531  1  0.16370958  0.01749522  0.95166057  1
  O  O532  1  0.16112309  0.35180605  0.20455186  1
  O  O533  1  0.16185318  0.35175079  0.45242448  1
  O  O534  1  0.16097710  0.35097552  0.70177984  1
  O  O535  1  0.16217090  0.35144639  0.95292558  1
  O  O536  1  0.16510463  0.68394690  0.20272009  1
  O  O537  1  0.16269881  0.68605346  0.45270737  1
  O  O538  1  0.16367791  0.68473126  0.70208505  1
  O  O539  1  0.16339866  0.68580104  0.95151028  1
  O  O540  1  0.66119502  0.01856271  0.20237820  1
  O  O541  1  0.66056680  0.01845681  0.45208114  1
  O  O542  1  0.66189872  0.01806646  0.70320917  1
  O  O543  1  0.66440529  0.01800105  0.95264015  1
  O  O544  1  0.66413278  0.35322232  0.20212619  1
  O  O545  1  0.66485377  0.35060669  0.45252851  1
  O  O546  1  0.66445650  0.35189521  0.70257565  1
  O  O547  1  0.66502664  0.35173273  0.95238482  1
  O  O548  1  0.66152202  0.68306071  0.20351213  1
  O  O549  1  0.66006875  0.68623663  0.45228594  1
  O  O550  1  0.66327353  0.68469191  0.70207504  1
  O  O551  1  0.66300029  0.68525829  0.95272028  1
  O  O552  1  0.33575729  0.31440852  0.04726610  1
  O  O553  1  0.33716906  0.31409215  0.29909703  1
  O  O554  1  0.33838814  0.31624816  0.54778918  1
  O  O555  1  0.33666301  0.31515138  0.79751044  1
  O  O556  1  0.33791983  0.64926169  0.04734383  1
  O  O557  1  0.33725303  0.64903010  0.29812841  1
  O  O558  1  0.33838177  0.64744310  0.54740510  1
  O  O559  1  0.33720191  0.64868614  0.79687525  1
  O  O560  1  0.33725431  0.98202160  0.04622466  1
  O  O561  1  0.33986379  0.98170225  0.29740951  1
  O  O562  1  0.33805808  0.98166929  0.54848525  1
  O  O563  1  0.33948828  0.98081305  0.79712943  1
  O  O564  1  0.83868250  0.31409574  0.04695308  1
  O  O565  1  0.83745813  0.31611326  0.29703902  1
  O  O566  1  0.83711850  0.31500586  0.54784049  1
  O  O567  1  0.83721850  0.31526122  0.79644981  1
  O  O568  1  0.83984631  0.64798051  0.04803150  1
  O  O569  1  0.83784717  0.64761843  0.29854935  1
  O  O570  1  0.83936173  0.64743479  0.54728293  1
  O  O571  1  0.83765160  0.64935455  0.79690402  1
  O  O572  1  0.83822083  0.98294864  0.04776364  1
  O  O573  1  0.83733556  0.98159281  0.29766694  1
  O  O574  1  0.83533352  0.98216256  0.54825726  1
  O  O575  1  0.83674659  0.98060971  0.79742721  1
  O  O576  1  0.40941078  0.14760765  0.17300601  1
  O  O577  1  0.41253015  0.14849760  0.42252960  1
  O  O578  1  0.41250687  0.14854616  0.67197171  1
  O  O579  1  0.41093813  0.14909816  0.92215216  1
  O  O580  1  0.41220288  0.48253699  0.17272669  1
  O  O581  1  0.41148017  0.48236302  0.42320935  1
  O  O582  1  0.41238604  0.48082231  0.67240679  1
  O  O583  1  0.41234653  0.48045404  0.92202134  1
  O  O584  1  0.40938789  0.81466197  0.17205685  1
  O  O585  1  0.41316395  0.81431919  0.42203971  1
  O  O586  1  0.41379981  0.81581588  0.67274192  1
  O  O587  1  0.41110243  0.81610716  0.92148604  1
  O  O588  1  0.91262526  0.14682519  0.17242782  1
  O  O589  1  0.91329564  0.14870458  0.42274956  1
  O  O590  1  0.91380437  0.14802547  0.67277581  1
  O  O591  1  0.91483412  0.14847710  0.92380372  1
  O  O592  1  0.91107426  0.48235078  0.17187605  1
  O  O593  1  0.91258065  0.48244087  0.42168379  1
  O  O594  1  0.91127603  0.48106996  0.67186513  1
  O  O595  1  0.91085329  0.48257492  0.92151531  1
  O  O596  1  0.91293366  0.81597747  0.17228185  1
  O  O597  1  0.91243897  0.81385666  0.42289423  1
  O  O598  1  0.91110711  0.81589159  0.67286446  1
  O  O599  1  0.91368713  0.81493463  0.92226569  1
  O  O600  1  0.08982519  0.18483822  0.07740838  1
  O  O601  1  0.08925345  0.18659129  0.32671675  1
  O  O602  1  0.08670447  0.18525856  0.57841503  1
  O  O603  1  0.08883202  0.18370278  0.82797264  1
  O  O604  1  0.08612484  0.51867905  0.07722872  1
  O  O605  1  0.08654599  0.51717855  0.32691556  1
  O  O606  1  0.08462825  0.51753919  0.57743536  1
  O  O607  1  0.08511300  0.51899281  0.82713172  1
  O  O608  1  0.08806815  0.85130259  0.07669043  1
  O  O609  1  0.08836264  0.85131625  0.32764680  1
  O  O610  1  0.08670704  0.85224907  0.57696253  1
  O  O611  1  0.08857795  0.85123920  0.82789793  1
  O  O612  1  0.58597226  0.18505266  0.07729683  1
  O  O613  1  0.58574617  0.18480709  0.32823903  1
  O  O614  1  0.58794580  0.18511039  0.57707338  1
  O  O615  1  0.58660457  0.18466314  0.82688516  1
  O  O616  1  0.58597918  0.51826711  0.07726481  1
  O  O617  1  0.58688744  0.51866367  0.32666120  1
  O  O618  1  0.58884825  0.51925121  0.57757291  1
  O  O619  1  0.58884744  0.51813435  0.82697287  1
  O  O620  1  0.58403630  0.85165711  0.07699995  1
  O  O621  1  0.58624378  0.85155193  0.32772314  1
  O  O622  1  0.58723418  0.85049751  0.57775272  1
  O  O623  1  0.58614935  0.85227824  0.82697528  1
  O  O624  1  0.33620891  0.18434003  0.04602936  1
  O  O625  1  0.33644196  0.18416822  0.29868224  1
  O  O626  1  0.33915670  0.18618814  0.54850428  1
  O  O627  1  0.33665427  0.18530056  0.79755357  1
  O  O628  1  0.33832283  0.51916921  0.04859882  1
  O  O629  1  0.33765405  0.51909130  0.29868147  1
  O  O630  1  0.33771404  0.51733461  0.54709349  1
  O  O631  1  0.33683989  0.51862080  0.79725224  1
  O  O632  1  0.33759603  0.85186305  0.04637536  1
  O  O633  1  0.33990465  0.85147440  0.29746047  1
  O  O634  1  0.33847816  0.85177008  0.54829984  1
  O  O635  1  0.33907961  0.85078987  0.79672655  1
  O  O636  1  0.83800373  0.18382310  0.04728892  1
  O  O637  1  0.83723946  0.18596021  0.29828356  1
  O  O638  1  0.83679146  0.18506455  0.54847835  1
  O  O639  1  0.83723335  0.18521934  0.79739047  1
  O  O640  1  0.83956597  0.51789813  0.04674934  1
  O  O641  1  0.83800401  0.51777464  0.29726061  1
  O  O642  1  0.83917329  0.51732126  0.54651247  1
  O  O643  1  0.83846094  0.51912359  0.79652099  1
  O  O644  1  0.83879209  0.85291686  0.04862604  1
  O  O645  1  0.83727796  0.85144938  0.29783384  1
  O  O646  1  0.83544879  0.85229788  0.54827864  1
  O  O647  1  0.83632020  0.85061798  0.79682648  1
  O  O648  1  0.16506068  0.14909443  0.20329749  1
  O  O649  1  0.16174564  0.14722166  0.45371363  1
  O  O650  1  0.16120113  0.14946892  0.70258640  1
  O  O651  1  0.16286178  0.14747628  0.95188479  1
  O  O652  1  0.16165149  0.48215024  0.20389662  1
  O  O653  1  0.16192467  0.48169990  0.45214245  1
  O  O654  1  0.16056318  0.48101539  0.70110387  1
  O  O655  1  0.16222557  0.48158341  0.95242355  1
  O  O656  1  0.16487482  0.81411230  0.20245437  1
  O  O657  1  0.16348067  0.81635001  0.45300427  1
  O  O658  1  0.16378250  0.81472326  0.70230919  1
  O  O659  1  0.16369940  0.81578864  0.95172537  1
  O  O660  1  0.66100655  0.14876932  0.20294637  1
  O  O661  1  0.66086183  0.14872381  0.45242926  1
  O  O662  1  0.66209442  0.14832373  0.70325377  1
  O  O663  1  0.66450505  0.14802874  0.95265727  1
  O  O664  1  0.66459611  0.48336791  0.20235573  1
  O  O665  1  0.66485147  0.48061074  0.45198423  1
  O  O666  1  0.66465720  0.48205277  0.70240849  1
  O  O667  1  0.66546053  0.48188911  0.95216307  1
  O  O668  1  0.66082023  0.81334561  0.20270771  1
  O  O669  1  0.66062077  0.81640776  0.45282373  1
  O  O670  1  0.66259079  0.81472849  0.70220457  1
  O  O671  1  0.66277219  0.81540352  0.95289303  1
