# generated using pymatgen
data_Na2MnFe(PO4)2
_symmetry_space_group_name_H-M   'P 1'
_cell_length_a   21.08512794
_cell_length_b   18.93814625
_cell_length_c   20.04438302
_cell_angle_alpha   89.99994495
_cell_angle_beta   89.99802148
_cell_angle_gamma   89.99847094
_symmetry_Int_Tables_number   1
_chemical_formula_structural   Na2MnFe(PO4)2
_chemical_formula_sum   'Na96 Mn48 Fe48 P96 O384'
_cell_volume   8003.98745583
_cell_formula_units_Z   48
loop_
 _symmetry_equiv_pos_site_id
 _symmetry_equiv_pos_as_xyz
  1  'x, y, z'
loop_
 _atom_site_type_symbol
 _atom_site_label
 _atom_site_symmetry_multiplicity
 _atom_site_fract_x
 _atom_site_fract_y
 _atom_site_fract_z
 _atom_site_occupancy
  Na  Na0  1  -0.00299615  -0.00066404  0.00045259  1
  Na  Na1  1  -0.00386439  -0.00069888  0.24945073  1
  Na  Na2  1  -0.00296060  -0.00002909  0.49996719  1
  Na  Na3  1  -0.00308105  -0.00047850  0.74948627  1
  Na  Na4  1  -0.00024933  0.33307468  0.00125166  1
  Na  Na5  1  -0.00011787  0.33308592  0.25099888  1
  Na  Na6  1  0.00032247  0.33349815  0.49913061  1
  Na  Na7  1  0.00053882  0.33352515  0.74883696  1
  Na  Na8  1  -0.00227804  0.66617710  -0.00051266  1
  Na  Na9  1  0.00126566  0.66736418  0.24959103  1
  Na  Na10  1  -0.00165048  0.66611168  0.49991032  1
  Na  Na11  1  -0.00274146  0.66624167  0.75048297  1
  Na  Na12  1  0.50190315  0.00033231  -0.00103871  1
  Na  Na13  1  0.49902276  -0.00009094  0.25060693  1
  Na  Na14  1  0.49686585  -0.00097852  0.50008346  1
  Na  Na15  1  0.50090806  -0.00005435  0.74997139  1
  Na  Na16  1  0.49876618  0.33292841  0.00011636  1
  Na  Na17  1  0.49913846  0.33347918  0.25106265  1
  Na  Na18  1  0.50023903  0.33348667  0.49993782  1
  Na  Na19  1  0.50110677  0.33384679  0.74895272  1
  Na  Na20  1  0.50011764  0.66620426  0.00111242  1
  Na  Na21  1  0.50090910  0.66627809  0.24989137  1
  Na  Na22  1  0.50215259  0.66622237  0.50034649  1
  Na  Na23  1  0.50279138  0.66751550  0.75008790  1
  Na  Na24  1  0.25123044  0.00003156  0.12391764  1
  Na  Na25  1  0.25232484  0.00095508  0.37540801  1
  Na  Na26  1  0.25318870  0.00069925  0.62588506  1
  Na  Na27  1  0.25265027  0.00042741  0.87509876  1
  Na  Na28  1  0.25222690  0.33389989  0.12488577  1
  Na  Na29  1  0.24964542  0.33311332  0.37411152  1
  Na  Na30  1  0.24908173  0.33288318  0.62544431  1
  Na  Na31  1  0.25159615  0.33393322  0.87507109  1
  Na  Na32  1  0.24955643  0.66677130  0.12466846  1
  Na  Na33  1  0.25068757  0.66695434  0.37533013  1
  Na  Na34  1  0.24988690  0.66662641  0.62521481  1
  Na  Na35  1  0.24907124  0.66716124  0.87517828  1
  Na  Na36  1  0.75194880  0.00020028  0.12462644  1
  Na  Na37  1  0.75307121  0.00116544  0.37467941  1
  Na  Na38  1  0.75106203  0.00034558  0.62535098  1
  Na  Na39  1  0.74985112  -0.00038123  0.87443927  1
  Na  Na40  1  0.75002467  0.33372732  0.12537500  1
  Na  Na41  1  0.74950556  0.33321255  0.37396590  1
  Na  Na42  1  0.75030531  0.33396004  0.62592897  1
  Na  Na43  1  0.74775771  0.33264152  0.87534811  1
  Na  Na44  1  0.75096945  0.66685771  0.12495121  1
  Na  Na45  1  0.74755441  0.66480268  0.37412961  1
  Na  Na46  1  0.74964534  0.66622109  0.62582100  1
  Na  Na47  1  0.75170838  0.66731693  0.87500573  1
  Na  Na48  1  -0.00207043  0.16753165  0.00119843  1
  Na  Na49  1  0.00030684  0.16677543  0.25013707  1
  Na  Na50  1  -0.00044103  0.16726173  0.49879860  1
  Na  Na51  1  -0.00050146  0.16671207  0.74978432  1
  Na  Na52  1  -0.00149410  0.50014830  0.00080353  1
  Na  Na53  1  -0.00207645  0.50021735  0.25039882  1
  Na  Na54  1  -0.00148816  0.49928836  0.49980320  1
  Na  Na55  1  -0.00175517  0.49979718  0.74909978  1
  Na  Na56  1  -0.00112789  0.83281596  -0.00063347  1
  Na  Na57  1  -0.00103461  0.83346990  0.24928288  1
  Na  Na58  1  -0.00245854  0.83424286  0.50054116  1
  Na  Na59  1  -0.00223216  0.83368202  0.74995089  1
  Na  Na60  1  0.49949016  0.16674770  -0.00043793  1
  Na  Na61  1  0.49686234  0.16825401  0.25184119  1
  Na  Na62  1  0.49953651  0.16660594  0.49997629  1
  Na  Na63  1  0.50012518  0.16675706  0.74864066  1
  Na  Na64  1  0.50155700  0.49909075  0.00074466  1
  Na  Na65  1  0.50001384  0.49956701  0.25039543  1
  Na  Na66  1  0.49962055  0.50044141  0.50028457  1
  Na  Na67  1  0.50259258  0.49959291  0.74903125  1
  Na  Na68  1  0.50082065  0.83351727  0.00026767  1
  Na  Na69  1  0.50161938  0.83260883  0.24901252  1
  Na  Na70  1  0.50087393  0.83300231  0.50026245  1
  Na  Na71  1  0.50027935  0.83431492  0.75093430  1
  Na  Na72  1  0.25196809  0.16718333  0.12402257  1
  Na  Na73  1  0.25112950  0.16701686  0.37450998  1
  Na  Na74  1  0.25163548  0.16641445  0.62469749  1
  Na  Na75  1  0.25169590  0.16680277  0.87578396  1
  Na  Na76  1  0.25237691  0.49872915  0.12563710  1
  Na  Na77  1  0.25136885  0.49960603  0.37551955  1
  Na  Na78  1  0.25111397  0.49901633  0.62505996  1
  Na  Na79  1  0.24987652  0.49987140  0.87485481  1
  Na  Na80  1  0.24911874  0.83311104  0.12357560  1
  Na  Na81  1  0.24919430  0.83375576  0.37500763  1
  Na  Na82  1  0.25086774  0.83320833  0.62663556  1
  Na  Na83  1  0.25049741  0.83290350  0.87495711  1
  Na  Na84  1  0.75304794  0.16534080  0.12498065  1
  Na  Na85  1  0.75150747  0.16701917  0.37441532  1
  Na  Na86  1  0.74959103  0.16698741  0.62592174  1
  Na  Na87  1  0.74909995  0.16697572  0.87479029  1
  Na  Na88  1  0.74953015  0.49967456  0.12427073  1
  Na  Na89  1  0.74881891  0.49950027  0.37387526  1
  Na  Na90  1  0.74957692  0.49956081  0.62616426  1
  Na  Na91  1  0.74871382  0.50055744  0.87573440  1
  Na  Na92  1  0.75041543  0.83351041  0.12557251  1
  Na  Na93  1  0.74991758  0.83382936  0.37436865  1
  Na  Na94  1  0.75224608  0.83260315  0.62493931  1
  Na  Na95  1  0.74975341  0.83418698  0.87452539  1
  Mn  Mn96  1  0.14169654  0.58287753  0.99798694  1
  Mn  Mn97  1  0.60815179  0.08412568  0.12335319  1
  Mn  Mn98  1  0.14274902  0.58290748  0.24786435  1
  Mn  Mn99  1  0.60850088  0.41652198  0.62193763  1
  Mn  Mn100  1  0.10687423  0.41672334  0.62230641  1
  Mn  Mn101  1  0.64283190  0.58421404  0.99747909  1
  Mn  Mn102  1  0.35934389  0.08327681  0.00238291  1
  Mn  Mn103  1  0.14227873  0.91739270  0.74857066  1
  Mn  Mn104  1  0.39314416  0.58366871  0.87723647  1
  Mn  Mn105  1  0.60756243  0.08333359  0.37302458  1
  Mn  Mn106  1  0.10768197  0.75008449  0.37309156  1
  Mn  Mn107  1  0.64303922  0.91713236  0.24796332  1
  Mn  Mn108  1  0.60888724  0.75055693  0.62278549  1
  Mn  Mn109  1  0.14166202  0.91691908  0.99715401  1
  Mn  Mn110  1  0.10629492  0.75015969  0.62303497  1
  Mn  Mn111  1  0.10723327  0.08307106  0.87286856  1
  Mn  Mn112  1  0.89261064  0.25003601  0.37744753  1
  Mn  Mn113  1  0.35814023  0.41665169  0.75254579  1
  Mn  Mn114  1  0.89132189  0.58346908  0.37734441  1
  Mn  Mn115  1  0.10716002  0.08273219  0.12302196  1
  Mn  Mn116  1  0.35837521  0.74999206  0.75329134  1
  Mn  Mn117  1  0.14200907  0.91739518  0.49844786  1
  Mn  Mn118  1  0.39289491  0.58425305  0.62757477  1
  Mn  Mn119  1  0.39267066  0.91706079  0.12702044  1
  Mn  Mn120  1  0.85757245  0.41631618  0.00239347  1
  Mn  Mn121  1  0.60751236  0.08305447  0.62201705  1
  Mn  Mn122  1  0.39202245  0.91555794  0.37728014  1
  Mn  Mn123  1  0.39222904  0.24981422  0.62697889  1
  Mn  Mn124  1  0.60840330  0.75004268  0.12198098  1
  Mn  Mn125  1  0.35772251  0.75002360  0.25235994  1
  Mn  Mn126  1  0.10765444  0.08322560  0.62305560  1
  Mn  Mn127  1  0.85699031  0.08353803  0.75253072  1
  Mn  Mn128  1  0.14280635  0.25018740  0.99816370  1
  Mn  Mn129  1  0.85718611  0.41659028  0.75311579  1
  Mn  Mn130  1  0.14189703  0.58289039  0.49806675  1
  Mn  Mn131  1  0.64174593  0.24890073  0.99829668  1
  Mn  Mn132  1  0.85690061  0.74934652  0.50212371  1
  Mn  Mn133  1  0.64203802  0.24966920  0.24772583  1
  Mn  Mn134  1  0.39246399  0.58293556  0.12741881  1
  Mn  Mn135  1  0.14157225  0.91769237  0.24763625  1
  Mn  Mn136  1  0.10773313  0.41725319  0.12343811  1
  Mn  Mn137  1  0.85770040  0.74937650  0.25249397  1
  Mn  Mn138  1  0.64283180  0.91717834  0.49743506  1
  Mn  Mn139  1  0.35863773  0.75007992  0.50250942  1
  Mn  Mn140  1  0.14092073  0.58339788  0.74793377  1
  Mn  Mn141  1  0.10792383  0.08314117  0.37265336  1
  Mn  Mn142  1  0.89154951  0.25031802  0.87736948  1
  Mn  Mn143  1  0.14244866  0.24922223  0.74842401  1
  Fe  Fe144  1  0.89158969  0.91641531  0.87707277  1
  Fe  Fe145  1  0.60776805  0.08343689  0.87321861  1
  Fe  Fe146  1  0.64315649  0.91644314  0.74800823  1
  Fe  Fe147  1  0.35846758  0.41773505  0.00131433  1
  Fe  Fe148  1  0.35752242  0.08336281  0.25158996  1
  Fe  Fe149  1  0.89172887  0.91687892  0.62718342  1
  Fe  Fe150  1  0.89215613  0.91636881  0.12647184  1
  Fe  Fe151  1  0.64285080  0.58246920  0.49791634  1
  Fe  Fe152  1  0.64363532  0.91672354  0.99825123  1
  Fe  Fe153  1  0.89225745  0.58300148  0.87669744  1
  Fe  Fe154  1  0.39268900  0.25001933  0.12713203  1
  Fe  Fe155  1  0.60772209  0.74948475  0.37334401  1
  Fe  Fe156  1  0.60830832  0.74999934  0.87386680  1
  Fe  Fe157  1  0.89238923  0.25056704  0.12736007  1
  Fe  Fe158  1  0.35700681  0.41647759  0.50115677  1
  Fe  Fe159  1  0.10754860  0.41695891  0.87404872  1
  Fe  Fe160  1  0.10644387  0.74993440  0.12293447  1
  Fe  Fe161  1  0.39239393  0.25091469  0.37781142  1
  Fe  Fe162  1  0.35723872  0.08384801  0.50182553  1
  Fe  Fe163  1  0.10580276  0.74976272  0.87331730  1
  Fe  Fe164  1  0.85695431  0.08320221  0.00123877  1
  Fe  Fe165  1  0.14425908  0.25001484  0.24818822  1
  Fe  Fe166  1  0.89236282  0.58295330  0.12726996  1
  Fe  Fe167  1  0.14281573  0.24995131  0.49836900  1
  Fe  Fe168  1  0.85802781  0.08414694  0.25182875  1
  Fe  Fe169  1  0.85680343  0.74991409  0.75205597  1
  Fe  Fe170  1  0.39388344  0.24998963  0.87595821  1
  Fe  Fe171  1  0.64350071  0.58381673  0.74900020  1
  Fe  Fe172  1  0.85739509  0.75063832  0.00175677  1
  Fe  Fe173  1  0.85650388  0.41634729  0.25167442  1
  Fe  Fe174  1  0.60661195  0.41580099  0.12388891  1
  Fe  Fe175  1  0.10748109  0.41696271  0.37312042  1
  Fe  Fe176  1  0.89085762  0.58305673  0.62670309  1
  Fe  Fe177  1  0.35837642  0.08338506  0.75239701  1
  Fe  Fe178  1  0.85730751  0.08477665  0.50205801  1
  Fe  Fe179  1  0.39454557  0.91627235  0.87686176  1
  Fe  Fe180  1  0.64232405  0.58262306  0.24828216  1
  Fe  Fe181  1  0.60721087  0.41654414  0.87388477  1
  Fe  Fe182  1  0.85668578  0.41614905  0.50071166  1
  Fe  Fe183  1  0.35805235  0.41649963  0.25283708  1
  Fe  Fe184  1  0.60709363  0.41673135  0.37347432  1
  Fe  Fe185  1  0.39381478  0.58321109  0.37694644  1
  Fe  Fe186  1  0.64182840  0.24983557  0.74817628  1
  Fe  Fe187  1  0.89227206  0.91636693  0.37700196  1
  Fe  Fe188  1  0.39277660  0.91607029  0.62737026  1
  Fe  Fe189  1  0.64328613  0.25023170  0.49828242  1
  Fe  Fe190  1  0.35730571  0.74947463  0.00124533  1
  Fe  Fe191  1  0.89208595  0.25018914  0.62625842  1
  P  P192  1  0.05357946  0.25010910  0.11187782  1
  P  P193  1  0.05603464  0.25072940  0.36045480  1
  P  P194  1  0.05256018  0.24968352  0.60907680  1
  P  P195  1  0.05289527  0.25072828  0.86032347  1
  P  P196  1  0.05181083  0.58369099  0.11029318  1
  P  P197  1  0.05305822  0.58221566  0.35998314  1
  P  P198  1  0.05061513  0.58336770  0.60999086  1
  P  P199  1  0.05150371  0.58314862  0.86039167  1
  P  P200  1  0.05159128  0.91620917  0.10981056  1
  P  P201  1  0.05148722  0.91718260  0.35992454  1
  P  P202  1  0.05122993  0.91706125  0.61039764  1
  P  P203  1  0.05103953  0.91614921  0.86004890  1
  P  P204  1  0.55177162  0.25060960  0.11057462  1
  P  P205  1  0.55357516  0.25088731  0.36176114  1
  P  P206  1  0.55498736  0.24969308  0.60966139  1
  P  P207  1  0.55305824  0.24992503  0.85952174  1
  P  P208  1  0.55501991  0.58193400  0.11141390  1
  P  P209  1  0.55470349  0.58238607  0.36083868  1
  P  P210  1  0.55603170  0.58363991  0.61048562  1
  P  P211  1  0.55457478  0.58367589  0.85982180  1
  P  P212  1  0.55473700  0.91739763  0.10906174  1
  P  P213  1  0.55350343  0.91616056  0.36001938  1
  P  P214  1  0.55350391  0.91676064  0.61085051  1
  P  P215  1  0.55553436  0.91639362  0.86100760  1
  P  P216  1  0.44671125  0.08412719  0.14091420  1
  P  P217  1  0.44448139  0.08420040  0.38971105  1
  P  P218  1  0.44463476  0.08258143  0.63934758  1
  P  P219  1  0.44756933  0.08313749  0.88819944  1
  P  P220  1  0.44582916  0.41596151  0.13991114  1
  P  P221  1  0.44603744  0.41694750  0.38969631  1
  P  P222  1  0.44558764  0.41664652  0.63850165  1
  P  P223  1  0.44798638  0.41639142  0.89000885  1
  P  P224  1  0.44596180  0.74985936  0.13894899  1
  P  P225  1  0.44858151  0.74865994  0.38984928  1
  P  P226  1  0.44748282  0.75063361  0.64063584  1
  P  P227  1  0.44839991  0.75059216  0.89078073  1
  P  P228  1  0.94416231  0.08358378  0.13916938  1
  P  P229  1  0.94483322  0.08314077  0.38939939  1
  P  P230  1  0.94462663  0.08446793  0.63868290  1
  P  P231  1  0.94535720  0.08285674  0.89068282  1
  P  P232  1  0.94557391  0.41653320  0.14093182  1
  P  P233  1  0.94579658  0.41644663  0.38939414  1
  P  P234  1  0.94388306  0.41605968  0.63821150  1
  P  P235  1  0.94766518  0.41699694  0.89022309  1
  P  P236  1  0.94571301  0.74981139  0.13844489  1
  P  P237  1  0.94632474  0.75043646  0.39005599  1
  P  P238  1  0.94439335  0.74959983  0.64065124  1
  P  P239  1  0.94470013  0.74998905  0.88904248  1
  P  P240  1  0.19816671  0.08451346  0.23467840  1
  P  P241  1  0.19792630  0.08401846  0.48524867  1
  P  P242  1  0.19849480  0.08320678  0.73522224  1
  P  P243  1  0.19724556  0.08348012  0.98484903  1
  P  P244  1  0.19746267  0.41586270  0.23631798  1
  P  P245  1  0.19685076  0.41593806  0.48444035  1
  P  P246  1  0.19510691  0.41656120  0.73597327  1
  P  P247  1  0.19787288  0.41669367  0.98484898  1
  P  P248  1  0.19566260  0.75014623  0.23388159  1
  P  P249  1  0.19691408  0.75028051  0.48550577  1
  P  P250  1  0.19488733  0.75029686  0.73632844  1
  P  P251  1  0.19516441  0.74981541  0.98518466  1
  P  P252  1  0.69854875  0.08353578  0.23501125  1
  P  P253  1  0.69825254  0.08434873  0.48493225  1
  P  P254  1  0.69454185  0.08304016  0.73619558  1
  P  P255  1  0.69732541  0.08255114  0.98459302  1
  P  P256  1  0.69522174  0.41694578  0.23550125  1
  P  P257  1  0.69729670  0.41629620  0.48385133  1
  P  P258  1  0.69463272  0.41673321  0.73710466  1
  P  P259  1  0.69475677  0.41612349  0.98584428  1
  P  P260  1  0.69527647  0.74905728  0.23604826  1
  P  P261  1  0.69629422  0.74919146  0.48424526  1
  P  P262  1  0.69671695  0.75032553  0.73667912  1
  P  P263  1  0.69805725  0.75092740  0.98445769  1
  P  P264  1  0.30654180  0.25133799  0.01403697  1
  P  P265  1  0.30525909  0.25009053  0.26426310  1
  P  P266  1  0.30353858  0.25090603  0.51365781  1
  P  P267  1  0.30457687  0.24933234  0.76565847  1
  P  P268  1  0.30365246  0.58353373  0.01476226  1
  P  P269  1  0.30461107  0.58270762  0.26597082  1
  P  P270  1  0.30491073  0.58238203  0.51407911  1
  P  P271  1  0.30300670  0.58341316  0.76556690  1
  P  P272  1  0.30516672  0.91542249  0.01326825  1
  P  P273  1  0.30304326  0.91724092  0.26464289  1
  P  P274  1  0.30415845  0.91717130  0.51613914  1
  P  P275  1  0.30585197  0.91728713  0.76532091  1
  P  P276  1  0.80357318  0.24929857  0.01570922  1
  P  P277  1  0.80471409  0.25055871  0.26378589  1
  P  P278  1  0.80265331  0.25062336  0.51517279  1
  P  P279  1  0.80231167  0.25008160  0.76424071  1
  P  P280  1  0.80544660  0.58403998  0.01435830  1
  P  P281  1  0.80302806  0.58204754  0.26354235  1
  P  P282  1  0.80182265  0.58192312  0.51521097  1
  P  P283  1  0.80378807  0.58373871  0.76486724  1
  P  P284  1  0.80403623  0.91657694  0.01398372  1
  P  P285  1  0.80575128  0.91728346  0.26430093  1
  P  P286  1  0.80498601  0.91767746  0.51440857  1
  P  P287  1  0.80396441  0.91616652  0.76446853  1
  O  O288  1  0.05924197  0.25001740  0.18847997  1
  O  O289  1  0.06019843  0.24991338  0.43722912  1
  O  O290  1  0.05669031  0.24949411  0.68578943  1
  O  O291  1  0.05611015  0.25003913  0.93712287  1
  O  O292  1  0.05615502  0.58301451  0.18692664  1
  O  O293  1  0.05606852  0.58227364  0.43675698  1
  O  O294  1  0.05459500  0.58321225  0.68667839  1
  O  O295  1  0.05512958  0.58315324  0.93707168  1
  O  O296  1  0.05545817  0.91713391  0.18650053  1
  O  O297  1  0.05550401  0.91770859  0.43662294  1
  O  O298  1  0.05573927  0.91737636  0.68702607  1
  O  O299  1  0.05503419  0.91678055  0.93673943  1
  O  O300  1  0.55548435  0.24994859  0.18727406  1
  O  O301  1  0.55907175  0.25002261  0.43839575  1
  O  O302  1  0.55929630  0.24995597  0.68641841  1
  O  O303  1  0.55607612  0.24955505  0.93628178  1
  O  O304  1  0.55872537  0.58279785  0.18816280  1
  O  O305  1  0.55912866  0.58223033  0.43764091  1
  O  O306  1  0.56072046  0.58361444  0.68711359  1
  O  O307  1  0.55691697  0.58373911  0.93674715  1
  O  O308  1  0.55785275  0.91726984  0.18585368  1
  O  O309  1  0.55656658  0.91713449  0.43682826  1
  O  O310  1  0.55880137  0.91673138  0.68751465  1
  O  O311  1  0.56018549  0.91648038  0.93770261  1
  O  O312  1  0.44451948  0.08316230  0.06401981  1
  O  O313  1  0.44063052  0.08359984  0.31293079  1
  O  O314  1  0.44041598  0.08365437  0.56252293  1
  O  O315  1  0.44334501  0.08311522  0.81154258  1
  O  O316  1  0.44174081  0.41709974  0.06319367  1
  O  O317  1  0.44180162  0.41660016  0.31290263  1
  O  O318  1  0.44124754  0.41646094  0.56202943  1
  O  O319  1  0.44459359  0.41726751  0.81327488  1
  O  O320  1  0.44130615  0.74968971  0.06226233  1
  O  O321  1  0.44469197  0.74937776  0.31316092  1
  O  O322  1  0.44435096  0.74970294  0.56386100  1
  O  O323  1  0.44476015  0.75002209  0.81407626  1
  O  O324  1  0.94034039  0.08367783  0.06239149  1
  O  O325  1  0.94112168  0.08440835  0.31258975  1
  O  O326  1  0.94094462  0.08482624  0.56185979  1
  O  O327  1  0.94242841  0.08361954  0.81390096  1
  O  O328  1  0.94288990  0.41617940  0.06423715  1
  O  O329  1  0.94066980  0.41640607  0.31277515  1
  O  O330  1  0.93987130  0.41605632  0.56147472  1
  O  O331  1  0.94382484  0.41624742  0.81345748  1
  O  O332  1  0.94135442  0.74995413  0.06174378  1
  O  O333  1  0.94361615  0.74949960  0.31324163  1
  O  O334  1  0.94189817  0.74941313  0.56384311  1
  O  O335  1  0.94021990  0.75023532  0.81233765  1
  O  O336  1  0.19329400  0.08328555  0.06159087  1
  O  O337  1  0.19432130  0.08359638  0.31138881  1
  O  O338  1  0.19405010  0.08333902  0.56192969  1
  O  O339  1  0.19396006  0.08298113  0.81187386  1
  O  O340  1  0.19375652  0.41669626  0.06159002  1
  O  O341  1  0.19220814  0.41687358  0.31287175  1
  O  O342  1  0.19303223  0.41657582  0.56121395  1
  O  O343  1  0.19045628  0.41699930  0.81272728  1
  O  O344  1  0.18975605  0.74989389  0.06188468  1
  O  O345  1  0.19259589  0.75008908  0.31072129  1
  O  O346  1  0.19320910  0.75017698  0.56229445  1
  O  O347  1  0.18948769  0.75020069  0.81307477  1
  O  O348  1  0.69405362  0.08340726  0.06129337  1
  O  O349  1  0.69406254  0.08379776  0.31164649  1
  O  O350  1  0.69424683  0.08343241  0.56162906  1
  O  O351  1  0.69070056  0.08329966  0.81301959  1
  O  O352  1  0.69063626  0.41586347  0.06262687  1
  O  O353  1  0.69055627  0.41620352  0.31208798  1
  O  O354  1  0.69425982  0.41632252  0.56138235  1
  O  O355  1  0.69060479  0.41647183  0.81354371  1
  O  O356  1  0.69443615  0.75012518  0.06119098  1
  O  O357  1  0.69104697  0.74952408  0.31278454  1
  O  O358  1  0.69423082  0.75027854  0.56112464  1
  O  O359  1  0.69240554  0.75039681  0.81332176  1
  O  O360  1  0.30924647  0.25045624  0.18750024  1
  O  O361  1  0.30787807  0.25103851  0.43687217  1
  O  O362  1  0.30707655  0.25016533  0.68901567  1
  O  O363  1  0.31099240  0.25038582  0.93731357  1
  O  O364  1  0.30733653  0.58321273  0.18917194  1
  O  O365  1  0.30950563  0.58352921  0.43734106  1
  O  O366  1  0.30669277  0.58355904  0.68881524  1
  O  O367  1  0.30658873  0.58364499  0.93802997  1
  O  O368  1  0.30618903  0.91627356  0.18788578  1
  O  O369  1  0.30693400  0.91596423  0.43927648  1
  O  O370  1  0.30969576  0.91613400  0.68855271  1
  O  O371  1  0.31019664  0.91600615  0.93657821  1
  O  O372  1  0.80859636  0.25060480  0.18706761  1
  O  O373  1  0.80631572  0.25057434  0.43845685  1
  O  O374  1  0.80747651  0.25028485  0.68762534  1
  O  O375  1  0.80599293  0.25045955  0.93888551  1
  O  O376  1  0.80800187  0.58293170  0.18686557  1
  O  O377  1  0.80519845  0.58256794  0.43849053  1
  O  O378  1  0.80785264  0.58283765  0.68809311  1
  O  O379  1  0.80932775  0.58291556  0.93756668  1
  O  O380  1  0.80936249  0.91615093  0.18742944  1
  O  O381  1  0.80862686  0.91668694  0.43760240  1
  O  O382  1  0.80851539  0.91677275  0.68773087  1
  O  O383  1  0.80797466  0.91638578  0.93721336  1
  O  O384  1  0.23642259  0.25053085  0.03811434  1
  O  O385  1  0.23497950  0.25030773  0.28832784  1
  O  O386  1  0.23332218  0.25030938  0.53802933  1
  O  O387  1  0.23493699  0.24995578  0.79118613  1
  O  O388  1  0.23412750  0.58285537  0.04049033  1
  O  O389  1  0.23487797  0.58316268  0.29103585  1
  O  O390  1  0.23486105  0.58255182  0.53841755  1
  O  O391  1  0.23321981  0.58345411  0.79030935  1
  O  O392  1  0.23499658  0.91619345  0.03701287  1
  O  O393  1  0.23345085  0.91745616  0.29012484  1
  O  O394  1  0.23451904  0.91690284  0.54160634  1
  O  O395  1  0.23580005  0.91682860  0.78962558  1
  O  O396  1  0.73393017  0.24943993  0.04117239  1
  O  O397  1  0.73480693  0.25039275  0.28828573  1
  O  O398  1  0.73252730  0.25055112  0.53981021  1
  O  O399  1  0.73193752  0.24985032  0.78780606  1
  O  O400  1  0.73530303  0.58346962  0.03840301  1
  O  O401  1  0.73274487  0.58193511  0.28722227  1
  O  O402  1  0.73178792  0.58253801  0.54002121  1
  O  O403  1  0.73350990  0.58359419  0.78883254  1
  O  O404  1  0.73379252  0.91660740  0.03830097  1
  O  O405  1  0.73578361  0.91730188  0.28870330  1
  O  O406  1  0.73504918  0.91667823  0.53907778  1
  O  O407  1  0.73356725  0.91697204  0.78795384  1
  O  O408  1  0.26818309  0.08407014  0.21002154  1
  O  O409  1  0.26803790  0.08400598  0.46083279  1
  O  O410  1  0.26865526  0.08345468  0.71128418  1
  O  O411  1  0.26728103  0.08348856  0.96073018  1
  O  O412  1  0.26797075  0.41595852  0.21306844  1
  O  O413  1  0.26695362  0.41635509  0.46006746  1
  O  O414  1  0.26519978  0.41608509  0.71216808  1
  O  O415  1  0.26810587  0.41710166  0.96081204  1
  O  O416  1  0.26548604  0.74992225  0.20912310  1
  O  O417  1  0.26670453  0.75043292  0.46064961  1
  O  O418  1  0.26521404  0.75021689  0.71323520  1
  O  O419  1  0.26574973  0.74980533  0.96212513  1
  O  O420  1  0.76869431  0.08335486  0.21102539  1
  O  O421  1  0.76835083  0.08450216  0.46059236  1
  O  O422  1  0.76447716  0.08301221  0.71191196  1
  O  O423  1  0.76733898  0.08324405  0.95982133  1
  O  O424  1  0.76563124  0.41655332  0.21181618  1
  O  O425  1  0.76718860  0.41617575  0.45935141  1
  O  O426  1  0.76456114  0.41683886  0.71255126  1
  O  O427  1  0.76480566  0.41637754  0.96173161  1
  O  O428  1  0.76530450  0.74976592  0.21182351  1
  O  O429  1  0.76580952  0.74935639  0.45847899  1
  O  O430  1  0.76690405  0.74990002  0.71234348  1
  O  O431  1  0.76813189  0.75076335  0.96010946  1
  O  O432  1  0.01415030  0.08324747  0.16378362  1
  O  O433  1  0.01484710  0.08389090  0.41367708  1
  O  O434  1  0.01442058  0.08357332  0.66366854  1
  O  O435  1  0.01495193  0.08340996  0.91614022  1
  O  O436  1  0.01531962  0.41671307  0.16618845  1
  O  O437  1  0.01620522  0.41624537  0.41277431  1
  O  O438  1  0.01386266  0.41630756  0.66258387  1
  O  O439  1  0.01753074  0.41695616  0.91531202  1
  O  O440  1  0.01592975  0.75007627  0.16264032  1
  O  O441  1  0.01571485  0.75014536  0.41589573  1
  O  O442  1  0.01395308  0.74984984  0.66628114  1
  O  O443  1  0.01507553  0.74968875  0.91290390  1
  O  O444  1  0.51616251  0.08407360  0.16682116  1
  O  O445  1  0.51452110  0.08323946  0.41410407  1
  O  O446  1  0.51480096  0.08334593  0.66310222  1
  O  O447  1  0.51788101  0.08308307  0.91243494  1
  O  O448  1  0.51604042  0.41643124  0.16417894  1
  O  O449  1  0.51638734  0.41688627  0.41355309  1
  O  O450  1  0.51612418  0.41671238  0.66230507  1
  O  O451  1  0.51807214  0.41646924  0.91466172  1
  O  O452  1  0.51612387  0.74966486  0.16259922  1
  O  O453  1  0.51863022  0.74905892  0.41448814  1
  O  O454  1  0.51719815  0.75085189  0.66561012  1
  O  O455  1  0.51859018  0.74992063  0.91516535  1
  O  O456  1  0.48192724  0.25005279  0.08567846  1
  O  O457  1  0.48302915  0.25111338  0.33875768  1
  O  O458  1  0.48506438  0.24972292  0.58598523  1
  O  O459  1  0.48307149  0.25014513  0.83440440  1
  O  O460  1  0.48515859  0.58243679  0.08689366  1
  O  O461  1  0.48435994  0.58242631  0.33694854  1
  O  O462  1  0.48599524  0.58351915  0.58684651  1
  O  O463  1  0.48503371  0.58368037  0.83408357  1
  O  O464  1  0.48500183  0.91723525  0.08421861  1
  O  O465  1  0.48383336  0.91615479  0.33478216  1
  O  O466  1  0.48316612  0.91641458  0.58744107  1
  O  O467  1  0.48504582  0.91670303  0.83744175  1
  O  O468  1  0.98297667  0.25043652  0.08900533  1
  O  O469  1  0.98571819  0.24995657  0.33700591  1
  O  O470  1  0.98240800  0.25036901  0.58485244  1
  O  O471  1  0.98323558  0.25019917  0.83495822  1
  O  O472  1  0.98163251  0.58298900  0.08618393  1
  O  O473  1  0.98335016  0.58316227  0.33485973  1
  O  O474  1  0.98046396  0.58301834  0.58569464  1
  O  O475  1  0.98139518  0.58328429  0.83569317  1
  O  O476  1  0.98138580  0.91630490  0.08559852  1
  O  O477  1  0.98145353  0.91679917  0.33543702  1
  O  O478  1  0.98089714  0.91707385  0.58671219  1
  O  O479  1  0.98083824  0.91640386  0.83585537  1
  O  O480  1  0.08678841  0.31514673  0.07838507  1
  O  O481  1  0.08909603  0.31616508  0.32759540  1
  O  O482  1  0.08689085  0.31449937  0.57628679  1
  O  O483  1  0.08672959  0.31606020  0.82828056  1
  O  O484  1  0.08503148  0.64884051  0.07728349  1
  O  O485  1  0.08761677  0.64711990  0.32781821  1
  O  O486  1  0.08432744  0.64846327  0.57736526  1
  O  O487  1  0.08508062  0.64837812  0.82766619  1
  O  O488  1  0.08524857  0.98121093  0.07671262  1
  O  O489  1  0.08491833  0.98232825  0.32672355  1
  O  O490  1  0.08474460  0.98201745  0.57710385  1
  O  O491  1  0.08477039  0.98123110  0.82707015  1
  O  O492  1  0.58544809  0.31577130  0.07806739  1
  O  O493  1  0.58670868  0.31596169  0.32847367  1
  O  O494  1  0.58877363  0.31486571  0.57643492  1
  O  O495  1  0.58708107  0.31503142  0.82713764  1
  O  O496  1  0.58901958  0.64665947  0.07801478  1
  O  O497  1  0.58832359  0.64730193  0.32758590  1
  O  O498  1  0.58976778  0.64833297  0.57719830  1
  O  O499  1  0.58906542  0.64885354  0.82788633  1
  O  O500  1  0.58887029  0.98246048  0.07668965  1
  O  O501  1  0.58747484  0.98133101  0.32743881  1
  O  O502  1  0.58638986  0.98183283  0.57708890  1
  O  O503  1  0.58887515  0.98132210  0.82745180  1
  O  O504  1  0.41205856  0.01923079  0.17319349  1
  O  O505  1  0.41013651  0.01952958  0.42267613  1
  O  O506  1  0.41162153  0.01721536  0.67225528  1
  O  O507  1  0.41425815  0.01816870  0.92168813  1
  O  O508  1  0.41260060  0.35061371  0.17274982  1
  O  O509  1  0.41230343  0.35207243  0.42304054  1
  O  O510  1  0.41264472  0.35156984  0.67188941  1
  O  O511  1  0.41406701  0.35130337  0.92229834  1
  O  O512  1  0.41259527  0.68491427  0.17233509  1
  O  O513  1  0.41510449  0.68348788  0.42258473  1
  O  O514  1  0.41372091  0.68559036  0.67355169  1
  O  O515  1  0.41399305  0.68582447  0.92360776  1
  O  O516  1  0.91023970  0.01844337  0.17170791  1
  O  O517  1  0.91123578  0.01790393  0.42174453  1
  O  O518  1  0.91021302  0.01956338  0.67114638  1
  O  O519  1  0.91114702  0.01753889  0.92259177  1
  O  O520  1  0.91132376  0.35161167  0.17359610  1
  O  O521  1  0.91238960  0.35148727  0.42292987  1
  O  O522  1  0.91061238  0.35078063  0.67142175  1
  O  O523  1  0.91362786  0.35207831  0.92304397  1
  O  O524  1  0.91245131  0.68461418  0.17174309  1
  O  O525  1  0.91176619  0.68548725  0.42234425  1
  O  O526  1  0.91006490  0.68445429  0.67282945  1
  O  O527  1  0.91113390  0.68500894  0.92212697  1
  O  O528  1  0.16394825  0.01968107  0.20172740  1
  O  O529  1  0.16429410  0.01893276  0.45217823  1
  O  O530  1  0.16491219  0.01816979  0.70209351  1
  O  O531  1  0.16346770  0.01848593  0.95195010  1
  O  O532  1  0.16440565  0.35069628  0.20296857  1
  O  O533  1  0.16313166  0.35080280  0.45187911  1
  O  O534  1  0.16148988  0.35144436  0.70304573  1
  O  O535  1  0.16423739  0.35164409  0.95194303  1
  O  O536  1  0.16138734  0.68506141  0.20145987  1
  O  O537  1  0.16309374  0.68509435  0.45299018  1
  O  O538  1  0.16164237  0.68526809  0.70284523  1
  O  O539  1  0.16187855  0.68467596  0.95192794  1
  O  O540  1  0.66494255  0.01858474  0.20208167  1
  O  O541  1  0.66472794  0.01926086  0.45185404  1
  O  O542  1  0.66121551  0.01772464  0.70329168  1
  O  O543  1  0.66367335  0.01738695  0.95201308  1
  O  O544  1  0.66161566  0.35201272  0.20190568  1
  O  O545  1  0.66304922  0.35143598  0.45173742  1
  O  O546  1  0.66109740  0.35169193  0.70354817  1
  O  O547  1  0.66110970  0.35113696  0.95279714  1
  O  O548  1  0.66221508  0.68372153  0.20310462  1
  O  O549  1  0.66207103  0.68382381  0.45267465  1
  O  O550  1  0.66316894  0.68531297  0.70367487  1
  O  O551  1  0.66414481  0.68597071  0.95143206  1
  O  O552  1  0.33957715  0.31679448  0.04688016  1
  O  O553  1  0.33899117  0.31492328  0.29781900  1
  O  O554  1  0.33663859  0.31603020  0.54686914  1
  O  O555  1  0.33935186  0.31406571  0.79827153  1
  O  O556  1  0.33753533  0.64884913  0.04705763  1
  O  O557  1  0.33914685  0.64757192  0.29849990  1
  O  O558  1  0.33850642  0.64732403  0.54758397  1
  O  O559  1  0.33709129  0.64833676  0.79830927  1
  O  O560  1  0.33885728  0.98042519  0.04653179  1
  O  O561  1  0.33745490  0.98236137  0.29644392  1
  O  O562  1  0.33834401  0.98258380  0.54768860  1
  O  O563  1  0.33952710  0.98268286  0.79766088  1
  O  O564  1  0.83807905  0.31409833  0.04838052  1
  O  O565  1  0.83812783  0.31571705  0.29689231  1
  O  O566  1  0.83634910  0.31574894  0.54785103  1
  O  O567  1  0.83538329  0.31501879  0.79801451  1
  O  O568  1  0.83855919  0.64954666  0.04690772  1
  O  O569  1  0.83604534  0.64709281  0.29728922  1
  O  O570  1  0.83600568  0.64679833  0.54809483  1
  O  O571  1  0.83732082  0.64884536  0.79757181  1
  O  O572  1  0.83757853  0.98172604  0.04678660  1
  O  O573  1  0.83958477  0.98241644  0.29665846  1
  O  O574  1  0.83816089  0.98316553  0.54696611  1
  O  O575  1  0.83770115  0.98086438  0.79799905  1
  O  O576  1  0.41210621  0.14923914  0.17254768  1
  O  O577  1  0.41134130  0.14974273  0.42248124  1
  O  O578  1  0.41078473  0.14732253  0.67269750  1
  O  O579  1  0.41427742  0.14827346  0.92128269  1
  O  O580  1  0.41193109  0.48057455  0.17356189  1
  O  O581  1  0.41262655  0.48208030  0.42265003  1
  O  O582  1  0.41249726  0.48160660  0.67206393  1
  O  O583  1  0.41417360  0.48131412  0.92325814  1
  O  O584  1  0.41285790  0.81506672  0.17221130  1
  O  O585  1  0.41465081  0.81364047  0.42273451  1
  O  O586  1  0.41321598  0.81567083  0.67274389  1
  O  O587  1  0.41473600  0.81581695  0.92327397  1
  O  O588  1  0.91069939  0.14871034  0.17241514  1
  O  O589  1  0.91076050  0.14792504  0.42278013  1
  O  O590  1  0.91135471  0.14985687  0.67161784  1
  O  O591  1  0.91058769  0.14755387  0.92323759  1
  O  O592  1  0.91114107  0.48167884  0.17304143  1
  O  O593  1  0.91218761  0.48128943  0.42279156  1
  O  O594  1  0.91013674  0.48111046  0.67122204  1
  O  O595  1  0.91344150  0.48200875  0.92242848  1
  O  O596  1  0.91208352  0.81479192  0.17147583  1
  O  O597  1  0.91200700  0.81558503  0.42181260  1
  O  O598  1  0.90991624  0.81467259  0.67283327  1
  O  O599  1  0.91148910  0.81510802  0.92251366  1
  O  O600  1  0.08636063  0.18506919  0.07800507  1
  O  O601  1  0.08989936  0.18603829  0.32690353  1
  O  O602  1  0.08621635  0.18454072  0.57620052  1
  O  O603  1  0.08706608  0.18566495  0.82765526  1
  O  O604  1  0.08571330  0.51869072  0.07736578  1
  O  O605  1  0.08670012  0.51686419  0.32742326  1
  O  O606  1  0.08467166  0.51846766  0.57719676  1
  O  O607  1  0.08518947  0.51799395  0.82772419  1
  O  O608  1  0.08524903  0.85111540  0.07721536  1
  O  O609  1  0.08543939  0.85215736  0.32742651  1
  O  O610  1  0.08453268  0.85188572  0.57748366  1
  O  O611  1  0.08464327  0.85098451  0.82753879  1
  O  O612  1  0.58594350  0.18575452  0.07766831  1
  O  O613  1  0.58633944  0.18580507  0.32771712  1
  O  O614  1  0.58877689  0.18495309  0.57646133  1
  O  O615  1  0.58706040  0.18490280  0.82677938  1
  O  O616  1  0.58842500  0.51659831  0.07897439  1
  O  O617  1  0.58797627  0.51718523  0.32761235  1
  O  O618  1  0.58950107  0.51838998  0.57687438  1
  O  O619  1  0.58892224  0.51864646  0.82774779  1
  O  O620  1  0.58914575  0.85252025  0.07644046  1
  O  O621  1  0.58769902  0.85100578  0.32811248  1
  O  O622  1  0.58719045  0.85195605  0.57763323  1
  O  O623  1  0.58854504  0.85108252  0.82767307  1
  O  O624  1  0.34059972  0.18658417  0.04746602  1
  O  O625  1  0.33859767  0.18489911  0.29721733  1
  O  O626  1  0.33738038  0.18592098  0.54646080  1
  O  O627  1  0.33878106  0.18407685  0.79776598  1
  O  O628  1  0.33831976  0.51850846  0.04683744  1
  O  O629  1  0.33877015  0.51752624  0.29811076  1
  O  O630  1  0.33822853  0.51691202  0.54648959  1
  O  O631  1  0.33707960  0.51831815  0.79795523  1
  O  O632  1  0.33810143  0.85007628  0.04636863  1
  O  O633  1  0.33699476  0.85215346  0.29752632  1
  O  O634  1  0.33886908  0.85247832  0.54887876  1
  O  O635  1  0.33999012  0.85265494  0.79879384  1
  O  O636  1  0.83791329  0.18404062  0.04726244  1
  O  O637  1  0.83853371  0.18557734  0.29670942  1
  O  O638  1  0.83665080  0.18573470  0.54811297  1
  O  O639  1  0.83561635  0.18509758  0.79747454  1
  O  O640  1  0.83924680  0.51930544  0.04780900  1
  O  O641  1  0.83635425  0.51699549  0.29667538  1
  O  O642  1  0.83550629  0.51672949  0.54765228  1
  O  O643  1  0.83730422  0.51891690  0.79854162  1
  O  O644  1  0.83754177  0.85155735  0.04729740  1
  O  O645  1  0.83930645  0.85228152  0.29764894  1
  O  O646  1  0.83919980  0.85293262  0.54752612  1
  O  O647  1  0.83691975  0.85094714  0.79771611  1
  O  O648  1  0.16466109  0.14989094  0.20227293  1
  O  O649  1  0.16423632  0.14907885  0.45258150  1
  O  O650  1  0.16472909  0.14823492  0.70231638  1
  O  O651  1  0.16360385  0.14869185  0.95236955  1
  O  O652  1  0.16440499  0.48085013  0.20238697  1
  O  O653  1  0.16267406  0.48077987  0.45145657  1
  O  O654  1  0.16181692  0.48159500  0.70245570  1
  O  O655  1  0.16365818  0.48152866  0.95200287  1
  O  O656  1  0.16145690  0.81517648  0.20140089  1
  O  O657  1  0.16285473  0.81538020  0.45307421  1
  O  O658  1  0.16180507  0.81553641  0.70308340  1
  O  O659  1  0.16180683  0.81470275  0.95152453  1
  O  O660  1  0.66505931  0.14862309  0.20187394  1
  O  O661  1  0.66438996  0.14939674  0.45236270  1
  O  O662  1  0.66096421  0.14809983  0.70325914  1
  O  O663  1  0.66276695  0.14729867  0.95178427  1
  O  O664  1  0.66188608  0.48195418  0.20221959  1
  O  O665  1  0.66322911  0.48132099  0.45182836  1
  O  O666  1  0.66127695  0.48204466  0.70395655  1
  O  O667  1  0.66103304  0.48112746  0.95285256  1
  O  O668  1  0.66167092  0.81408111  0.20292597  1
  O  O669  1  0.66170424  0.81398466  0.45178141  1
  O  O670  1  0.66372091  0.81558676  0.70322309  1
  O  O671  1  0.66399565  0.81583342  0.95194251  1
