# generated using pymatgen
data_Na2MnFe(PO4)2
_symmetry_space_group_name_H-M   'P 1'
_cell_length_a   21.08229955
_cell_length_b   18.93423455
_cell_length_c   20.04145583
_cell_angle_alpha   89.99972887
_cell_angle_beta   89.99696293
_cell_angle_gamma   90.00163512
_symmetry_Int_Tables_number   1
_chemical_formula_structural   Na2MnFe(PO4)2
_chemical_formula_sum   'Na96 Mn48 Fe48 P96 O384'
_cell_volume   8000.09230203
_cell_formula_units_Z   48
loop_
 _symmetry_equiv_pos_site_id
 _symmetry_equiv_pos_as_xyz
  1  'x, y, z'
loop_
 _atom_site_type_symbol
 _atom_site_label
 _atom_site_symmetry_multiplicity
 _atom_site_fract_x
 _atom_site_fract_y
 _atom_site_fract_z
 _atom_site_occupancy
  Na  Na0  1  -0.00093867  -0.00020679  -0.00049375  1
  Na  Na1  1  0.00212778  0.00129345  0.24929328  1
  Na  Na2  1  0.00164097  0.00050965  0.50128068  1
  Na  Na3  1  -0.00074931  -0.00024664  0.74987412  1
  Na  Na4  1  0.00033212  0.33324675  -0.00070131  1
  Na  Na5  1  -0.00040310  0.33338117  0.25001586  1
  Na  Na6  1  0.00025357  0.33336594  0.50011138  1
  Na  Na7  1  0.00163865  0.33335838  0.75068169  1
  Na  Na8  1  0.00283463  0.66722548  0.00090366  1
  Na  Na9  1  -0.00131964  0.66565960  0.24968847  1
  Na  Na10  1  -0.00083679  0.66638509  0.49958981  1
  Na  Na11  1  0.00164880  0.66698063  0.74991049  1
  Na  Na12  1  0.50060361  0.00075621  -0.00074449  1
  Na  Na13  1  0.50078233  0.00053638  0.25000620  1
  Na  Na14  1  0.49849135  0.00041576  0.49981574  1
  Na  Na15  1  0.49673985  -0.00041443  0.75022174  1
  Na  Na16  1  0.50042790  0.33339771  0.00076141  1
  Na  Na17  1  0.49951128  0.33337535  0.25041940  1
  Na  Na18  1  0.50067847  0.33330074  0.49916347  1
  Na  Na19  1  0.50145789  0.33367171  0.74959005  1
  Na  Na20  1  0.49982423  0.66639987  -0.00080789  1
  Na  Na21  1  0.50071766  0.66656132  0.25064592  1
  Na  Na22  1  0.49882317  0.66657487  0.50015728  1
  Na  Na23  1  0.49592937  0.66496386  0.75018011  1
  Na  Na24  1  0.24884170  0.00023382  0.12432790  1
  Na  Na25  1  0.24921794  0.00023430  0.37452748  1
  Na  Na26  1  0.25194415  0.00101937  0.62508229  1
  Na  Na27  1  0.25072232  0.00034923  0.87581025  1
  Na  Na28  1  0.24960893  0.33400496  0.12508301  1
  Na  Na29  1  0.24946126  0.33363636  0.37530811  1
  Na  Na30  1  0.24946355  0.33267874  0.62465270  1
  Na  Na31  1  0.25014684  0.33319383  0.87505593  1
  Na  Na32  1  0.24877783  0.66550057  0.12433060  1
  Na  Na33  1  0.25098642  0.66683649  0.37484776  1
  Na  Na34  1  0.25282703  0.66771419  0.62625916  1
  Na  Na35  1  0.25091945  0.66605165  0.87440423  1
  Na  Na36  1  0.74957380  0.00029810  0.12573960  1
  Na  Na37  1  0.74801136  -0.00100652  0.37410482  1
  Na  Na38  1  0.75099497  0.00096363  0.62452319  1
  Na  Na39  1  0.75139792  0.00097515  0.87582097  1
  Na  Na40  1  0.75159593  0.33407687  0.12467914  1
  Na  Na41  1  0.75121689  0.33318745  0.37558610  1
  Na  Na42  1  0.74800487  0.33265780  0.62478066  1
  Na  Na43  1  0.74719796  0.33258310  0.87498379  1
  Na  Na44  1  0.75019736  0.66646586  0.12509138  1
  Na  Na45  1  0.75206622  0.66675662  0.37503495  1
  Na  Na46  1  0.74969487  0.66656778  0.62464908  1
  Na  Na47  1  0.74837636  0.66663948  0.87541961  1
  Na  Na48  1  0.00033735  0.16641897  -0.00128433  1
  Na  Na49  1  -0.00041701  0.16724481  0.24898631  1
  Na  Na50  1  -0.00080641  0.16752499  0.50152036  1
  Na  Na51  1  -0.00092753  0.16731193  0.75099457  1
  Na  Na52  1  0.00167863  0.49985149  0.00016414  1
  Na  Na53  1  0.00118195  0.49937246  0.24940807  1
  Na  Na54  1  0.00173694  0.49911759  0.49945344  1
  Na  Na55  1  0.00102540  0.50009799  0.75080361  1
  Na  Na56  1  -0.00012446  0.83397999  0.00075191  1
  Na  Na57  1  -0.00086803  0.83363056  0.25049703  1
  Na  Na58  1  -0.00034197  0.83341845  0.50004879  1
  Na  Na59  1  0.00350812  0.83173391  0.74883784  1
  Na  Na60  1  0.49966955  0.16654740  -0.00032241  1
  Na  Na61  1  0.50094026  0.16569751  0.25102537  1
  Na  Na62  1  0.49984054  0.16654698  0.50001973  1
  Na  Na63  1  0.49769215  0.16778721  0.74914721  1
  Na  Na64  1  0.50029825  0.49912321  0.00060245  1
  Na  Na65  1  0.49915635  0.50043956  0.25034709  1
  Na  Na66  1  0.50056591  0.49956946  0.49856619  1
  Na  Na67  1  0.49962199  0.49964602  0.75051521  1
  Na  Na68  1  0.50196277  0.83256456  -0.00100951  1
  Na  Na69  1  0.50132397  0.83279300  0.24987317  1
  Na  Na70  1  0.49665893  0.83447864  0.50033850  1
  Na  Na71  1  0.49728675  0.83384245  0.75040536  1
  Na  Na72  1  0.24820416  0.16729055  0.12446822  1
  Na  Na73  1  0.25136768  0.16576042  0.37453213  1
  Na  Na74  1  0.25301422  0.16606078  0.62562232  1
  Na  Na75  1  0.25022200  0.16725790  0.87556883  1
  Na  Na76  1  0.24965369  0.50009433  0.12531651  1
  Na  Na77  1  0.24838509  0.50009989  0.37471982  1
  Na  Na78  1  0.24981992  0.49982765  0.62485059  1
  Na  Na79  1  0.25152125  0.49963732  0.87491779  1
  Na  Na80  1  0.24851608  0.83399877  0.12413884  1
  Na  Na81  1  0.25025499  0.83345125  0.37537824  1
  Na  Na82  1  0.25074967  0.83314323  0.62554641  1
  Na  Na83  1  0.25019111  0.83320917  0.87467817  1
  Na  Na84  1  0.75119438  0.16637538  0.12614594  1
  Na  Na85  1  0.75002546  0.16727675  0.37401678  1
  Na  Na86  1  0.74977896  0.16745020  0.62404857  1
  Na  Na87  1  0.75101738  0.16610431  0.87557833  1
  Na  Na88  1  0.74849624  0.50031051  0.12449361  1
  Na  Na89  1  0.75112435  0.49911069  0.37589115  1
  Na  Na90  1  0.74745406  0.50064821  0.62523647  1
  Na  Na91  1  0.74799333  0.49941278  0.87493519  1
  Na  Na92  1  0.75093001  0.83297803  0.12499962  1
  Na  Na93  1  0.75216062  0.83219393  0.37436432  1
  Na  Na94  1  0.75015973  0.83321241  0.62494342  1
  Na  Na95  1  0.74861285  0.83405195  0.87571247  1
  Mn  Mn96  1  0.14319590  0.91698214  0.49807672  1
  Mn  Mn97  1  0.89246433  0.91575121  0.87667446  1
  Mn  Mn98  1  0.14257314  0.58360047  0.49786097  1
  Mn  Mn99  1  0.89225595  0.58253568  0.62747907  1
  Mn  Mn100  1  0.64321143  0.25063522  0.24767470  1
  Mn  Mn101  1  0.89260129  0.91681566  0.62765867  1
  Mn  Mn102  1  0.35743361  0.08403622  0.00287819  1
  Mn  Mn103  1  0.39295850  0.91617195  0.12721675  1
  Mn  Mn104  1  0.35785459  0.75034545  0.25143950  1
  Mn  Mn105  1  0.39154723  0.58350085  0.37698725  1
  Mn  Mn106  1  0.60803012  0.75061439  0.37357355  1
  Mn  Mn107  1  0.85705612  0.41671317  0.00206704  1
  Mn  Mn108  1  0.64212741  0.24976757  0.99817927  1
  Mn  Mn109  1  0.60826853  0.41645928  0.37215462  1
  Mn  Mn110  1  0.89302940  0.91721705  0.37753244  1
  Mn  Mn111  1  0.64248433  0.91605082  0.24730168  1
  Mn  Mn112  1  0.10752258  0.74994973  0.12304871  1
  Mn  Mn113  1  0.85841091  0.75044420  0.75257120  1
  Mn  Mn114  1  0.14228650  0.24922146  0.49824435  1
  Mn  Mn115  1  0.14162041  0.24989332  0.24751442  1
  Mn  Mn116  1  0.39209267  0.24981900  0.37686568  1
  Mn  Mn117  1  0.10771518  0.74988531  0.37258845  1
  Mn  Mn118  1  0.64074228  0.58344877  0.74750508  1
  Mn  Mn119  1  0.60685175  0.08329300  0.62274994  1
  Mn  Mn120  1  0.85765673  0.75013443  0.00182044  1
  Mn  Mn121  1  0.14155873  0.91623990  0.99717634  1
  Mn  Mn122  1  0.10817319  0.08379256  0.62346100  1
  Mn  Mn123  1  0.85786588  0.41694939  0.50296778  1
  Mn  Mn124  1  0.85855405  0.08346336  0.25282401  1
  Mn  Mn125  1  0.60665796  0.74974073  0.87204887  1
  Mn  Mn126  1  0.10751957  0.08264679  0.87226364  1
  Mn  Mn127  1  0.39144117  0.91673986  0.37619448  1
  Mn  Mn128  1  0.89200432  0.25065599  0.87690130  1
  Mn  Mn129  1  0.89253114  0.58282231  0.12671781  1
  Mn  Mn130  1  0.35834787  0.41626118  0.75208523  1
  Mn  Mn131  1  0.39203002  0.24995435  0.12782365  1
  Mn  Mn132  1  0.64141212  0.91651591  0.49820670  1
  Mn  Mn133  1  0.35774720  0.74947266  0.00286787  1
  Mn  Mn134  1  0.85680443  0.41651063  0.75196482  1
  Mn  Mn135  1  0.35742218  0.41649588  0.50246766  1
  Mn  Mn136  1  0.60623024  0.74981401  0.62282378  1
  Mn  Mn137  1  0.64133267  0.91739667  0.74749863  1
  Mn  Mn138  1  0.85787326  0.08283132  0.50140500  1
  Mn  Mn139  1  0.10894117  0.41714358  0.87282964  1
  Mn  Mn140  1  0.14336234  0.58320164  0.74734395  1
  Mn  Mn141  1  0.64299852  0.58307299  0.24781193  1
  Mn  Mn142  1  0.60740675  0.08406982  0.87232949  1
  Mn  Mn143  1  0.89242674  0.58379678  0.87732023  1
  Fe  Fe144  1  0.64141068  0.58386645  0.99856995  1
  Fe  Fe145  1  0.35760701  0.75020042  0.50233597  1
  Fe  Fe146  1  0.14259545  0.25094705  0.99825846  1
  Fe  Fe147  1  0.14354419  0.24941404  0.74819168  1
  Fe  Fe148  1  0.35719050  0.08347710  0.75200537  1
  Fe  Fe149  1  0.10838474  0.74913222  0.62274091  1
  Fe  Fe150  1  0.85746989  0.74985318  0.50199732  1
  Fe  Fe151  1  0.64308682  0.91687519  0.99857457  1
  Fe  Fe152  1  0.64268853  0.24980270  0.49817337  1
  Fe  Fe153  1  0.39291058  0.58266062  0.62620951  1
  Fe  Fe154  1  0.39327096  0.25065431  0.62683754  1
  Fe  Fe155  1  0.60837491  0.74977520  0.12333969  1
  Fe  Fe156  1  0.10835020  0.75000501  0.87314917  1
  Fe  Fe157  1  0.10754289  0.41661753  0.62372380  1
  Fe  Fe158  1  0.89228975  0.25034871  0.62743442  1
  Fe  Fe159  1  0.60719836  0.41673106  0.12367887  1
  Fe  Fe160  1  0.85729636  0.08319137  0.00225706  1
  Fe  Fe161  1  0.85698108  0.08366470  0.75123438  1
  Fe  Fe162  1  0.64245249  0.58368462  0.49830733  1
  Fe  Fe163  1  0.35652688  0.41646768  0.25112092  1
  Fe  Fe164  1  0.60685875  0.08312374  0.37368463  1
  Fe  Fe165  1  0.39244523  0.25057905  0.87672790  1
  Fe  Fe166  1  0.89344922  0.25009737  0.12591382  1
  Fe  Fe167  1  0.60675359  0.41679537  0.62320698  1
  Fe  Fe168  1  0.39220449  0.91687208  0.87755958  1
  Fe  Fe169  1  0.89345579  0.25016987  0.37683471  1
  Fe  Fe170  1  0.35656896  0.75079270  0.75196346  1
  Fe  Fe171  1  0.10766558  0.41585086  0.12308350  1
  Fe  Fe172  1  0.14366592  0.58281536  0.99815938  1
  Fe  Fe173  1  0.10685050  0.41638458  0.37291917  1
  Fe  Fe174  1  0.60615431  0.41625697  0.87373388  1
  Fe  Fe175  1  0.35685725  0.08347243  0.25109333  1
  Fe  Fe176  1  0.64182260  0.24919178  0.74802839  1
  Fe  Fe177  1  0.14231463  0.58374824  0.24818858  1
  Fe  Fe178  1  0.14221153  0.91644631  0.24826981  1
  Fe  Fe179  1  0.85770051  0.74918298  0.25162579  1
  Fe  Fe180  1  0.60762562  0.08329186  0.12341322  1
  Fe  Fe181  1  0.10682637  0.08406180  0.12313423  1
  Fe  Fe182  1  0.14389358  0.91738326  0.74852407  1
  Fe  Fe183  1  0.35761392  0.41647855  0.00236333  1
  Fe  Fe184  1  0.10839322  0.08409464  0.37333209  1
  Fe  Fe185  1  0.39309129  0.58347358  0.12659847  1
  Fe  Fe186  1  0.85848738  0.41743077  0.25126018  1
  Fe  Fe187  1  0.89251517  0.91715286  0.12674378  1
  Fe  Fe188  1  0.35788294  0.08313124  0.50147607  1
  Fe  Fe189  1  0.39259869  0.58232984  0.87794009  1
  Fe  Fe190  1  0.39132568  0.91682587  0.62742277  1
  Fe  Fe191  1  0.89315213  0.58256178  0.37673186  1
  P  P192  1  0.05316048  0.25029018  0.10919174  1
  P  P193  1  0.05252671  0.24990060  0.36027402  1
  P  P194  1  0.05360006  0.25058415  0.61172273  1
  P  P195  1  0.05555983  0.25009303  0.86024472  1
  P  P196  1  0.05567922  0.58212409  0.11056799  1
  P  P197  1  0.05304246  0.58279073  0.35946362  1
  P  P198  1  0.05388536  0.58299524  0.60994124  1
  P  P199  1  0.05538820  0.58418466  0.86108923  1
  P  P200  1  0.05323504  0.91748741  0.11118769  1
  P  P201  1  0.05456313  0.91753833  0.35974744  1
  P  P202  1  0.05558375  0.91614788  0.61136217  1
  P  P203  1  0.05418414  0.91579353  0.85879069  1
  P  P204  1  0.55333813  0.24988473  0.11062964  1
  P  P205  1  0.55480777  0.24914573  0.36098620  1
  P  P206  1  0.55383373  0.25043012  0.61033419  1
  P  P207  1  0.55246436  0.25045073  0.85959842  1
  P  P208  1  0.55297216  0.58312456  0.11001569  1
  P  P209  1  0.55454953  0.58366508  0.36086547  1
  P  P210  1  0.55219997  0.58259842  0.60935880  1
  P  P211  1  0.55245913  0.58223746  0.86142539  1
  P  P212  1  0.55434827  0.91668943  0.10913426  1
  P  P213  1  0.55317394  0.91737501  0.35997523  1
  P  P214  1  0.55051740  0.91679690  0.61029049  1
  P  P215  1  0.55271017  0.91722749  0.86089800  1
  P  P216  1  0.44753334  0.08316553  0.14055942  1
  P  P217  1  0.44560339  0.08328545  0.38923423  1
  P  P218  1  0.44417726  0.08375566  0.63930539  1
  P  P219  1  0.44459183  0.08405278  0.88869588  1
  P  P220  1  0.44599557  0.41752223  0.13967260  1
  P  P221  1  0.44510219  0.41656752  0.38862423  1
  P  P222  1  0.44776311  0.41644972  0.63945795  1
  P  P223  1  0.44658526  0.41571510  0.89066600  1
  P  P224  1  0.44867720  0.74907765  0.13966436  1
  P  P225  1  0.44571626  0.75012172  0.39062148  1
  P  P226  1  0.44395730  0.74983108  0.63967047  1
  P  P227  1  0.44433562  0.74997116  0.88873166  1
  P  P228  1  0.94641041  0.08372673  0.13833825  1
  P  P229  1  0.94898950  0.08414930  0.39018105  1
  P  P230  1  0.94594344  0.08440159  0.64083448  1
  P  P231  1  0.94441773  0.08327960  0.88938900  1
  P  P232  1  0.94757831  0.41588998  0.13976641  1
  P  P233  1  0.94656474  0.41678880  0.38871062  1
  P  P234  1  0.94790814  0.41589197  0.64044481  1
  P  P235  1  0.94684801  0.41699038  0.89012812  1
  P  P236  1  0.94582606  0.75056878  0.14040111  1
  P  P237  1  0.94500935  0.74887741  0.38939754  1
  P  P238  1  0.94729574  0.74959068  0.63897118  1
  P  P239  1  0.94890101  0.74991737  0.89038911  1
  P  P240  1  0.19555319  0.08287513  0.23510890  1
  P  P241  1  0.19791103  0.08365648  0.48472057  1
  P  P242  1  0.19820322  0.08345126  0.73556452  1
  P  P243  1  0.19471044  0.08439906  0.98609311  1
  P  P244  1  0.19535914  0.41715900  0.23562235  1
  P  P245  1  0.19462780  0.41632925  0.48534767  1
  P  P246  1  0.19679371  0.41573868  0.73428174  1
  P  P247  1  0.19703157  0.41679829  0.98635929  1
  P  P248  1  0.19664312  0.75013138  0.23492588  1
  P  P249  1  0.19733779  0.74987792  0.48615008  1
  P  P250  1  0.19640607  0.75082569  0.73579114  1
  P  P251  1  0.19617800  0.74881008  0.98428727  1
  P  P252  1  0.69529446  0.08353531  0.23570272  1
  P  P253  1  0.69576891  0.08418282  0.48416820  1
  P  P254  1  0.69736372  0.08425675  0.73474090  1
  P  P255  1  0.69645927  0.08271685  0.98647059  1
  P  P256  1  0.69827953  0.41660628  0.23446046  1
  P  P257  1  0.69496186  0.41650413  0.48649973  1
  P  P258  1  0.69360437  0.41552997  0.73554638  1
  P  P259  1  0.69390102  0.41738078  0.98562982  1
  P  P260  1  0.69772609  0.74952302  0.23464953  1
  P  P261  1  0.69766791  0.74946413  0.48519764  1
  P  P262  1  0.69635763  0.75027497  0.73456211  1
  P  P263  1  0.69470597  0.75023539  0.98624543  1
  P  P264  1  0.30324448  0.25115540  0.01420135  1
  P  P265  1  0.30294766  0.24999614  0.26456726  1
  P  P266  1  0.30423476  0.24919790  0.51555133  1
  P  P267  1  0.30436566  0.24976452  0.76446648  1
  P  P268  1  0.30453311  0.58208245  0.01469995  1
  P  P269  1  0.30320828  0.58259772  0.26334299  1
  P  P270  1  0.30387701  0.58375953  0.51575555  1
  P  P271  1  0.30604799  0.58349577  0.76437360  1
  P  P272  1  0.30406352  0.91668674  0.01432556  1
  P  P273  1  0.30175864  0.91763844  0.26410385  1
  P  P274  1  0.30431156  0.91697270  0.51541396  1
  P  P275  1  0.30418056  0.91699035  0.76465690  1
  P  P276  1  0.80396482  0.24936095  0.01565450  1
  P  P277  1  0.80635469  0.25128868  0.26430518  1
  P  P278  1  0.80442983  0.24992913  0.51431522  1
  P  P279  1  0.80260720  0.24969431  0.76391291  1
  P  P280  1  0.80145050  0.58338502  0.01472565  1
  P  P281  1  0.80467044  0.58267978  0.26536908  1
  P  P282  1  0.80344412  0.58363306  0.51409749  1
  P  P283  1  0.80249833  0.58315462  0.76539409  1
  P  P284  1  0.80318926  0.91733803  0.01566692  1
  P  P285  1  0.80513476  0.91608904  0.26383106  1
  P  P286  1  0.80338022  0.91611469  0.51487716  1
  P  P287  1  0.80284373  0.91760691  0.76521477  1
  O  O288  1  0.05634972  0.25032477  0.18597014  1
  O  O289  1  0.05588995  0.24973905  0.43695460  1
  O  O290  1  0.05897695  0.24944971  0.68835630  1
  O  O291  1  0.05976922  0.25027558  0.93701996  1
  O  O292  1  0.05935552  0.58306527  0.18736567  1
  O  O293  1  0.05677686  0.58370536  0.43616270  1
  O  O294  1  0.05714109  0.58343932  0.68675637  1
  O  O295  1  0.05958692  0.58319960  0.93784849  1
  O  O296  1  0.05811488  0.91685376  0.18783024  1
  O  O297  1  0.05753596  0.91666274  0.43658928  1
  O  O298  1  0.06015296  0.91696368  0.68807255  1
  O  O299  1  0.05650098  0.91695650  0.93569940  1
  O  O300  1  0.55644050  0.24999916  0.18737375  1
  O  O301  1  0.55862873  0.24989491  0.43775522  1
  O  O302  1  0.55809666  0.24934620  0.68706438  1
  O  O303  1  0.55643951  0.24913141  0.93629419  1
  O  O304  1  0.55645394  0.58320154  0.18677067  1
  O  O305  1  0.55910228  0.58367264  0.43761814  1
  O  O306  1  0.55514331  0.58337573  0.68616225  1
  O  O307  1  0.55728989  0.58330397  0.93805289  1
  O  O308  1  0.55686352  0.91660160  0.18602539  1
  O  O309  1  0.55573716  0.91673751  0.43676694  1
  O  O310  1  0.55459437  0.91690379  0.68699053  1
  O  O311  1  0.55846558  0.91745365  0.93745082  1
  O  O312  1  0.44334837  0.08351749  0.06382668  1
  O  O313  1  0.44065097  0.08326232  0.31255981  1
  O  O314  1  0.44107158  0.08358516  0.56246048  1
  O  O315  1  0.44055469  0.08388502  0.81190076  1
  O  O316  1  0.44144475  0.41642097  0.06295208  1
  O  O317  1  0.44021735  0.41665068  0.31188994  1
  O  O318  1  0.44427877  0.41628756  0.56275812  1
  O  O319  1  0.44352475  0.41579881  0.81400180  1
  O  O320  1  0.44464245  0.74969744  0.06299045  1
  O  O321  1  0.44281529  0.74990471  0.31376955  1
  O  O322  1  0.44085288  0.75016399  0.56279828  1
  O  O323  1  0.44024679  0.75025862  0.81196314  1
  O  O324  1  0.94189105  0.08320754  0.06163230  1
  O  O325  1  0.94518633  0.08352655  0.31347572  1
  O  O326  1  0.94304712  0.08359812  0.56404088  1
  O  O327  1  0.94004968  0.08351327  0.81264729  1
  O  O328  1  0.94357236  0.41689790  0.06309595  1
  O  O329  1  0.94237919  0.41707985  0.31204779  1
  O  O330  1  0.94418248  0.41636755  0.56368200  1
  O  O331  1  0.94305684  0.41687338  0.81340473  1
  O  O332  1  0.94313029  0.75001106  0.06356342  1
  O  O333  1  0.94110966  0.74952768  0.31262157  1
  O  O334  1  0.94170160  0.74985185  0.56231004  1
  O  O335  1  0.94499936  0.74975484  0.81364703  1
  O  O336  1  0.19026684  0.08377047  0.06287522  1
  O  O337  1  0.19132759  0.08396262  0.31188735  1
  O  O338  1  0.19387083  0.08410364  0.56139559  1
  O  O339  1  0.19439251  0.08346170  0.81222178  1
  O  O340  1  0.19236771  0.41649635  0.06302535  1
  O  O341  1  0.19053114  0.41634948  0.31235158  1
  O  O342  1  0.19047861  0.41632786  0.56211009  1
  O  O343  1  0.19421707  0.41668306  0.81111699  1
  O  O344  1  0.19282660  0.74992749  0.06107351  1
  O  O345  1  0.19413643  0.75000897  0.31174788  1
  O  O346  1  0.19254561  0.74942113  0.56285711  1
  O  O347  1  0.19213651  0.74979525  0.81247856  1
  O  O348  1  0.69158429  0.08362758  0.06313409  1
  O  O349  1  0.69065466  0.08341457  0.31240231  1
  O  O350  1  0.69275230  0.08364394  0.56098380  1
  O  O351  1  0.69375695  0.08377379  0.81150897  1
  O  O352  1  0.69005956  0.41659337  0.06243475  1
  O  O353  1  0.69440386  0.41614806  0.31121299  1
  O  O354  1  0.69060951  0.41670819  0.56326270  1
  O  O355  1  0.68947154  0.41625652  0.81235956  1
  O  O356  1  0.69132486  0.74967603  0.06306107  1
  O  O357  1  0.69377906  0.74977845  0.31131949  1
  O  O358  1  0.69308747  0.74995533  0.56184896  1
  O  O359  1  0.69250142  0.75028467  0.81138727  1
  O  O360  1  0.30556879  0.25014569  0.18776828  1
  O  O361  1  0.30686897  0.25014525  0.43874353  1
  O  O362  1  0.30928526  0.25088604  0.68781132  1
  O  O363  1  0.30806669  0.25064004  0.93754592  1
  O  O364  1  0.30826030  0.58324509  0.18668533  1
  O  O365  1  0.30616951  0.58286655  0.43888937  1
  O  O366  1  0.31004993  0.58222099  0.68762616  1
  O  O367  1  0.30924384  0.58249946  0.93792098  1
  O  O368  1  0.30567010  0.91697283  0.18741623  1
  O  O369  1  0.30645794  0.91699981  0.43858891  1
  O  O370  1  0.30811427  0.91687425  0.68786294  1
  O  O371  1  0.30858966  0.91666611  0.93755898  1
  O  O372  1  0.81047270  0.25034339  0.18754906  1
  O  O373  1  0.80990855  0.25006057  0.43760124  1
  O  O374  1  0.80745464  0.25078999  0.68720445  1
  O  O375  1  0.80648843  0.25024501  0.93882644  1
  O  O376  1  0.80714312  0.58241135  0.18853730  1
  O  O377  1  0.80869966  0.58249469  0.43748193  1
  O  O378  1  0.80611207  0.58298065  0.68857086  1
  O  O379  1  0.80553208  0.58327573  0.93806445  1
  O  O380  1  0.80921741  0.91733804  0.18707475  1
  O  O381  1  0.80673567  0.91679682  0.43807549  1
  O  O382  1  0.80630909  0.91668989  0.68843936  1
  O  O383  1  0.80670363  0.91664748  0.93893432  1
  O  O384  1  0.23295489  0.25083107  0.03812209  1
  O  O385  1  0.23339642  0.24984289  0.29021776  1
  O  O386  1  0.23456352  0.24941397  0.54078925  1
  O  O387  1  0.23394303  0.25007444  0.78805098  1
  O  O388  1  0.23411459  0.58277224  0.03805097  1
  O  O389  1  0.23289334  0.58314355  0.28731987  1
  O  O390  1  0.23435618  0.58367163  0.54138733  1
  O  O391  1  0.23587965  0.58271223  0.78831963  1
  O  O392  1  0.23386929  0.91681926  0.03786751  1
  O  O393  1  0.23190820  0.91705114  0.28914791  1
  O  O394  1  0.23478351  0.91708822  0.54118783  1
  O  O395  1  0.23387707  0.91690829  0.78882121  1
  O  O396  1  0.73429371  0.24990090  0.04092934  1
  O  O397  1  0.73622581  0.25039886  0.28830000  1
  O  O398  1  0.73378629  0.25006334  0.53707353  1
  O  O399  1  0.73236369  0.24949890  0.78800468  1
  O  O400  1  0.73139175  0.58361914  0.03917499  1
  O  O401  1  0.73505800  0.58271425  0.29091073  1
  O  O402  1  0.73303271  0.58362519  0.53772322  1
  O  O403  1  0.73262675  0.58305643  0.78992317  1
  O  O404  1  0.73315375  0.91670830  0.04028848  1
  O  O405  1  0.73509354  0.91590018  0.28805369  1
  O  O406  1  0.73364908  0.91688740  0.54001407  1
  O  O407  1  0.73320999  0.91750333  0.79051065  1
  O  O408  1  0.26581695  0.08376598  0.21090576  1
  O  O409  1  0.26807530  0.08316182  0.46058192  1
  O  O410  1  0.26830138  0.08350223  0.71109017  1
  O  O411  1  0.26478301  0.08386321  0.96216061  1
  O  O412  1  0.26579347  0.41655653  0.21201607  1
  O  O413  1  0.26474519  0.41665184  0.46147706  1
  O  O414  1  0.26651730  0.41620701  0.70920521  1
  O  O415  1  0.26722355  0.41678941  0.96208196  1
  O  O416  1  0.26608915  0.75001862  0.20885476  1
  O  O417  1  0.26764086  0.75012026  0.46244054  1
  O  O418  1  0.26690728  0.75056326  0.71235117  1
  O  O419  1  0.26599077  0.74939330  0.95963128  1
  O  O420  1  0.76560020  0.08357370  0.21237717  1
  O  O421  1  0.76547873  0.08331547  0.45888048  1
  O  O422  1  0.76724711  0.08416960  0.70978113  1
  O  O423  1  0.76681769  0.08331015  0.96282607  1
  O  O424  1  0.76838692  0.41728634  0.21018329  1
  O  O425  1  0.76507892  0.41600796  0.46245905  1
  O  O426  1  0.76361856  0.41653835  0.71116336  1
  O  O427  1  0.76392857  0.41617338  0.96128778  1
  O  O428  1  0.76790164  0.74943336  0.21050849  1
  O  O429  1  0.76780032  0.74954641  0.46093283  1
  O  O430  1  0.76615699  0.75003896  0.70995912  1
  O  O431  1  0.76457846  0.75038245  0.96132469  1
  O  O432  1  0.01675941  0.08436354  0.16229328  1
  O  O433  1  0.01892592  0.08391528  0.41514649  1
  O  O434  1  0.01571460  0.08386011  0.66589215  1
  O  O435  1  0.01465819  0.08319216  0.91290653  1
  O  O436  1  0.01777551  0.41611387  0.16400747  1
  O  O437  1  0.01686984  0.41662369  0.41282367  1
  O  O438  1  0.01787135  0.41636010  0.66520708  1
  O  O439  1  0.01673830  0.41665894  0.91455021  1
  O  O440  1  0.01555556  0.74973001  0.16555095  1
  O  O441  1  0.01513741  0.74990217  0.41355395  1
  O  O442  1  0.01784514  0.74931714  0.66200270  1
  O  O443  1  0.01881987  0.75058609  0.91512776  1
  O  O444  1  0.51779010  0.08315247  0.16438682  1
  O  O445  1  0.51590033  0.08338907  0.41300722  1
  O  O446  1  0.51406942  0.08360144  0.66421435  1
  O  O447  1  0.51460439  0.08406023  0.91297473  1
  O  O448  1  0.51642085  0.41700453  0.16342490  1
  O  O449  1  0.51526020  0.41644203  0.41214548  1
  O  O450  1  0.51765543  0.41666773  0.66449640  1
  O  O451  1  0.51663719  0.41586359  0.91542586  1
  O  O452  1  0.51872953  0.74947108  0.16425593  1
  O  O453  1  0.51535651  0.75048429  0.41584450  1
  O  O454  1  0.51376001  0.74936324  0.66483132  1
  O  O455  1  0.51437593  0.74968178  0.91285378  1
  O  O456  1  0.48365097  0.24985644  0.08533056  1
  O  O457  1  0.48488676  0.24966524  0.33647548  1
  O  O458  1  0.48347704  0.24991383  0.58648300  1
  O  O459  1  0.48231001  0.25059670  0.83535122  1
  O  O460  1  0.48290054  0.58286461  0.08521808  1
  O  O461  1  0.48447889  0.58354597  0.33697608  1
  O  O462  1  0.48215706  0.58276241  0.58456927  1
  O  O463  1  0.48205472  0.58206573  0.83783514  1
  O  O464  1  0.48471090  0.91671061  0.08359455  1
  O  O465  1  0.48367468  0.91683377  0.33423202  1
  O  O466  1  0.48036815  0.91729315  0.58618582  1
  O  O467  1  0.48213842  0.91702163  0.83791993  1
  O  O468  1  0.98313836  0.25011373  0.08441577  1
  O  O469  1  0.98265226  0.25024440  0.33511881  1
  O  O470  1  0.98324134  0.25034617  0.58812113  1
  O  O471  1  0.98533234  0.25031501  0.83669845  1
  O  O472  1  0.98559993  0.58311455  0.08627282  1
  O  O473  1  0.98293760  0.58262562  0.33509103  1
  O  O474  1  0.98426779  0.58289052  0.58461531  1
  O  O475  1  0.98551479  0.58348067  0.83649478  1
  O  O476  1  0.98291561  0.91698996  0.08728368  1
  O  O477  1  0.98482446  0.91724229  0.33474796  1
  O  O478  1  0.98551756  0.91678257  0.58724978  1
  O  O479  1  0.98462042  0.91580399  0.83334561  1
  O  O480  1  0.08719909  0.31547443  0.07666859  1
  O  O481  1  0.08653038  0.31491730  0.32756485  1
  O  O482  1  0.08676833  0.31574912  0.57855107  1
  O  O483  1  0.08948687  0.31485977  0.82711751  1
  O  O484  1  0.09005571  0.64670534  0.07743578  1
  O  O485  1  0.08686444  0.64780185  0.32635740  1
  O  O486  1  0.08803394  0.64802595  0.57727435  1
  O  O487  1  0.08871442  0.64959525  0.82836733  1
  O  O488  1  0.08632245  0.98258794  0.07784650  1
  O  O489  1  0.08864117  0.98274890  0.32766597  1
  O  O490  1  0.08918653  0.98127761  0.57826315  1
  O  O491  1  0.08856280  0.98078815  0.82619418  1
  O  O492  1  0.58727147  0.31513973  0.07836532  1
  O  O493  1  0.58870570  0.31397353  0.32765795  1
  O  O494  1  0.58714026  0.31569093  0.57746943  1
  O  O495  1  0.58647040  0.31562988  0.82747331  1
  O  O496  1  0.58684663  0.64813105  0.07710636  1
  O  O497  1  0.58795198  0.64877461  0.32784987  1
  O  O498  1  0.58625912  0.64760729  0.57657150  1
  O  O499  1  0.58535999  0.64712365  0.82729151  1
  O  O500  1  0.58862495  0.98190969  0.07699079  1
  O  O501  1  0.58730372  0.98256838  0.32797100  1
  O  O502  1  0.58460097  0.98163605  0.57754401  1
  O  O503  1  0.58546229  0.98238783  0.82707552  1
  O  O504  1  0.41372181  0.01808456  0.17329928  1
  O  O505  1  0.41211801  0.01829411  0.42252301  1
  O  O506  1  0.41003350  0.01891374  0.67229003  1
  O  O507  1  0.41095259  0.01906996  0.92180225  1
  O  O508  1  0.41213981  0.35282698  0.17329234  1
  O  O509  1  0.41178855  0.35156141  0.42196844  1
  O  O510  1  0.41410712  0.35129410  0.67233886  1
  O  O511  1  0.41274467  0.35053481  0.92338694  1
  O  O512  1  0.41486074  0.68393226  0.17218790  1
  O  O513  1  0.41144991  0.68516859  0.42310348  1
  O  O514  1  0.40974096  0.68474512  0.67191207  1
  O  O515  1  0.41094064  0.68465126  0.92158207  1
  O  O516  1  0.91343899  0.01876497  0.17219184  1
  O  O517  1  0.91505240  0.01909044  0.42300401  1
  O  O518  1  0.91138632  0.01961027  0.67344124  1
  O  O519  1  0.91101178  0.01818259  0.92261089  1
  O  O520  1  0.91388070  0.35072898  0.17230295  1
  O  O521  1  0.91317157  0.35167655  0.42190093  1
  O  O522  1  0.91398359  0.35079213  0.67298209  1
  O  O523  1  0.91280105  0.35192301  0.92262159  1
  O  O524  1  0.91125989  0.68554385  0.17263391  1
  O  O525  1  0.91197168  0.68328972  0.42211717  1
  O  O526  1  0.91410095  0.68461245  0.67251293  1
  O  O527  1  0.91518474  0.68488412  0.92333684  1
  O  O528  1  0.16221113  0.01758573  0.20232914  1
  O  O529  1  0.16374746  0.01884537  0.45198937  1
  O  O530  1  0.16465653  0.01836867  0.70270233  1
  O  O531  1  0.16112705  0.01937383  0.95283527  1
  O  O532  1  0.16183817  0.35221635  0.20196148  1
  O  O533  1  0.16118553  0.35117342  0.45224659  1
  O  O534  1  0.16270608  0.35051868  0.70227825  1
  O  O535  1  0.16347364  0.35189763  0.95301368  1
  O  O536  1  0.16225623  0.68503278  0.20288267  1
  O  O537  1  0.16405462  0.68500728  0.45246179  1
  O  O538  1  0.16321090  0.68584096  0.70190857  1
  O  O539  1  0.16263172  0.68333287  0.95215591  1
  O  O540  1  0.66183133  0.01859019  0.20226074  1
  O  O541  1  0.66087823  0.01941341  0.45184647  1
  O  O542  1  0.66335607  0.01926612  0.70192572  1
  O  O543  1  0.66349360  0.01738654  0.95326977  1
  O  O544  1  0.66455702  0.35165039  0.20141272  1
  O  O545  1  0.66143433  0.35132306  0.45349700  1
  O  O546  1  0.66046411  0.35003222  0.70282626  1
  O  O547  1  0.65957986  0.35268111  0.95243048  1
  O  O548  1  0.66388088  0.68449299  0.20184091  1
  O  O549  1  0.66401423  0.68440055  0.45232375  1
  O  O550  1  0.66221804  0.68514825  0.70221669  1
  O  O551  1  0.66086044  0.68517208  0.95331992  1
  O  O552  1  0.33655171  0.31624763  0.04739766  1
  O  O553  1  0.33707829  0.31509231  0.29683341  1
  O  O554  1  0.33859329  0.31407797  0.54841781  1
  O  O555  1  0.33782326  0.31462553  0.79828752  1
  O  O556  1  0.33810897  0.64697392  0.04828188  1
  O  O557  1  0.33682843  0.64755677  0.29665204  1
  O  O558  1  0.33836314  0.64879083  0.54755322  1
  O  O559  1  0.33897711  0.64898308  0.79709465  1
  O  O560  1  0.33749841  0.98168577  0.04745648  1
  O  O561  1  0.33540270  0.98296975  0.29655907  1
  O  O562  1  0.33869683  0.98206779  0.54754655  1
  O  O563  1  0.33765990  0.98209484  0.79768838  1
  O  O564  1  0.83866445  0.31416452  0.04811709  1
  O  O565  1  0.83933156  0.31680515  0.29708678  1
  O  O566  1  0.83762519  0.31480184  0.54825286  1
  O  O567  1  0.83572776  0.31474279  0.79769083  1
  O  O568  1  0.83561996  0.64824993  0.04737924  1
  O  O569  1  0.83903059  0.64782872  0.29740405  1
  O  O570  1  0.83685609  0.64876777  0.54708439  1
  O  O571  1  0.83645892  0.64834596  0.79782625  1
  O  O572  1  0.83697067  0.98255261  0.04832511  1
  O  O573  1  0.83842647  0.98114050  0.29742729  1
  O  O574  1  0.83782321  0.98109806  0.54719151  1
  O  O575  1  0.83690572  0.98292043  0.79704761  1
  O  O576  1  0.41358840  0.14802058  0.17362644  1
  O  O577  1  0.41212042  0.14815662  0.42276948  1
  O  O578  1  0.41046692  0.14909297  0.67186255  1
  O  O579  1  0.41122683  0.14945702  0.92153919  1
  O  O580  1  0.41273055  0.48288068  0.17246993  1
  O  O581  1  0.41178837  0.48157718  0.42196576  1
  O  O582  1  0.41375672  0.48140019  0.67208480  1
  O  O583  1  0.41239751  0.48056134  0.92357273  1
  O  O584  1  0.41475702  0.81411991  0.17253630  1
  O  O585  1  0.41107608  0.81508535  0.42263249  1
  O  O586  1  0.41021601  0.81504956  0.67251243  1
  O  O587  1  0.41112034  0.81508985  0.92202784  1
  O  O588  1  0.91300432  0.14890118  0.17129178  1
  O  O589  1  0.91489116  0.14921032  0.42249696  1
  O  O590  1  0.91191893  0.14968298  0.67301453  1
  O  O591  1  0.91092314  0.14825820  0.92271164  1
  O  O592  1  0.91368831  0.48080367  0.17303152  1
  O  O593  1  0.91331339  0.48187024  0.42224494  1
  O  O594  1  0.91387584  0.48091580  0.67305870  1
  O  O595  1  0.91315823  0.48202534  0.92302330  1
  O  O596  1  0.91197556  0.81575282  0.17264119  1
  O  O597  1  0.91087218  0.81355466  0.42276489  1
  O  O598  1  0.91449127  0.81473757  0.67275890  1
  O  O599  1  0.91452614  0.81487509  0.92275544  1
  O  O600  1  0.08738694  0.18544267  0.07660010  1
  O  O601  1  0.08634916  0.18483634  0.32750532  1
  O  O602  1  0.08688136  0.18561734  0.57788753  1
  O  O603  1  0.08887422  0.18496735  0.82692748  1
  O  O604  1  0.08890009  0.51666395  0.07788790  1
  O  O605  1  0.08721759  0.51779618  0.32704077  1
  O  O606  1  0.08787017  0.51759884  0.57804508  1
  O  O607  1  0.08951082  0.51944729  0.82782768  1
  O  O608  1  0.08674387  0.85245248  0.07779679  1
  O  O609  1  0.08883933  0.85259244  0.32697468  1
  O  O610  1  0.08876517  0.85084871  0.57836069  1
  O  O611  1  0.08894778  0.85077099  0.82728994  1
  O  O612  1  0.58735228  0.18479774  0.07803258  1
  O  O613  1  0.58823453  0.18385434  0.32843921  1
  O  O614  1  0.58761652  0.18567521  0.57676775  1
  O  O615  1  0.58619084  0.18563854  0.82593190  1
  O  O616  1  0.58701417  0.51801267  0.07751459  1
  O  O617  1  0.58800409  0.51863856  0.32759714  1
  O  O618  1  0.58635453  0.51758100  0.57708647  1
  O  O619  1  0.58568165  0.51695185  0.82864059  1
  O  O620  1  0.58870544  0.85157474  0.07707455  1
  O  O621  1  0.58772400  0.85242567  0.32765945  1
  O  O622  1  0.58390819  0.85157262  0.57741235  1
  O  O623  1  0.58569423  0.85216259  0.82728487  1
  O  O624  1  0.33655832  0.18617296  0.04779604  1
  O  O625  1  0.33726903  0.18472232  0.29638149  1
  O  O626  1  0.33849359  0.18404419  0.54738247  1
  O  O627  1  0.33756302  0.18461839  0.79764990  1
  O  O628  1  0.33768925  0.51700740  0.04799008  1
  O  O629  1  0.33616949  0.51733099  0.29661856  1
  O  O630  1  0.33829289  0.51877051  0.54828066  1
  O  O631  1  0.33993248  0.51875480  0.79796701  1
  O  O632  1  0.33726653  0.85153190  0.04754432  1
  O  O633  1  0.33600962  0.85275639  0.29682101  1
  O  O634  1  0.33854275  0.85189621  0.54775653  1
  O  O635  1  0.33766331  0.85188582  0.79773777  1
  O  O636  1  0.83809965  0.18419117  0.04777601  1
  O  O637  1  0.84038136  0.18656097  0.29787261  1
  O  O638  1  0.83749350  0.18480831  0.54770071  1
  O  O639  1  0.83634725  0.18461941  0.79663682  1
  O  O640  1  0.83516953  0.51830715  0.04765615  1
  O  O641  1  0.83900349  0.51765122  0.29784310  1
  O  O642  1  0.83638696  0.51854636  0.54802179  1
  O  O643  1  0.83641414  0.51802914  0.79788064  1
  O  O644  1  0.83766324  0.85252565  0.04833422  1
  O  O645  1  0.83878029  0.85080539  0.29610229  1
  O  O646  1  0.83721238  0.85086634  0.54722433  1
  O  O647  1  0.83690800  0.85249653  0.79799503  1
  O  O648  1  0.16145065  0.14767135  0.20178273  1
  O  O649  1  0.16434898  0.14868371  0.45145674  1
  O  O650  1  0.16459821  0.14854973  0.70258410  1
  O  O651  1  0.16162843  0.14969838  0.95324966  1
  O  O652  1  0.16224351  0.48224953  0.20243022  1
  O  O653  1  0.16082859  0.48118870  0.45211201  1
  O  O654  1  0.16228565  0.48055973  0.70168355  1
  O  O655  1  0.16380032  0.48205100  0.95314549  1
  O  O656  1  0.16237141  0.81533628  0.20282909  1
  O  O657  1  0.16386996  0.81492913  0.45310002  1
  O  O658  1  0.16325080  0.81596805  0.70275901  1
  O  O659  1  0.16171300  0.81356982  0.95142412  1
  O  O660  1  0.66197280  0.14852494  0.20222177  1
  O  O661  1  0.66202127  0.14959937  0.45200925  1
  O  O662  1  0.66330783  0.14929582  0.70229475  1
  O  O663  1  0.66295183  0.14756584  0.95271699  1
  O  O664  1  0.66374788  0.48142319  0.20206877  1
  O  O665  1  0.66187180  0.48178781  0.45329825  1
  O  O666  1  0.65926635  0.48016701  0.70225758  1
  O  O667  1  0.66068503  0.48281978  0.95294322  1
  O  O668  1  0.66374647  0.81431860  0.20154396  1
  O  O669  1  0.66416867  0.81472966  0.45224460  1
  O  O670  1  0.66235003  0.81534243  0.70201631  1
  O  O671  1  0.66099368  0.81562900  0.95385223  1
