# generated using pymatgen
data_Na2MnFe(PO4)2
_symmetry_space_group_name_H-M   'P 1'
_cell_length_a   21.08069396
_cell_length_b   18.93282478
_cell_length_c   20.04032602
_cell_angle_alpha   89.99989620
_cell_angle_beta   89.99496532
_cell_angle_gamma   89.99912159
_symmetry_Int_Tables_number   1
_chemical_formula_structural   Na2MnFe(PO4)2
_chemical_formula_sum   'Na96 Mn48 Fe48 P96 O384'
_cell_volume   7998.43647015
_cell_formula_units_Z   48
loop_
 _symmetry_equiv_pos_site_id
 _symmetry_equiv_pos_as_xyz
  1  'x, y, z'
loop_
 _atom_site_type_symbol
 _atom_site_label
 _atom_site_symmetry_multiplicity
 _atom_site_fract_x
 _atom_site_fract_y
 _atom_site_fract_z
 _atom_site_occupancy
  Na  Na0  1  -0.00060315  0.00003903  0.00001637  1
  Na  Na1  1  -0.00095715  -0.00048169  0.25138858  1
  Na  Na2  1  -0.00078527  0.00000874  0.49912345  1
  Na  Na3  1  -0.00055252  0.00013929  0.74899709  1
  Na  Na4  1  -0.00121018  0.33315659  0.00093077  1
  Na  Na5  1  0.00127113  0.33393980  0.24879314  1
  Na  Na6  1  -0.00034356  0.33279203  0.49970709  1
  Na  Na7  1  -0.00112723  0.33334794  0.74991461  1
  Na  Na8  1  0.00222986  0.66677879  -0.00051849  1
  Na  Na9  1  0.00120832  0.66628528  0.25086398  1
  Na  Na10  1  -0.00108363  0.66578866  0.50084570  1
  Na  Na11  1  -0.00014571  0.66633937  0.74980832  1
  Na  Na12  1  0.50225781  0.00022408  0.00047694  1
  Na  Na13  1  0.50185494  0.00020101  0.25098768  1
  Na  Na14  1  0.50095228  -0.00069131  0.50042927  1
  Na  Na15  1  0.50225804  0.00011687  0.74852175  1
  Na  Na16  1  0.49918908  0.33343101  -0.00070832  1
  Na  Na17  1  0.49898021  0.33329842  0.24996943  1
  Na  Na18  1  0.49924175  0.33355935  0.50098814  1
  Na  Na19  1  0.49985579  0.33363185  0.74968351  1
  Na  Na20  1  0.50093899  0.66736315  -0.00083384  1
  Na  Na21  1  0.49693083  0.66550757  0.25041581  1
  Na  Na22  1  0.49707375  0.66634679  0.49978836  1
  Na  Na23  1  0.49931276  0.66683206  0.75010334  1
  Na  Na24  1  0.24996188  0.00018616  0.12481378  1
  Na  Na25  1  0.25005331  -0.00037654  0.37497445  1
  Na  Na26  1  0.25184618  0.00033116  0.62577976  1
  Na  Na27  1  0.24955573  -0.00080204  0.87369600  1
  Na  Na28  1  0.25075106  0.33356730  0.12498771  1
  Na  Na29  1  0.24940737  0.33251286  0.37529677  1
  Na  Na30  1  0.25244484  0.33412599  0.62528786  1
  Na  Na31  1  0.25109094  0.33312065  0.87469155  1
  Na  Na32  1  0.24912730  0.66632140  0.12474971  1
  Na  Na33  1  0.25112482  0.66711267  0.37596543  1
  Na  Na34  1  0.24944426  0.66645257  0.62499649  1
  Na  Na35  1  0.24790069  0.66594207  0.87443671  1
  Na  Na36  1  0.74989424  0.00040799  0.12542226  1
  Na  Na37  1  0.74856059  -0.00045256  0.37508572  1
  Na  Na38  1  0.74990264  0.00003946  0.62614315  1
  Na  Na39  1  0.74780356  -0.00104398  0.87378668  1
  Na  Na40  1  0.75048903  0.33437054  0.12541517  1
  Na  Na41  1  0.74960713  0.33368594  0.37618763  1
  Na  Na42  1  0.74920902  0.33331179  0.62437570  1
  Na  Na43  1  0.74902336  0.33337923  0.87400778  1
  Na  Na44  1  0.74915259  0.66562087  0.12450852  1
  Na  Na45  1  0.75305769  0.66752358  0.37667895  1
  Na  Na46  1  0.75221051  0.66715676  0.62495662  1
  Na  Na47  1  0.75005788  0.66612592  0.87384669  1
  Na  Na48  1  -0.00114175  0.16721311  0.00092591  1
  Na  Na49  1  -0.00117041  0.16699917  0.25033525  1
  Na  Na50  1  -0.00325369  0.16754468  0.49941144  1
  Na  Na51  1  -0.00207607  0.16736126  0.74911982  1
  Na  Na52  1  0.00082311  0.50030294  0.00079147  1
  Na  Na53  1  0.00154172  0.50034092  0.24932509  1
  Na  Na54  1  0.00131980  0.50056011  0.50058244  1
  Na  Na55  1  0.00033163  0.50051319  0.75025961  1
  Na  Na56  1  0.00171764  0.83166606  -0.00111226  1
  Na  Na57  1  0.00093571  0.83304729  0.25138945  1
  Na  Na58  1  -0.00006930  0.83309735  0.49967209  1
  Na  Na59  1  -0.00019947  0.83261761  0.74919638  1
  Na  Na60  1  0.49992759  0.16744852  -0.00012806  1
  Na  Na61  1  0.49889350  0.16727125  0.25061379  1
  Na  Na62  1  0.49755798  0.16794306  0.50136598  1
  Na  Na63  1  0.50060326  0.16646576  0.74860366  1
  Na  Na64  1  0.50107612  0.49971110  -0.00126504  1
  Na  Na65  1  0.49892675  0.50068847  0.24961230  1
  Na  Na66  1  0.49964172  0.50027297  0.50021314  1
  Na  Na67  1  0.50081113  0.50024554  0.75062475  1
  Na  Na68  1  0.50070913  0.83291520  0.00024176  1
  Na  Na69  1  0.49968370  0.83315866  0.25138021  1
  Na  Na70  1  0.49947616  0.83295193  0.49952369  1
  Na  Na71  1  0.50049037  0.83239442  0.74907348  1
  Na  Na72  1  0.25067857  0.16760573  0.12429535  1
  Na  Na73  1  0.25164299  0.16665959  0.37531316  1
  Na  Na74  1  0.25261311  0.16674543  0.62494344  1
  Na  Na75  1  0.25232612  0.16700987  0.87449288  1
  Na  Na76  1  0.24835601  0.50053694  0.12601560  1
  Na  Na77  1  0.24833581  0.50107235  0.37465063  1
  Na  Na78  1  0.24977263  0.50048435  0.62514369  1
  Na  Na79  1  0.24817639  0.50084290  0.87385949  1
  Na  Na80  1  0.25001964  0.83256428  0.12438507  1
  Na  Na81  1  0.25087839  0.83236723  0.37613234  1
  Na  Na82  1  0.25078717  0.83246439  0.62605526  1
  Na  Na83  1  0.24893652  0.83283830  0.87445357  1
  Na  Na84  1  0.75119781  0.16665698  0.12519823  1
  Na  Na85  1  0.75293260  0.16554951  0.37588093  1
  Na  Na86  1  0.75142963  0.16649709  0.62524985  1
  Na  Na87  1  0.74937195  0.16770303  0.87444917  1
  Na  Na88  1  0.75015024  0.49991176  0.12568171  1
  Na  Na89  1  0.74989993  0.49991865  0.37615201  1
  Na  Na90  1  0.75050195  0.50006901  0.62490417  1
  Na  Na91  1  0.74981236  0.50062199  0.87333887  1
  Na  Na92  1  0.74816087  0.83325854  0.12454323  1
  Na  Na93  1  0.74935674  0.83310323  0.37588973  1
  Na  Na94  1  0.74946251  0.83276202  0.62522394  1
  Na  Na95  1  0.74793787  0.83310498  0.87399288  1
  Mn  Mn96  1  0.64188182  0.25104057  0.99757197  1
  Mn  Mn97  1  0.10735766  0.08297198  0.62216840  1
  Mn  Mn98  1  0.85834834  0.75027964  0.25188205  1
  Mn  Mn99  1  0.64159953  0.91589439  0.99734706  1
  Mn  Mn100  1  0.35884194  0.08316982  0.75294280  1
  Mn  Mn101  1  0.85816176  0.41661373  0.50237778  1
  Mn  Mn102  1  0.89181089  0.91643243  0.87733236  1
  Mn  Mn103  1  0.60734822  0.74926106  0.37305754  1
  Mn  Mn104  1  0.14253675  0.25025303  0.74801765  1
  Mn  Mn105  1  0.85769873  0.41710830  0.75239265  1
  Mn  Mn106  1  0.35833584  0.08266370  0.25264466  1
  Mn  Mn107  1  0.10808564  0.41622068  0.62278552  1
  Mn  Mn108  1  0.60754462  0.41713233  0.12266532  1
  Mn  Mn109  1  0.10773431  0.08265959  0.12289387  1
  Mn  Mn110  1  0.39342496  0.91728603  0.87689593  1
  Mn  Mn111  1  0.10813359  0.41684950  0.12214943  1
  Mn  Mn112  1  0.64261899  0.58342498  0.74692757  1
  Mn  Mn113  1  0.14257301  0.24938436  0.49793913  1
  Mn  Mn114  1  0.14178396  0.91681307  0.99721150  1
  Mn  Mn115  1  0.35729994  0.41721263  0.25258157  1
  Mn  Mn116  1  0.10753785  0.08411521  0.87253992  1
  Mn  Mn117  1  0.89185302  0.91590664  0.12722641  1
  Mn  Mn118  1  0.60745163  0.08328923  0.62169998  1
  Mn  Mn119  1  0.89186825  0.24985495  0.12762776  1
  Mn  Mn120  1  0.85817421  0.41665130  0.25321848  1
  Mn  Mn121  1  0.35785220  0.41744008  0.00146659  1
  Mn  Mn122  1  0.10807018  0.74955266  0.37351883  1
  Mn  Mn123  1  0.35768316  0.41679580  0.50219532  1
  Mn  Mn124  1  0.39253922  0.91701518  0.37791060  1
  Mn  Mn125  1  0.35742651  0.74949321  0.00153206  1
  Mn  Mn126  1  0.14260587  0.25020997  0.99699196  1
  Mn  Mn127  1  0.39242284  0.58324433  0.87734645  1
  Mn  Mn128  1  0.89252099  0.58402287  0.12688949  1
  Mn  Mn129  1  0.35900901  0.08290783  0.00189378  1
  Mn  Mn130  1  0.64207932  0.24970732  0.24880628  1
  Mn  Mn131  1  0.10768453  0.08435879  0.37330057  1
  Mn  Mn132  1  0.60727035  0.74903057  0.12352605  1
  Mn  Mn133  1  0.85700479  0.08282262  0.75251293  1
  Mn  Mn134  1  0.60827954  0.08421684  0.12309297  1
  Mn  Mn135  1  0.39220787  0.91656099  0.12761911  1
  Mn  Mn136  1  0.89145164  0.91633282  0.37815623  1
  Mn  Mn137  1  0.85781834  0.74944955  0.00210854  1
  Mn  Mn138  1  0.64220943  0.24922049  0.49760558  1
  Mn  Mn139  1  0.64169345  0.58387081  0.24862894  1
  Mn  Mn140  1  0.85733123  0.08353443  0.00185276  1
  Mn  Mn141  1  0.64220812  0.58405925  0.49804300  1
  Mn  Mn142  1  0.14216133  0.91678932  0.24753866  1
  Mn  Mn143  1  0.14206236  0.91660025  0.74688148  1
  Fe  Fe144  1  0.14320204  0.91671836  0.49951896  1
  Fe  Fe145  1  0.14302910  0.58360623  0.24863157  1
  Fe  Fe146  1  0.39422841  0.24987669  0.87599565  1
  Fe  Fe147  1  0.89185986  0.25108880  0.87665158  1
  Fe  Fe148  1  0.60661691  0.74898946  0.62307295  1
  Fe  Fe149  1  0.39311240  0.25065329  0.62749283  1
  Fe  Fe150  1  0.64278979  0.91637311  0.24892305  1
  Fe  Fe151  1  0.10841072  0.75048389  0.12349499  1
  Fe  Fe152  1  0.64247262  0.91617839  0.74741462  1
  Fe  Fe153  1  0.85711218  0.75015765  0.75144147  1
  Fe  Fe154  1  0.60780864  0.41650134  0.87270244  1
  Fe  Fe155  1  0.10695019  0.74957027  0.87219956  1
  Fe  Fe156  1  0.39240037  0.25021886  0.37654884  1
  Fe  Fe157  1  0.85760622  0.75081345  0.50272182  1
  Fe  Fe158  1  0.10685703  0.41635755  0.87335807  1
  Fe  Fe159  1  0.39307928  0.91588342  0.62665666  1
  Fe  Fe160  1  0.89357320  0.58270980  0.87703695  1
  Fe  Fe161  1  0.35679580  0.74945886  0.75173223  1
  Fe  Fe162  1  0.35684128  0.74997893  0.25125332  1
  Fe  Fe163  1  0.85703428  0.41730883  0.00061927  1
  Fe  Fe164  1  0.64291953  0.91638026  0.49901901  1
  Fe  Fe165  1  0.10674510  0.75052956  0.62320907  1
  Fe  Fe166  1  0.85705913  0.08302890  0.25211256  1
  Fe  Fe167  1  0.89370775  0.58339539  0.62669929  1
  Fe  Fe168  1  0.14291459  0.58382858  0.49839308  1
  Fe  Fe169  1  0.60800174  0.08374946  0.87325840  1
  Fe  Fe170  1  0.60660004  0.41655752  0.37394396  1
  Fe  Fe171  1  0.89357703  0.58258165  0.37673985  1
  Fe  Fe172  1  0.39153002  0.58255860  0.37687784  1
  Fe  Fe173  1  0.35812323  0.08215725  0.50130822  1
  Fe  Fe174  1  0.39180921  0.58306663  0.12616280  1
  Fe  Fe175  1  0.14263470  0.58311015  0.74817330  1
  Fe  Fe176  1  0.10746103  0.41618013  0.37379118  1
  Fe  Fe177  1  0.60751436  0.08441345  0.37407857  1
  Fe  Fe178  1  0.89212653  0.25037342  0.62692633  1
  Fe  Fe179  1  0.64235290  0.58305298  0.99817270  1
  Fe  Fe180  1  0.60629947  0.41769369  0.62360562  1
  Fe  Fe181  1  0.60774934  0.74989435  0.87221546  1
  Fe  Fe182  1  0.89227065  0.91625967  0.62637683  1
  Fe  Fe183  1  0.35686567  0.75057512  0.50261018  1
  Fe  Fe184  1  0.64238553  0.25005628  0.74808178  1
  Fe  Fe185  1  0.35775540  0.41773889  0.75194176  1
  Fe  Fe186  1  0.14291263  0.24968893  0.24868530  1
  Fe  Fe187  1  0.14241502  0.58305028  0.99784386  1
  Fe  Fe188  1  0.39237812  0.25044852  0.12698914  1
  Fe  Fe189  1  0.39202978  0.58342976  0.62682277  1
  Fe  Fe190  1  0.85694486  0.08230991  0.50167222  1
  Fe  Fe191  1  0.89293212  0.25117207  0.37630113  1
  P  P192  1  0.05460581  0.24964729  0.11095467  1
  P  P193  1  0.05290434  0.25075100  0.35962416  1
  P  P194  1  0.05182994  0.24966846  0.60986759  1
  P  P195  1  0.05157456  0.25123229  0.85999195  1
  P  P196  1  0.05583212  0.58457796  0.11061767  1
  P  P197  1  0.05467880  0.58257912  0.36115903  1
  P  P198  1  0.05473170  0.58430070  0.61104473  1
  P  P199  1  0.05454389  0.58259699  0.86054275  1
  P  P200  1  0.05303546  0.91577649  0.10991551  1
  P  P201  1  0.05461584  0.91678843  0.36182931  1
  P  P202  1  0.05228058  0.91583956  0.60913331  1
  P  P203  1  0.05296452  0.91611487  0.85911424  1
  P  P204  1  0.55198028  0.25062870  0.11019842  1
  P  P205  1  0.55192021  0.25004740  0.36089235  1
  P  P206  1  0.55339962  0.25123158  0.61138660  1
  P  P207  1  0.55351027  0.25030775  0.85907744  1
  P  P208  1  0.55212060  0.58336490  0.10921520  1
  P  P209  1  0.55133029  0.58280910  0.36050927  1
  P  P210  1  0.55179273  0.58385649  0.61025659  1
  P  P211  1  0.55508521  0.58351390  0.86071012  1
  P  P212  1  0.55453655  0.91626664  0.11166429  1
  P  P213  1  0.55572884  0.91735655  0.36150562  1
  P  P214  1  0.55416330  0.91487171  0.61034422  1
  P  P215  1  0.55459663  0.91635017  0.85873308  1
  P  P216  1  0.44714920  0.08402152  0.14041461  1
  P  P217  1  0.44771078  0.08379618  0.39098907  1
  P  P218  1  0.44519678  0.08247406  0.63834260  1
  P  P219  1  0.44918339  0.08383893  0.88949517  1
  P  P220  1  0.44598655  0.41734442  0.13954365  1
  P  P221  1  0.44707102  0.41672850  0.39000757  1
  P  P222  1  0.44655223  0.41772415  0.64057351  1
  P  P223  1  0.44712140  0.41628236  0.88822119  1
  P  P224  1  0.44555716  0.74883407  0.14052736  1
  P  P225  1  0.44399613  0.74918287  0.38961227  1
  P  P226  1  0.44524261  0.74986189  0.63913495  1
  P  P227  1  0.44707775  0.75016759  0.88851965  1
  P  P228  1  0.94565417  0.08278780  0.14123153  1
  P  P229  1  0.94429996  0.08422128  0.38946263  1
  P  P230  1  0.94442719  0.08276489  0.63831500  1
  P  P231  1  0.94625570  0.08435059  0.88985866  1
  P  P232  1  0.94545401  0.41737842  0.13890312  1
  P  P233  1  0.94828790  0.41704281  0.38989597  1
  P  P234  1  0.94671962  0.41698637  0.63997253  1
  P  P235  1  0.94707672  0.41734499  0.89041339  1
  P  P236  1  0.94885411  0.74971225  0.14022112  1
  P  P237  1  0.94597178  0.74882066  0.39103100  1
  P  P238  1  0.94564162  0.75020264  0.63914484  1
  P  P239  1  0.94656057  0.74860110  0.88827020  1
  P  P240  1  0.19701033  0.08454917  0.23513656  1
  P  P241  1  0.19838523  0.08237933  0.48543822  1
  P  P242  1  0.19702018  0.08402266  0.73446998  1
  P  P243  1  0.19756282  0.08359987  0.98411240  1
  P  P244  1  0.19493417  0.41624706  0.23672103  1
  P  P245  1  0.19612897  0.41734394  0.48467539  1
  P  P246  1  0.19682944  0.41715967  0.73615563  1
  P  P247  1  0.19619154  0.41733739  0.98386021  1
  P  P248  1  0.19718612  0.74920497  0.23505239  1
  P  P249  1  0.19632786  0.75028817  0.48726396  1
  P  P250  1  0.19519323  0.74883974  0.73523585  1
  P  P251  1  0.19463651  0.74898910  0.98485046  1
  P  P252  1  0.69651665  0.08315014  0.23682950  1
  P  P253  1  0.69725840  0.08250500  0.48498189  1
  P  P254  1  0.69453508  0.08374758  0.73590159  1
  P  P255  1  0.69603556  0.08379603  0.98399457  1
  P  P256  1  0.69524610  0.41675411  0.23660832  1
  P  P257  1  0.69443873  0.41700148  0.48596664  1
  P  P258  1  0.69477826  0.41603461  0.73482869  1
  P  P259  1  0.69706807  0.41783225  0.98395841  1
  P  P260  1  0.69684751  0.75018873  0.23542074  1
  P  P261  1  0.69661021  0.75029647  0.48678877  1
  P  P262  1  0.69579037  0.75000802  0.73470693  1
  P  P263  1  0.69579076  0.74836323  0.98393050  1
  P  P264  1  0.30588681  0.25036717  0.01408332  1
  P  P265  1  0.30404444  0.25027964  0.26476279  1
  P  P266  1  0.30577291  0.24927851  0.51459129  1
  P  P267  1  0.30612883  0.25135332  0.76451251  1
  P  P268  1  0.30210206  0.58312294  0.01521345  1
  P  P269  1  0.30353434  0.58412557  0.26441774  1
  P  P270  1  0.30384499  0.58374413  0.51463312  1
  P  P271  1  0.30377018  0.58372331  0.76364996  1
  P  P272  1  0.30338271  0.91626808  0.01462409  1
  P  P273  1  0.30323548  0.91552004  0.26539631  1
  P  P274  1  0.30315796  0.91650946  0.51591228  1
  P  P275  1  0.30484361  0.91510138  0.76379423  1
  P  P276  1  0.80415206  0.25169585  0.01376405  1
  P  P277  1  0.80379155  0.24964999  0.26623141  1
  P  P278  1  0.80517380  0.24950875  0.51442069  1
  P  P279  1  0.80353248  0.25040352  0.76424122  1
  P  P280  1  0.80328910  0.58229712  0.01340868  1
  P  P281  1  0.80397050  0.58344864  0.26631886  1
  P  P282  1  0.80571907  0.58367092  0.51476173  1
  P  P283  1  0.80592607  0.58432809  0.76393949  1
  P  P284  1  0.80254181  0.91626049  0.01486211  1
  P  P285  1  0.80212822  0.91683286  0.26534168  1
  P  P286  1  0.80248028  0.91666470  0.51592048  1
  P  P287  1  0.80306549  0.91530952  0.76349310  1
  O  O288  1  0.05911609  0.24964948  0.18767988  1
  O  O289  1  0.05662444  0.24961324  0.43637877  1
  O  O290  1  0.05620985  0.24967586  0.68650837  1
  O  O291  1  0.05560090  0.25052639  0.93668575  1
  O  O292  1  0.05986285  0.58376846  0.18744354  1
  O  O293  1  0.05916189  0.58373781  0.43793338  1
  O  O294  1  0.05909320  0.58350836  0.68776057  1
  O  O295  1  0.05859557  0.58284970  0.93727708  1
  O  O296  1  0.05589858  0.91655698  0.18678353  1
  O  O297  1  0.05952025  0.91689562  0.43852162  1
  O  O298  1  0.05610284  0.91643226  0.68585246  1
  O  O299  1  0.05599631  0.91653590  0.93591056  1
  O  O300  1  0.55603095  0.25049051  0.18687254  1
  O  O301  1  0.55544095  0.24987736  0.43761348  1
  O  O302  1  0.55820221  0.25022483  0.68797514  1
  O  O303  1  0.55637189  0.25063293  0.93587117  1
  O  O304  1  0.55591325  0.58345239  0.18594831  1
  O  O305  1  0.55557034  0.58386512  0.43715628  1
  O  O306  1  0.55587911  0.58423163  0.68691311  1
  O  O307  1  0.55882334  0.58341633  0.93743998  1
  O  O308  1  0.55881664  0.91613747  0.18846145  1
  O  O309  1  0.55976172  0.91625026  0.43831817  1
  O  O310  1  0.55892422  0.91556134  0.68702956  1
  O  O311  1  0.55666077  0.91612586  0.93564927  1
  O  O312  1  0.44456134  0.08307571  0.06359693  1
  O  O313  1  0.44420625  0.08275568  0.31425254  1
  O  O314  1  0.44137540  0.08214856  0.56161420  1
  O  O315  1  0.44547271  0.08287118  0.81275287  1
  O  O316  1  0.44362540  0.41754145  0.06274538  1
  O  O317  1  0.44350606  0.41696496  0.31333608  1
  O  O318  1  0.44317452  0.41775519  0.56384159  1
  O  O319  1  0.44223602  0.41764742  0.81160779  1
  O  O320  1  0.44312160  0.74985331  0.06367293  1
  O  O321  1  0.43996836  0.74996632  0.31287114  1
  O  O322  1  0.44057890  0.75007166  0.56236669  1
  O  O323  1  0.44173349  0.74965920  0.81189888  1
  O  O324  1  0.94243287  0.08300426  0.06440290  1
  O  O325  1  0.94037941  0.08275570  0.31270276  1
  O  O326  1  0.94066371  0.08243425  0.56152654  1
  O  O327  1  0.94301778  0.08359345  0.81300505  1
  O  O328  1  0.94086112  0.41749798  0.06221012  1
  O  O329  1  0.94517656  0.41725198  0.31317604  1
  O  O330  1  0.94409540  0.41698564  0.56318886  1
  O  O331  1  0.94361686  0.41729183  0.81369175  1
  O  O332  1  0.94471987  0.74938151  0.06347842  1
  O  O333  1  0.94345591  0.74991800  0.31422674  1
  O  O334  1  0.94123509  0.75051933  0.56240358  1
  O  O335  1  0.94155193  0.74960652  0.81164050  1
  O  O336  1  0.19403030  0.08384390  0.06089359  1
  O  O337  1  0.19377691  0.08409695  0.31195770  1
  O  O338  1  0.19443058  0.08340045  0.56211112  1
  O  O339  1  0.19325344  0.08415575  0.81122189  1
  O  O340  1  0.19346836  0.41637783  0.06068853  1
  O  O341  1  0.19122531  0.41612403  0.31350955  1
  O  O342  1  0.19363076  0.41654496  0.56153920  1
  O  O343  1  0.19158238  0.41615872  0.81274430  1
  O  O344  1  0.19133222  0.75002813  0.06165755  1
  O  O345  1  0.19380457  0.74959873  0.31183812  1
  O  O346  1  0.19151169  0.75016957  0.56389673  1
  O  O347  1  0.19040242  0.74960328  0.81197794  1
  O  O348  1  0.69351423  0.08417559  0.06089780  1
  O  O349  1  0.69170909  0.08442905  0.31349528  1
  O  O350  1  0.69351929  0.08380163  0.56178698  1
  O  O351  1  0.69076533  0.08405038  0.81266006  1
  O  O352  1  0.69364851  0.41721441  0.06077258  1
  O  O353  1  0.69016189  0.41671133  0.31337187  1
  O  O354  1  0.68972926  0.41731805  0.56272410  1
  O  O355  1  0.69070418  0.41675970  0.81162314  1
  O  O356  1  0.69257728  0.74878748  0.06073953  1
  O  O357  1  0.69386005  0.74914807  0.31221895  1
  O  O358  1  0.69132913  0.74892149  0.56339760  1
  O  O359  1  0.69122115  0.74926349  0.81139914  1
  O  O360  1  0.30873257  0.25054211  0.18802773  1
  O  O361  1  0.30972491  0.25026651  0.43773160  1
  O  O362  1  0.31030237  0.25072756  0.68762940  1
  O  O363  1  0.31083640  0.25018279  0.93730710  1
  O  O364  1  0.30783458  0.58305602  0.18775510  1
  O  O365  1  0.30829507  0.58277145  0.43789279  1
  O  O366  1  0.30837513  0.58348105  0.68695624  1
  O  O367  1  0.30630251  0.58311847  0.93845392  1
  O  O368  1  0.30620379  0.91635138  0.18863988  1
  O  O369  1  0.30638775  0.91650222  0.43910956  1
  O  O370  1  0.30932553  0.91583057  0.68708478  1
  O  O371  1  0.30697697  0.91636906  0.93781288  1
  O  O372  1  0.80642129  0.25073901  0.18936002  1
  O  O373  1  0.80943787  0.25111310  0.43771193  1
  O  O374  1  0.80851624  0.25074651  0.68751041  1
  O  O375  1  0.80810889  0.25112897  0.93694382  1
  O  O376  1  0.80694248  0.58322155  0.18944786  1
  O  O377  1  0.80992435  0.58252972  0.43803913  1
  O  O378  1  0.81031886  0.58334366  0.68718583  1
  O  O379  1  0.80834979  0.58300185  0.93674716  1
  O  O380  1  0.80558757  0.91619520  0.18862519  1
  O  O381  1  0.80562350  0.91640991  0.43916501  1
  O  O382  1  0.80814767  0.91581960  0.68687675  1
  O  O383  1  0.80570896  0.91596146  0.93801535  1
  O  O384  1  0.23564860  0.25080991  0.03754554  1
  O  O385  1  0.23376180  0.25002215  0.28861795  1
  O  O386  1  0.23566111  0.25029382  0.53881244  1
  O  O387  1  0.23601125  0.25008310  0.78842848  1
  O  O388  1  0.23198108  0.58316384  0.03925861  1
  O  O389  1  0.23317637  0.58371096  0.28843704  1
  O  O390  1  0.23340982  0.58352579  0.53825852  1
  O  O391  1  0.23342224  0.58367850  0.78742233  1
  O  O392  1  0.23365344  0.91632975  0.03950479  1
  O  O393  1  0.23365587  0.91587939  0.29085494  1
  O  O394  1  0.23316200  0.91634139  0.54093068  1
  O  O395  1  0.23471088  0.91557399  0.78762834  1
  O  O396  1  0.73427767  0.25106405  0.03854807  1
  O  O397  1  0.73419978  0.24986178  0.29173162  1
  O  O398  1  0.73497567  0.24992619  0.53837954  1
  O  O399  1  0.73304895  0.25036995  0.78743964  1
  O  O400  1  0.73302986  0.58265839  0.03744427  1
  O  O401  1  0.73426254  0.58368480  0.29154020  1
  O  O402  1  0.73555212  0.58343184  0.53883634  1
  O  O403  1  0.73558686  0.58351290  0.78717115  1
  O  O404  1  0.73287024  0.91653308  0.03991489  1
  O  O405  1  0.73224061  0.91644920  0.29043313  1
  O  O406  1  0.73242220  0.91663529  0.54074669  1
  O  O407  1  0.73258330  0.91574471  0.78677602  1
  O  O408  1  0.26668625  0.08397976  0.20996210  1
  O  O409  1  0.26845181  0.08263092  0.46075854  1
  O  O410  1  0.26701664  0.08393973  0.71038700  1
  O  O411  1  0.26729952  0.08310867  0.95905175  1
  O  O412  1  0.26480642  0.41685705  0.21191405  1
  O  O413  1  0.26579004  0.41695388  0.45935050  1
  O  O414  1  0.26718420  0.41757256  0.71240410  1
  O  O415  1  0.26587421  0.41722067  0.95864249  1
  O  O416  1  0.26714638  0.74944656  0.21021047  1
  O  O417  1  0.26672689  0.75003121  0.46352427  1
  O  O418  1  0.26566799  0.74919137  0.71190440  1
  O  O419  1  0.26456848  0.74936014  0.96006271  1
  O  O420  1  0.76677258  0.08332711  0.21272215  1
  O  O421  1  0.76738703  0.08244293  0.46082374  1
  O  O422  1  0.76454200  0.08335439  0.71156168  1
  O  O423  1  0.76554211  0.08332952  0.95837234  1
  O  O424  1  0.76539160  0.41690008  0.21297451  1
  O  O425  1  0.76479614  0.41685833  0.46269511  1
  O  O426  1  0.76495544  0.41698717  0.71102819  1
  O  O427  1  0.76694402  0.41732844  0.95885527  1
  O  O428  1  0.76631725  0.74975507  0.20959289  1
  O  O429  1  0.76712901  0.75039680  0.46357437  1
  O  O430  1  0.76626000  0.74964086  0.71129785  1
  O  O431  1  0.76556249  0.74934565  0.95888348  1
  O  O432  1  0.01538466  0.08310816  0.16620383  1
  O  O433  1  0.01438944  0.08404346  0.41371732  1
  O  O434  1  0.01434388  0.08322176  0.66300703  1
  O  O435  1  0.01583844  0.08412593  0.91524785  1
  O  O436  1  0.01562675  0.41736878  0.16254054  1
  O  O437  1  0.01811598  0.41663620  0.41524608  1
  O  O438  1  0.01632545  0.41687222  0.66545812  1
  O  O439  1  0.01707129  0.41712463  0.91525991  1
  O  O440  1  0.01872605  0.74972505  0.16511158  1
  O  O441  1  0.01572196  0.74927206  0.41613175  1
  O  O442  1  0.01609990  0.74988229  0.66279155  1
  O  O443  1  0.01704508  0.74852201  0.91160987  1
  O  O444  1  0.51665677  0.08400735  0.16614355  1
  O  O445  1  0.51770072  0.08378058  0.41587662  1
  O  O446  1  0.51533528  0.08288555  0.66244296  1
  O  O447  1  0.51913850  0.08389710  0.91430093  1
  O  O448  1  0.51544026  0.41722115  0.16544131  1
  O  O449  1  0.51696728  0.41673510  0.41513120  1
  O  O450  1  0.51671579  0.41748981  0.66504390  1
  O  O451  1  0.51746876  0.41648056  0.91195492  1
  O  O452  1  0.51507281  0.74918104  0.16631248  1
  O  O453  1  0.51416292  0.74967968  0.41364067  1
  O  O454  1  0.51572822  0.74948428  0.66263472  1
  O  O455  1  0.51747397  0.75008079  0.91189842  1
  O  O456  1  0.48199163  0.25073480  0.08563599  1
  O  O457  1  0.48192343  0.25004940  0.33599524  1
  O  O458  1  0.48286276  0.25094940  0.58808076  1
  O  O459  1  0.48354132  0.25026018  0.83399174  1
  O  O460  1  0.48209404  0.58327337  0.08451966  1
  O  O461  1  0.48115195  0.58298687  0.33628705  1
  O  O462  1  0.48162517  0.58374345  0.58599202  1
  O  O463  1  0.48509146  0.58340097  0.83628184  1
  O  O464  1  0.48464907  0.91628851  0.08712758  1
  O  O465  1  0.48552206  0.91669563  0.33760342  1
  O  O466  1  0.48372298  0.91559409  0.58688200  1
  O  O467  1  0.48508214  0.91634637  0.83290850  1
  O  O468  1  0.98442808  0.24989630  0.08730182  1
  O  O469  1  0.98277659  0.25061725  0.33521129  1
  O  O470  1  0.98160534  0.24999424  0.58590523  1
  O  O471  1  0.98141631  0.25122383  0.83558765  1
  O  O472  1  0.98580175  0.58365594  0.08636912  1
  O  O473  1  0.98436406  0.58326253  0.33725685  1
  O  O474  1  0.98424813  0.58374294  0.58757224  1
  O  O475  1  0.98423020  0.58280784  0.83650036  1
  O  O476  1  0.98360203  0.91573707  0.08408058  1
  O  O477  1  0.98434607  0.91635657  0.33831261  1
  O  O478  1  0.98210348  0.91605387  0.58492009  1
  O  O479  1  0.98328192  0.91623361  0.83384484  1
  O  O480  1  0.08802108  0.31472195  0.07770957  1
  O  O481  1  0.08684897  0.31592481  0.32735382  1
  O  O482  1  0.08572698  0.31468980  0.57716951  1
  O  O483  1  0.08536265  0.31650376  0.82743584  1
  O  O484  1  0.08904992  0.64990661  0.07785219  1
  O  O485  1  0.08852636  0.64737582  0.32764798  1
  O  O486  1  0.08771795  0.64955034  0.57773368  1
  O  O487  1  0.08829592  0.64738182  0.82698788  1
  O  O488  1  0.08721478  0.98088565  0.07744758  1
  O  O489  1  0.08763477  0.98193766  0.32841732  1
  O  O490  1  0.08637383  0.98072122  0.57614440  1
  O  O491  1  0.08712466  0.98119736  0.82666614  1
  O  O492  1  0.58575197  0.31569287  0.07730476  1
  O  O493  1  0.58570718  0.31513578  0.32825388  1
  O  O494  1  0.58634174  0.31642515  0.57833602  1
  O  O495  1  0.58765162  0.31532108  0.82648540  1
  O  O496  1  0.58625381  0.64830956  0.07653046  1
  O  O497  1  0.58488638  0.64785757  0.32725523  1
  O  O498  1  0.58546121  0.64882455  0.57701076  1
  O  O499  1  0.58853492  0.64863164  0.82748071  1
  O  O500  1  0.58827890  0.98134384  0.07885253  1
  O  O501  1  0.58890508  0.98290011  0.32902079  1
  O  O502  1  0.58800174  0.97972695  0.57694510  1
  O  O503  1  0.58901524  0.98147852  0.82675394  1
  O  O504  1  0.41298628  0.01901244  0.17311013  1
  O  O505  1  0.41369970  0.01872258  0.42394600  1
  O  O506  1  0.41223883  0.01717453  0.67159489  1
  O  O507  1  0.41553043  0.01880259  0.92254450  1
  O  O508  1  0.41155340  0.35230866  0.17175118  1
  O  O509  1  0.41322495  0.35160509  0.42255911  1
  O  O510  1  0.41251406  0.35275940  0.67318636  1
  O  O511  1  0.41395719  0.35095637  0.92093394  1
  O  O512  1  0.41131214  0.68330080  0.17203117  1
  O  O513  1  0.41041858  0.68401638  0.42238882  1
  O  O514  1  0.41165521  0.68491746  0.67249607  1
  O  O515  1  0.41371708  0.68520441  0.92214141  1
  O  O516  1  0.91155973  0.01764289  0.17366587  1
  O  O517  1  0.91045327  0.01939813  0.42312946  1
  O  O518  1  0.91107399  0.01740756  0.67132415  1
  O  O519  1  0.91211906  0.01916413  0.92217406  1
  O  O520  1  0.91210919  0.35230686  0.17221506  1
  O  O521  1  0.91384903  0.35206949  0.42220555  1
  O  O522  1  0.91228583  0.35199559  0.67220650  1
  O  O523  1  0.91256670  0.35257017  0.92297088  1
  O  O524  1  0.91491373  0.68474050  0.17299404  1
  O  O525  1  0.91201034  0.68353283  0.42296350  1
  O  O526  1  0.91223168  0.68510801  0.67230703  1
  O  O527  1  0.91355639  0.68332504  0.92162020  1
  O  O528  1  0.16277873  0.01939045  0.20280316  1
  O  O529  1  0.16451912  0.01718574  0.45322271  1
  O  O530  1  0.16323401  0.01880030  0.70190047  1
  O  O531  1  0.16315527  0.01863150  0.95184701  1
  O  O532  1  0.16170629  0.35100082  0.20363191  1
  O  O533  1  0.16153945  0.35248064  0.45224027  1
  O  O534  1  0.16395698  0.35206092  0.70222045  1
  O  O535  1  0.16177565  0.35256912  0.95096317  1
  O  O536  1  0.16320256  0.68416639  0.20257160  1
  O  O537  1  0.16316316  0.68518818  0.45370620  1
  O  O538  1  0.16196798  0.68367143  0.70215821  1
  O  O539  1  0.16110576  0.68348451  0.95245664  1
  O  O540  1  0.66320785  0.01779287  0.20416083  1
  O  O541  1  0.66315134  0.01742087  0.45303620  1
  O  O542  1  0.66084663  0.01853931  0.70316021  1
  O  O543  1  0.66122508  0.01890586  0.95202542  1
  O  O544  1  0.66206782  0.35159782  0.20321288  1
  O  O545  1  0.66100792  0.35194387  0.45271012  1
  O  O546  1  0.66153745  0.35077245  0.70199450  1
  O  O547  1  0.66269163  0.35289866  0.95123578  1
  O  O548  1  0.66242879  0.68524799  0.20285425  1
  O  O549  1  0.66361590  0.68544781  0.45257057  1
  O  O550  1  0.66236434  0.68507032  0.70094530  1
  O  O551  1  0.66212760  0.68309250  0.95142524  1
  O  O552  1  0.33932341  0.31545267  0.04735586  1
  O  O553  1  0.33737763  0.31533563  0.29825906  1
  O  O554  1  0.33985093  0.31413782  0.54784015  1
  O  O555  1  0.33905450  0.31685899  0.79728302  1
  O  O556  1  0.33607300  0.64803873  0.04801005  1
  O  O557  1  0.33685186  0.64924154  0.29743097  1
  O  O558  1  0.33726831  0.64879471  0.54775180  1
  O  O559  1  0.33693471  0.64895256  0.79691972  1
  O  O560  1  0.33754790  0.98122235  0.04721968  1
  O  O561  1  0.33766199  0.98044518  0.29806614  1
  O  O562  1  0.33741386  0.98150159  0.54823578  1
  O  O563  1  0.33844275  0.98012030  0.79710521  1
  O  O564  1  0.83750732  0.31709323  0.04634639  1
  O  O565  1  0.83830603  0.31449061  0.29903104  1
  O  O566  1  0.83895549  0.31427040  0.54818712  1
  O  O567  1  0.83684383  0.31538314  0.79781348  1
  O  O568  1  0.83677140  0.64728908  0.04704560  1
  O  O569  1  0.83865138  0.64833595  0.29837978  1
  O  O570  1  0.83929398  0.64891470  0.54746849  1
  O  O571  1  0.83888541  0.64965629  0.79697585  1
  O  O572  1  0.83666020  0.98133881  0.04706646  1
  O  O573  1  0.83588955  0.98193366  0.29799259  1
  O  O574  1  0.83645865  0.98176223  0.54837297  1
  O  O575  1  0.83618220  0.98030202  0.79717581  1
  O  O576  1  0.41285252  0.14933369  0.17209463  1
  O  O577  1  0.41325573  0.14875596  0.42297580  1
  O  O578  1  0.41174922  0.14769771  0.67115706  1
  O  O579  1  0.41518272  0.14904007  0.92152304  1
  O  O580  1  0.41167341  0.48256084  0.17171022  1
  O  O581  1  0.41297978  0.48171247  0.42272887  1
  O  O582  1  0.41278496  0.48285517  0.67339624  1
  O  O583  1  0.41369909  0.48105557  0.92212634  1
  O  O584  1  0.41088467  0.81343803  0.17341260  1
  O  O585  1  0.41034065  0.81411319  0.42321028  1
  O  O586  1  0.41217545  0.81502794  0.67251969  1
  O  O587  1  0.41399660  0.81523142  0.92193548  1
  O  O588  1  0.91108019  0.14766841  0.17362837  1
  O  O589  1  0.91070314  0.14959028  0.42165939  1
  O  O590  1  0.91040597  0.14785495  0.67091672  1
  O  O591  1  0.91216982  0.14962892  0.92179972  1
  O  O592  1  0.91223802  0.48239371  0.17233961  1
  O  O593  1  0.91446385  0.48210243  0.42269137  1
  O  O594  1  0.91277885  0.48220240  0.67230192  1
  O  O595  1  0.91329477  0.48265492  0.92308833  1
  O  O596  1  0.91484568  0.81476274  0.17288385  1
  O  O597  1  0.91134578  0.81364899  0.42379406  1
  O  O598  1  0.91228335  0.81529056  0.67253041  1
  O  O599  1  0.91349013  0.81352981  0.92215451  1
  O  O600  1  0.08781899  0.18460282  0.07754829  1
  O  O601  1  0.08691965  0.18585759  0.32654203  1
  O  O602  1  0.08523125  0.18465286  0.57654491  1
  O  O603  1  0.08533717  0.18635583  0.82674179  1
  O  O604  1  0.08998244  0.51989190  0.07719923  1
  O  O605  1  0.08789988  0.51733887  0.32824715  1
  O  O606  1  0.08846649  0.51956435  0.57752021  1
  O  O607  1  0.08797217  0.51733370  0.82747434  1
  O  O608  1  0.08751847  0.85060960  0.07816150  1
  O  O609  1  0.08801613  0.85164410  0.32874123  1
  O  O610  1  0.08629740  0.85070177  0.57671116  1
  O  O611  1  0.08700146  0.85083816  0.82694814  1
  O  O612  1  0.58591593  0.18568891  0.07740421  1
  O  O613  1  0.58577466  0.18486223  0.32826963  1
  O  O614  1  0.58650991  0.18626696  0.57743252  1
  O  O615  1  0.58754058  0.18525219  0.82656416  1
  O  O616  1  0.58641710  0.51846442  0.07647091  1
  O  O617  1  0.58500469  0.51767263  0.32796874  1
  O  O618  1  0.58561658  0.51871170  0.57779165  1
  O  O619  1  0.58881635  0.51845890  0.82776202  1
  O  O620  1  0.58795869  0.85114828  0.07848366  1
  O  O621  1  0.58955866  0.85258221  0.32801912  1
  O  O622  1  0.58721003  0.84964478  0.57715431  1
  O  O623  1  0.58904300  0.85123680  0.82650526  1
  O  O624  1  0.33925114  0.18537070  0.04756297  1
  O  O625  1  0.33792921  0.18546180  0.29798961  1
  O  O626  1  0.33908602  0.18392476  0.54706944  1
  O  O627  1  0.34060963  0.18674323  0.79768147  1
  O  O628  1  0.33585264  0.51815355  0.04823161  1
  O  O629  1  0.33704470  0.51925124  0.29829660  1
  O  O630  1  0.33728465  0.51882739  0.54825953  1
  O  O631  1  0.33713434  0.51878608  0.79719681  1
  O  O632  1  0.33724785  0.85104893  0.04699422  1
  O  O633  1  0.33723879  0.85030029  0.29747099  1
  O  O634  1  0.33735578  0.85150913  0.54853294  1
  O  O635  1  0.33789454  0.84966197  0.79660444  1
  O  O636  1  0.83802767  0.18669209  0.04676667  1
  O  O637  1  0.83821375  0.18450444  0.29788523  1
  O  O638  1  0.83827497  0.18397220  0.54691517  1
  O  O639  1  0.83688040  0.18545346  0.79760832  1
  O  O640  1  0.83653157  0.51714002  0.04657423  1
  O  O641  1  0.83824405  0.51847872  0.29904125  1
  O  O642  1  0.83948458  0.51881372  0.54827535  1
  O  O643  1  0.83963002  0.51963122  0.79771197  1
  O  O644  1  0.83642034  0.85103244  0.04732767  1
  O  O645  1  0.83627584  0.85189867  0.29814348  1
  O  O646  1  0.83668886  0.85176081  0.54866010  1
  O  O647  1  0.83605145  0.85009313  0.79683464  1
  O  O648  1  0.16318056  0.14976285  0.20282908  1
  O  O649  1  0.16453856  0.14742000  0.45239314  1
  O  O650  1  0.16320743  0.14900938  0.70162658  1
  O  O651  1  0.16389972  0.14889242  0.95144765  1
  O  O652  1  0.16107386  0.48143959  0.20416326  1
  O  O653  1  0.16198691  0.48265388  0.45289127  1
  O  O654  1  0.16330314  0.48229881  0.70317375  1
  O  O655  1  0.16190607  0.48255732  0.95198923  1
  O  O656  1  0.16306973  0.81410703  0.20214838  1
  O  O657  1  0.16330903  0.81543510  0.45392354  1
  O  O658  1  0.16162149  0.81364239  0.70147175  1
  O  O659  1  0.16038088  0.81359211  0.95148216  1
  O  O660  1  0.66332384  0.14815800  0.20299105  1
  O  O661  1  0.66353087  0.14744046  0.45163654  1
  O  O662  1  0.66135958  0.14896425  0.70259303  1
  O  O663  1  0.66184856  0.14892320  0.95166931  1
  O  O664  1  0.66190288  0.48187319  0.20333106  1
  O  O665  1  0.66107246  0.48195171  0.45248875  1
  O  O666  1  0.66080442  0.48090180  0.70149940  1
  O  O667  1  0.66295771  0.48280753  0.95144538  1
  O  O668  1  0.66270941  0.81552096  0.20366208  1
  O  O669  1  0.66336701  0.81548755  0.45390931  1
  O  O670  1  0.66225384  0.81497966  0.70159719  1
  O  O671  1  0.66105773  0.81314817  0.95134581  1
