# generated using pymatgen
data_Na2MnFe(PO4)2
_symmetry_space_group_name_H-M   'P 1'
_cell_length_a   21.08950758
_cell_length_b   18.94324059
_cell_length_c   20.04817663
_cell_angle_alpha   89.99989339
_cell_angle_beta   89.99487416
_cell_angle_gamma   90.00286059
_symmetry_Int_Tables_number   1
_chemical_formula_structural   Na2MnFe(PO4)2
_chemical_formula_sum   'Na96 Mn48 Fe48 P96 O384'
_cell_volume   8009.31901336
_cell_formula_units_Z   48
loop_
 _symmetry_equiv_pos_site_id
 _symmetry_equiv_pos_as_xyz
  1  'x, y, z'
loop_
 _atom_site_type_symbol
 _atom_site_label
 _atom_site_symmetry_multiplicity
 _atom_site_fract_x
 _atom_site_fract_y
 _atom_site_fract_z
 _atom_site_occupancy
  Na  Na0  1  0.00048558  0.00095352  -0.00062670  1
  Na  Na1  1  -0.00339294  -0.00116825  0.25074671  1
  Na  Na2  1  -0.00048876  0.00081013  0.49954564  1
  Na  Na3  1  0.00022126  0.00067033  0.74944631  1
  Na  Na4  1  -0.00055626  0.33251526  0.00001949  1
  Na  Na5  1  0.00046497  0.33365236  0.25115040  1
  Na  Na6  1  0.00058206  0.33313376  0.50014632  1
  Na  Na7  1  0.00127228  0.33321652  0.74987273  1
  Na  Na8  1  -0.00080073  0.66636718  0.00001384  1
  Na  Na9  1  -0.00116250  0.66661863  0.24966119  1
  Na  Na10  1  -0.00145388  0.66577170  0.50108769  1
  Na  Na11  1  0.00056839  0.66663769  0.74913834  1
  Na  Na12  1  0.50150319  -0.00037183  0.00051806  1
  Na  Na13  1  0.50117088  0.00057041  0.24956788  1
  Na  Na14  1  0.50196080  0.00106661  0.49974359  1
  Na  Na15  1  0.50175039  0.00016981  0.75109971  1
  Na  Na16  1  0.49941083  0.33320241  -0.00056141  1
  Na  Na17  1  0.50075857  0.33353317  0.24924845  1
  Na  Na18  1  0.49949071  0.33300250  0.49960409  1
  Na  Na19  1  0.49867201  0.33354265  0.75023803  1
  Na  Na20  1  0.49916491  0.66596960  0.00029769  1
  Na  Na21  1  0.50018401  0.66609882  0.25078918  1
  Na  Na22  1  0.49954303  0.66591968  0.49966265  1
  Na  Na23  1  0.49960437  0.66646938  0.74966167  1
  Na  Na24  1  0.25002131  0.00080367  0.12590272  1
  Na  Na25  1  0.24818728  -0.00031332  0.37487534  1
  Na  Na26  1  0.24808236  0.00019836  0.62540262  1
  Na  Na27  1  0.24804694  -0.00028297  0.87503127  1
  Na  Na28  1  0.25165910  0.33401900  0.12655478  1
  Na  Na29  1  0.25114161  0.33368969  0.37426208  1
  Na  Na30  1  0.24882437  0.33282660  0.62346876  1
  Na  Na31  1  0.25110198  0.33429693  0.87624389  1
  Na  Na32  1  0.25072355  0.66674495  0.12464850  1
  Na  Na33  1  0.25136693  0.66651012  0.37414172  1
  Na  Na34  1  0.25116198  0.66618031  0.62373539  1
  Na  Na35  1  0.24952545  0.66586429  0.87577969  1
  Na  Na36  1  0.75089645  0.00053386  0.12612651  1
  Na  Na37  1  0.75038515  0.00044316  0.37479663  1
  Na  Na38  1  0.75020895  0.00060258  0.62321922  1
  Na  Na39  1  0.74826031  -0.00065958  0.87551099  1
  Na  Na40  1  0.74818347  0.33262697  0.12513552  1
  Na  Na41  1  0.74878036  0.33291068  0.37441647  1
  Na  Na42  1  0.75075450  0.33321252  0.62428457  1
  Na  Na43  1  0.75036526  0.33264917  0.87523730  1
  Na  Na44  1  0.75134997  0.66734714  0.12609511  1
  Na  Na45  1  0.75037312  0.66590611  0.37394570  1
  Na  Na46  1  0.74976236  0.66663011  0.62533377  1
  Na  Na47  1  0.75048436  0.66685401  0.87606781  1
  Na  Na48  1  -0.00048095  0.16691511  -0.00018717  1
  Na  Na49  1  -0.00245493  0.16758199  0.25104005  1
  Na  Na50  1  -0.00148642  0.16719096  0.50022035  1
  Na  Na51  1  -0.00110360  0.16746261  0.74870765  1
  Na  Na52  1  0.00031494  0.49990581  -0.00019848  1
  Na  Na53  1  -0.00092969  0.50063303  0.25009811  1
  Na  Na54  1  0.00202931  0.49937478  0.50065994  1
  Na  Na55  1  0.00250056  0.49923159  0.74964396  1
  Na  Na56  1  -0.00078253  0.83356327  -0.00021135  1
  Na  Na57  1  -0.00076530  0.83319907  0.25030994  1
  Na  Na58  1  -0.00205780  0.83382864  0.49999332  1
  Na  Na59  1  0.00018649  0.83298003  0.74994256  1
  Na  Na60  1  0.49978362  0.16717967  0.00074708  1
  Na  Na61  1  0.49897785  0.16767195  0.24965395  1
  Na  Na62  1  0.50135302  0.16599237  0.49946575  1
  Na  Na63  1  0.50073959  0.16677620  0.75069049  1
  Na  Na64  1  0.49714832  0.49991656  -0.00065012  1
  Na  Na65  1  0.49848635  0.49963920  0.25037794  1
  Na  Na66  1  0.49828646  0.49936281  0.49941105  1
  Na  Na67  1  0.49608683  0.50059459  0.74950035  1
  Na  Na68  1  0.50390954  0.83272543  0.00046120  1
  Na  Na69  1  0.50425163  0.83266524  0.24954208  1
  Na  Na70  1  0.50252648  0.83329885  0.50043919  1
  Na  Na71  1  0.50224427  0.83338452  0.75020137  1
  Na  Na72  1  0.25222706  0.16558753  0.12631546  1
  Na  Na73  1  0.24979748  0.16682577  0.37402616  1
  Na  Na74  1  0.24776145  0.16732409  0.62396668  1
  Na  Na75  1  0.24733617  0.16767163  0.87545128  1
  Na  Na76  1  0.25231832  0.49933248  0.12566029  1
  Na  Na77  1  0.25208683  0.49930590  0.37466349  1
  Na  Na78  1  0.25113129  0.49992144  0.62360633  1
  Na  Na79  1  0.25237995  0.49923805  0.87587565  1
  Na  Na80  1  0.24752580  0.83445047  0.12522953  1
  Na  Na81  1  0.24938662  0.83370307  0.37419924  1
  Na  Na82  1  0.24891426  0.83398007  0.62512670  1
  Na  Na83  1  0.24920854  0.83318964  0.87560363  1
  Na  Na84  1  0.75140318  0.16728659  0.12585260  1
  Na  Na85  1  0.75184694  0.16681448  0.37541661  1
  Na  Na86  1  0.75217405  0.16692180  0.62427776  1
  Na  Na87  1  0.75242168  0.16644718  0.87451733  1
  Na  Na88  1  0.74985939  0.49941739  0.12592136  1
  Na  Na89  1  0.74850063  0.50037480  0.37381043  1
  Na  Na90  1  0.74827884  0.50052870  0.62404108  1
  Na  Na91  1  0.75006101  0.49916865  0.87624695  1
  Na  Na92  1  0.74803741  0.83372941  0.12596113  1
  Na  Na93  1  0.74960227  0.83318408  0.37370146  1
  Na  Na94  1  0.74897260  0.83365224  0.62468097  1
  Na  Na95  1  0.74863494  0.83308204  0.87539679  1
  Mn  Mn96  1  0.14260941  0.58340449  0.24806673  1
  Mn  Mn97  1  0.35747578  0.08378753  0.75220267  1
  Mn  Mn98  1  0.14109329  0.91669693  0.24781584  1
  Mn  Mn99  1  0.85855026  0.41657606  0.75203489  1
  Mn  Mn100  1  0.89160891  0.91709586  0.87743448  1
  Mn  Mn101  1  0.10679977  0.08340838  0.12369473  1
  Mn  Mn102  1  0.64179475  0.58282805  0.24722978  1
  Mn  Mn103  1  0.39332052  0.91697172  0.37727899  1
  Mn  Mn104  1  0.39290984  0.91643391  0.87764844  1
  Mn  Mn105  1  0.10688259  0.74982871  0.37301269  1
  Mn  Mn106  1  0.10799936  0.74981711  0.62220054  1
  Mn  Mn107  1  0.64298006  0.24952726  0.74769039  1
  Mn  Mn108  1  0.85758640  0.41611297  0.25223530  1
  Mn  Mn109  1  0.89237902  0.58263793  0.87701798  1
  Mn  Mn110  1  0.64115006  0.58282497  0.74790961  1
  Mn  Mn111  1  0.60815118  0.08401345  0.12283409  1
  Mn  Mn112  1  0.64277514  0.25063682  0.49755938  1
  Mn  Mn113  1  0.60679653  0.41623116  0.62286658  1
  Mn  Mn114  1  0.89210833  0.58217485  0.62732048  1
  Mn  Mn115  1  0.35813076  0.75102479  0.00271927  1
  Mn  Mn116  1  0.14263414  0.58347409  0.99847152  1
  Mn  Mn117  1  0.14180163  0.91627875  0.74756855  1
  Mn  Mn118  1  0.39246123  0.91686223  0.62700977  1
  Mn  Mn119  1  0.60670299  0.41728469  0.87272901  1
  Mn  Mn120  1  0.14266389  0.25008211  0.24803144  1
  Mn  Mn121  1  0.85780848  0.41698429  0.00291906  1
  Mn  Mn122  1  0.10890686  0.41616546  0.87280634  1
  Mn  Mn123  1  0.64182451  0.58305309  0.99802046  1
  Mn  Mn124  1  0.89173248  0.91693558  0.62742542  1
  Mn  Mn125  1  0.85785236  0.41725647  0.50198791  1
  Mn  Mn126  1  0.10755929  0.75008798  0.87284327  1
  Mn  Mn127  1  0.10705820  0.08366190  0.62228424  1
  Mn  Mn128  1  0.14213396  0.24957622  0.99910381  1
  Mn  Mn129  1  0.60883011  0.08332757  0.87258726  1
  Mn  Mn130  1  0.35852179  0.75093474  0.25193729  1
  Mn  Mn131  1  0.35750375  0.08321874  0.50176950  1
  Mn  Mn132  1  0.85707209  0.75035898  0.75254859  1
  Mn  Mn133  1  0.35804564  0.75000266  0.75277292  1
  Mn  Mn134  1  0.60800083  0.74949606  0.62221096  1
  Mn  Mn135  1  0.39141617  0.24924629  0.62722673  1
  Mn  Mn136  1  0.35850507  0.75098959  0.50168763  1
  Mn  Mn137  1  0.35720963  0.08314216  0.00183339  1
  Mn  Mn138  1  0.85817809  0.08274417  0.00247533  1
  Mn  Mn139  1  0.39124645  0.24958702  0.87733437  1
  Mn  Mn140  1  0.85767387  0.75028271  0.25215772  1
  Mn  Mn141  1  0.39292742  0.91648526  0.12712156  1
  Mn  Mn142  1  0.14314745  0.58372409  0.49688939  1
  Mn  Mn143  1  0.64280185  0.91638817  0.49699720  1
  Fe  Fe144  1  0.64183761  0.58316421  0.49792109  1
  Fe  Fe145  1  0.10569644  0.08355435  0.37345987  1
  Fe  Fe146  1  0.89284097  0.58294580  0.12619654  1
  Fe  Fe147  1  0.89241372  0.58286715  0.37732290  1
  Fe  Fe148  1  0.60774157  0.74902834  0.87386105  1
  Fe  Fe149  1  0.14207478  0.25076241  0.74814583  1
  Fe  Fe150  1  0.14138202  0.91684998  0.99887853  1
  Fe  Fe151  1  0.35808686  0.41597214  0.25218095  1
  Fe  Fe152  1  0.64351409  0.91723588  0.99884429  1
  Fe  Fe153  1  0.39203753  0.58435703  0.87664378  1
  Fe  Fe154  1  0.89373430  0.25094013  0.62669397  1
  Fe  Fe155  1  0.60828124  0.08407746  0.37262670  1
  Fe  Fe156  1  0.10860319  0.41669322  0.62297439  1
  Fe  Fe157  1  0.35757858  0.41613034  0.00279319  1
  Fe  Fe158  1  0.35699830  0.41580380  0.50132810  1
  Fe  Fe159  1  0.89206586  0.91647458  0.12637455  1
  Fe  Fe160  1  0.89278327  0.25094712  0.37704538  1
  Fe  Fe161  1  0.10677197  0.08373512  0.87319666  1
  Fe  Fe162  1  0.60610501  0.41690063  0.12318488  1
  Fe  Fe163  1  0.10749173  0.41700042  0.12412936  1
  Fe  Fe164  1  0.14174520  0.91696298  0.49789305  1
  Fe  Fe165  1  0.35608995  0.41604395  0.75089715  1
  Fe  Fe166  1  0.39299500  0.58345213  0.12693272  1
  Fe  Fe167  1  0.85713221  0.08372035  0.25215595  1
  Fe  Fe168  1  0.10754270  0.41676005  0.37337527  1
  Fe  Fe169  1  0.60814829  0.74962403  0.37351877  1
  Fe  Fe170  1  0.85690055  0.74992910  0.00205860  1
  Fe  Fe171  1  0.85715831  0.08296177  0.50147127  1
  Fe  Fe172  1  0.89204184  0.25053039  0.12690483  1
  Fe  Fe173  1  0.64294109  0.91733685  0.74813002  1
  Fe  Fe174  1  0.60828848  0.08400524  0.62343245  1
  Fe  Fe175  1  0.85716838  0.08301116  0.75144057  1
  Fe  Fe176  1  0.14230745  0.24959760  0.49714704  1
  Fe  Fe177  1  0.85658967  0.74946161  0.50115163  1
  Fe  Fe178  1  0.89331696  0.25038510  0.87653945  1
  Fe  Fe179  1  0.14365167  0.58275591  0.74849247  1
  Fe  Fe180  1  0.10647966  0.74975153  0.12341099  1
  Fe  Fe181  1  0.64288483  0.24961839  0.99838187  1
  Fe  Fe182  1  0.35788550  0.08313063  0.25261152  1
  Fe  Fe183  1  0.64360314  0.91769410  0.24852696  1
  Fe  Fe184  1  0.39323061  0.24999117  0.12695771  1
  Fe  Fe185  1  0.39252659  0.58367142  0.62670728  1
  Fe  Fe186  1  0.60770928  0.74871158  0.12287965  1
  Fe  Fe187  1  0.39367950  0.58332053  0.37650440  1
  Fe  Fe188  1  0.60641066  0.41609789  0.37331647  1
  Fe  Fe189  1  0.89194435  0.91632719  0.37719393  1
  Fe  Fe190  1  0.39353427  0.24970255  0.37641938  1
  Fe  Fe191  1  0.64270563  0.24955466  0.24828554  1
  P  P192  1  0.05168966  0.25066608  0.11093433  1
  P  P193  1  0.05356926  0.24980855  0.36151098  1
  P  P194  1  0.05470589  0.25095663  0.61014478  1
  P  P195  1  0.05324978  0.24916709  0.85965036  1
  P  P196  1  0.05246626  0.58316463  0.11048247  1
  P  P197  1  0.05211654  0.58288591  0.36021152  1
  P  P198  1  0.05540465  0.58235824  0.61099343  1
  P  P199  1  0.05437932  0.58320158  0.85929151  1
  P  P200  1  0.05171458  0.91630213  0.10992058  1
  P  P201  1  0.05237142  0.91745603  0.36142258  1
  P  P202  1  0.05343436  0.91675535  0.60889674  1
  P  P203  1  0.05382093  0.91756056  0.86101367  1
  P  P204  1  0.55413377  0.25086329  0.11077048  1
  P  P205  1  0.55343221  0.25011127  0.35932651  1
  P  P206  1  0.55323316  0.24934931  0.60991853  1
  P  P207  1  0.55415946  0.25026922  0.86097981  1
  P  P208  1  0.55197162  0.58239336  0.11024303  1
  P  P209  1  0.55379506  0.58249136  0.36121772  1
  P  P210  1  0.55222047  0.58253838  0.60901777  1
  P  P211  1  0.55137678  0.58353370  0.86010736  1
  P  P212  1  0.55620285  0.91644623  0.11098231  1
  P  P213  1  0.55509989  0.91723063  0.35940083  1
  P  P214  1  0.55533693  0.91808433  0.61096187  1
  P  P215  1  0.55628209  0.91561773  0.86106792  1
  P  P216  1  0.44613004  0.08391414  0.14040627  1
  P  P217  1  0.44750751  0.08410311  0.38871165  1
  P  P218  1  0.44829382  0.08326379  0.64023501  1
  P  P219  1  0.44728199  0.08318189  0.89052949  1
  P  P220  1  0.44561534  0.41624950  0.13925598  1
  P  P221  1  0.44570305  0.41570695  0.38883641  1
  P  P222  1  0.44392592  0.41683010  0.63892453  1
  P  P223  1  0.44338850  0.41719065  0.88902465  1
  P  P224  1  0.44861293  0.74974762  0.13999548  1
  P  P225  1  0.44883717  0.75011425  0.38960468  1
  P  P226  1  0.44686412  0.74965758  0.63985201  1
  P  P227  1  0.44815172  0.74995815  0.89033054  1
  P  P228  1  0.94528609  0.08340693  0.14064558  1
  P  P229  1  0.94480937  0.08374020  0.38924017  1
  P  P230  1  0.94429725  0.08431452  0.63892539  1
  P  P231  1  0.94626040  0.08440216  0.88847138  1
  P  P232  1  0.94767472  0.41659877  0.13999514  1
  P  P233  1  0.94782899  0.41689918  0.39012277  1
  P  P234  1  0.94864122  0.41597282  0.63969793  1
  P  P235  1  0.94724123  0.41567101  0.89011300  1
  P  P236  1  0.94587773  0.75011999  0.13856548  1
  P  P237  1  0.94529090  0.74960311  0.39060205  1
  P  P238  1  0.94510708  0.74970879  0.63896110  1
  P  P239  1  0.94552971  0.74988436  0.89076179  1
  P  P240  1  0.19628955  0.08367528  0.23660564  1
  P  P241  1  0.19523291  0.08352380  0.48381244  1
  P  P242  1  0.19486881  0.08454253  0.73596056  1
  P  P243  1  0.19506742  0.08269195  0.98508891  1
  P  P244  1  0.19644388  0.41686404  0.23599925  1
  P  P245  1  0.19615713  0.41598016  0.48476690  1
  P  P246  1  0.19727670  0.41679870  0.73436757  1
  P  P247  1  0.19686725  0.41665574  0.98718097  1
  P  P248  1  0.19585578  0.74970518  0.23415375  1
  P  P249  1  0.19710397  0.75075787  0.48418079  1
  P  P250  1  0.19692580  0.74864651  0.73484235  1
  P  P251  1  0.19507164  0.75072275  0.98659038  1
  P  P252  1  0.69683898  0.08410570  0.23648335  1
  P  P253  1  0.69652473  0.08393302  0.48511419  1
  P  P254  1  0.69787594  0.08303728  0.73401954  1
  P  P255  1  0.69718419  0.08404144  0.98563771  1
  P  P256  1  0.69413576  0.41548841  0.23556679  1
  P  P257  1  0.69574910  0.41743724  0.48391506  1
  P  P258  1  0.69686695  0.41628607  0.73473883  1
  P  P259  1  0.69502890  0.41573886  0.98646431  1
  P  P260  1  0.69450660  0.75035585  0.23578210  1
  P  P261  1  0.69713391  0.74891057  0.48392682  1
  P  P262  1  0.69501344  0.75037800  0.73626862  1
  P  P263  1  0.69595185  0.75015505  0.98638837  1
  P  P264  1  0.30378472  0.25029993  0.01648170  1
  P  P265  1  0.30604961  0.24995306  0.26447354  1
  P  P266  1  0.30322188  0.25010947  0.51287296  1
  P  P267  1  0.30123472  0.25066616  0.76476174  1
  P  P268  1  0.30576471  0.58304697  0.01490031  1
  P  P269  1  0.30622594  0.58279766  0.26428413  1
  P  P270  1  0.30634183  0.58253145  0.51337346  1
  P  P271  1  0.30386391  0.58233992  0.76415117  1
  P  P272  1  0.30156107  0.91695733  0.01545738  1
  P  P273  1  0.30348586  0.91746024  0.26514135  1
  P  P274  1  0.30173856  0.91733495  0.51483462  1
  P  P275  1  0.30317058  0.91691092  0.76545499  1
  P  P276  1  0.80415837  0.25014411  0.01478912  1
  P  P277  1  0.80418578  0.24985449  0.26458553  1
  P  P278  1  0.80593346  0.24992877  0.51409101  1
  P  P279  1  0.80587006  0.24937389  0.76408044  1
  P  P280  1  0.80370091  0.58381007  0.01617359  1
  P  P281  1  0.80524374  0.58293960  0.26427498  1
  P  P282  1  0.80285142  0.58376696  0.51357545  1
  P  P283  1  0.80253699  0.58287632  0.76548843  1
  P  P284  1  0.80259652  0.91577183  0.01586855  1
  P  P285  1  0.80443223  0.91733965  0.26420027  1
  P  P286  1  0.80461259  0.91617359  0.51322805  1
  P  P287  1  0.80188741  0.91772736  0.76489656  1
  O  O288  1  0.05574055  0.25016812  0.18766356  1
  O  O289  1  0.05805573  0.24969442  0.43814447  1
  O  O290  1  0.05913379  0.25046910  0.68686929  1
  O  O291  1  0.05674815  0.24982327  0.93630221  1
  O  O292  1  0.05602658  0.58336466  0.18721821  1
  O  O293  1  0.05634477  0.58338391  0.43682890  1
  O  O294  1  0.05994576  0.58303639  0.68769073  1
  O  O295  1  0.05745833  0.58315396  0.93605198  1
  O  O296  1  0.05509917  0.91670586  0.18673560  1
  O  O297  1  0.05745297  0.91698355  0.43799996  1
  O  O298  1  0.05676931  0.91656951  0.68571850  1
  O  O299  1  0.05769955  0.91698533  0.93772457  1
  O  O300  1  0.55885813  0.24970555  0.18738907  1
  O  O301  1  0.55698692  0.24978388  0.43614522  1
  O  O302  1  0.55657556  0.25019917  0.68661436  1
  O  O303  1  0.55861471  0.24996888  0.93774723  1
  O  O304  1  0.55552716  0.58236735  0.18690267  1
  O  O305  1  0.55805078  0.58263440  0.43788564  1
  O  O306  1  0.55584175  0.58250022  0.68573751  1
  O  O307  1  0.55541348  0.58260658  0.93676960  1
  O  O308  1  0.56031344  0.91777048  0.18770544  1
  O  O309  1  0.55743942  0.91738472  0.43611515  1
  O  O310  1  0.55925442  0.91763902  0.68777822  1
  O  O311  1  0.56053776  0.91687546  0.93787562  1
  O  O312  1  0.44301931  0.08295796  0.06361562  1
  O  O313  1  0.44231834  0.08331887  0.31212976  1
  O  O314  1  0.44404399  0.08332755  0.56351099  1
  O  O315  1  0.44362190  0.08333561  0.81380782  1
  O  O316  1  0.44155864  0.41592666  0.06250037  1
  O  O317  1  0.44184594  0.41572701  0.31209065  1
  O  O318  1  0.44040635  0.41535582  0.56211370  1
  O  O319  1  0.43925965  0.41600465  0.81225356  1
  O  O320  1  0.44461478  0.75077417  0.06333838  1
  O  O321  1  0.44515409  0.75085642  0.31295696  1
  O  O322  1  0.44393364  0.75066679  0.56307204  1
  O  O323  1  0.44440048  0.75076269  0.81363782  1
  O  O324  1  0.94320236  0.08351558  0.06402610  1
  O  O325  1  0.94051898  0.08353282  0.31248005  1
  O  O326  1  0.94045451  0.08317039  0.56219466  1
  O  O327  1  0.94173628  0.08305982  0.81172635  1
  O  O328  1  0.94419369  0.41633140  0.06361720  1
  O  O329  1  0.94384229  0.41679341  0.31331500  1
  O  O330  1  0.94436246  0.41686704  0.56313684  1
  O  O331  1  0.94436816  0.41644473  0.81328131  1
  O  O332  1  0.94127100  0.75031498  0.06195809  1
  O  O333  1  0.94287126  0.74994232  0.31370891  1
  O  O334  1  0.94031576  0.74962027  0.56227376  1
  O  O335  1  0.94255614  0.75009026  0.81391712  1
  O  O336  1  0.19238882  0.08356343  0.06193629  1
  O  O337  1  0.19015511  0.08369887  0.31308765  1
  O  O338  1  0.19240645  0.08367998  0.56073557  1
  O  O339  1  0.19076711  0.08399787  0.81266052  1
  O  O340  1  0.19146540  0.41679445  0.06382582  1
  O  O341  1  0.19087119  0.41700698  0.31263537  1
  O  O342  1  0.19175994  0.41652872  0.56146941  1
  O  O343  1  0.19454594  0.41680102  0.81117903  1
  O  O344  1  0.19027164  0.74998607  0.06330930  1
  O  O345  1  0.19235007  0.74939126  0.31090237  1
  O  O346  1  0.19394821  0.74987930  0.56092551  1
  O  O347  1  0.19379735  0.74917395  0.81163943  1
  O  O348  1  0.69446821  0.08444241  0.06247016  1
  O  O349  1  0.69240426  0.08443931  0.31324590  1
  O  O350  1  0.69189545  0.08437336  0.56176393  1
  O  O351  1  0.69435303  0.08389511  0.81083438  1
  O  O352  1  0.69041823  0.41677134  0.06326836  1
  O  O353  1  0.68983200  0.41640644  0.31225272  1
  O  O354  1  0.69249588  0.41663532  0.56067105  1
  O  O355  1  0.69328251  0.41628793  0.81150077  1
  O  O356  1  0.69126413  0.74871468  0.06313861  1
  O  O357  1  0.69053831  0.74892993  0.31254745  1
  O  O358  1  0.69368374  0.74936679  0.56073114  1
  O  O359  1  0.69127492  0.74899552  0.81304890  1
  O  O360  1  0.30994122  0.24998663  0.18773374  1
  O  O361  1  0.30875111  0.24947796  0.43631487  1
  O  O362  1  0.30481585  0.24957177  0.68802565  1
  O  O363  1  0.30599596  0.24978309  0.93968934  1
  O  O364  1  0.31021642  0.58365137  0.18746092  1
  O  O365  1  0.31077431  0.58348713  0.43654924  1
  O  O366  1  0.30811860  0.58368368  0.68742684  1
  O  O367  1  0.30940904  0.58412270  0.93807185  1
  O  O368  1  0.30706329  0.91700206  0.18840548  1
  O  O369  1  0.30646034  0.91718110  0.43819090  1
  O  O370  1  0.30661555  0.91707569  0.68867655  1
  O  O371  1  0.30595478  0.91640616  0.93882950  1
  O  O372  1  0.80890541  0.25105147  0.18789767  1
  O  O373  1  0.80980788  0.25115879  0.43726742  1
  O  O374  1  0.80989939  0.25095014  0.68731137  1
  O  O375  1  0.80915828  0.25035076  0.93808081  1
  O  O376  1  0.81006928  0.58273023  0.18759162  1
  O  O377  1  0.80800559  0.58248216  0.43690319  1
  O  O378  1  0.80591388  0.58263506  0.68865733  1
  O  O379  1  0.80673614  0.58284470  0.93939882  1
  O  O380  1  0.80885690  0.91643340  0.18754391  1
  O  O381  1  0.80812744  0.91638291  0.43633512  1
  O  O382  1  0.80548553  0.91710316  0.68818863  1
  O  O383  1  0.80590906  0.91627997  0.93907394  1
  O  O384  1  0.23426443  0.24980658  0.04230501  1
  O  O385  1  0.23587433  0.25024129  0.28844410  1
  O  O386  1  0.23273163  0.24988308  0.53607293  1
  O  O387  1  0.23134311  0.25117893  0.78978565  1
  O  O388  1  0.23576863  0.58312637  0.03926699  1
  O  O389  1  0.23611928  0.58297376  0.28841290  1
  O  O390  1  0.23614564  0.58310609  0.53693679  1
  O  O391  1  0.23373363  0.58245798  0.78866366  1
  O  O392  1  0.23146325  0.91743770  0.03980339  1
  O  O393  1  0.23354714  0.91698882  0.28953860  1
  O  O394  1  0.23153689  0.91748493  0.53879541  1
  O  O395  1  0.23334813  0.91650861  0.79008216  1
  O  O396  1  0.73374475  0.25000180  0.03837604  1
  O  O397  1  0.73377758  0.24999596  0.28806578  1
  O  O398  1  0.73575218  0.25050845  0.53801811  1
  O  O399  1  0.73586506  0.24955150  0.78836301  1
  O  O400  1  0.73391520  0.58354211  0.04122188  1
  O  O401  1  0.73487611  0.58301576  0.28727980  1
  O  O402  1  0.73247086  0.58349155  0.53719414  1
  O  O403  1  0.73294866  0.58288368  0.79078261  1
  O  O404  1  0.73257367  0.91685526  0.04054694  1
  O  O405  1  0.73404001  0.91698326  0.28785139  1
  O  O406  1  0.73484897  0.91669247  0.53789594  1
  O  O407  1  0.73202013  0.91704587  0.78980623  1
  O  O408  1  0.26686536  0.08361700  0.21393636  1
  O  O409  1  0.26498657  0.08351090  0.45882340  1
  O  O410  1  0.26467968  0.08379814  0.71110258  1
  O  O411  1  0.26469048  0.08345243  0.95967297  1
  O  O412  1  0.26713635  0.41643370  0.21355509  1
  O  O413  1  0.26660083  0.41640012  0.46116438  1
  O  O414  1  0.26707128  0.41640564  0.70894001  1
  O  O415  1  0.26726647  0.41666135  0.96386163  1
  O  O416  1  0.26574002  0.75049428  0.20963187  1
  O  O417  1  0.26679723  0.75034955  0.45897722  1
  O  O418  1  0.26653663  0.74978360  0.70953046  1
  O  O419  1  0.26515397  0.75006761  0.96258641  1
  O  O420  1  0.76710293  0.08397263  0.21257783  1
  O  O421  1  0.76698846  0.08358789  0.46173063  1
  O  O422  1  0.76782034  0.08368634  0.70930595  1
  O  O423  1  0.76660249  0.08331016  0.96005319  1
  O  O424  1  0.76439579  0.41599704  0.21182825  1
  O  O425  1  0.76553559  0.41674231  0.45903125  1
  O  O426  1  0.76652433  0.41654774  0.70959875  1
  O  O427  1  0.76500935  0.41606442  0.96256104  1
  O  O428  1  0.76470968  0.75024478  0.21201508  1
  O  O429  1  0.76704336  0.74946339  0.45906550  1
  O  O430  1  0.76480046  0.75033097  0.71137819  1
  O  O431  1  0.76632885  0.74973637  0.96275959  1
  O  O432  1  0.01484427  0.08328544  0.16666155  1
  O  O433  1  0.01511943  0.08399732  0.41322651  1
  O  O434  1  0.01441160  0.08371051  0.66292351  1
  O  O435  1  0.01635273  0.08431716  0.91277591  1
  O  O436  1  0.01763986  0.41696204  0.16525116  1
  O  O437  1  0.01792559  0.41641009  0.41445992  1
  O  O438  1  0.01873924  0.41609413  0.66397557  1
  O  O439  1  0.01691502  0.41598729  0.91528613  1
  O  O440  1  0.01610544  0.74988387  0.16285265  1
  O  O441  1  0.01487865  0.74964858  0.41605893  1
  O  O442  1  0.01521632  0.74989022  0.66272866  1
  O  O443  1  0.01527844  0.74988729  0.91553683  1
  O  O444  1  0.51609837  0.08395922  0.16491429  1
  O  O445  1  0.51801130  0.08389508  0.41200642  1
  O  O446  1  0.51832305  0.08377010  0.66471768  1
  O  O447  1  0.51705879  0.08327828  0.91532012  1
  O  O448  1  0.51589473  0.41646339  0.16332844  1
  O  O449  1  0.51603106  0.41580798  0.41288898  1
  O  O450  1  0.51379531  0.41663595  0.66365109  1
  O  O451  1  0.51346488  0.41666253  0.91315003  1
  O  O452  1  0.51874697  0.74939294  0.16429982  1
  O  O453  1  0.51890532  0.74991292  0.41430398  1
  O  O454  1  0.51653432  0.74960238  0.66494693  1
  O  O455  1  0.51811869  0.74940545  0.91507120  1
  O  O456  1  0.48366897  0.25033943  0.08732744  1
  O  O457  1  0.48334612  0.25041845  0.33499490  1
  O  O458  1  0.48357694  0.24942903  0.58474087  1
  O  O459  1  0.48412438  0.25031904  0.83696499  1
  O  O460  1  0.48194915  0.58263455  0.08560959  1
  O  O461  1  0.48345794  0.58248985  0.33721566  1
  O  O462  1  0.48214543  0.58267310  0.58473628  1
  O  O463  1  0.48131643  0.58371760  0.83563925  1
  O  O464  1  0.48615831  0.91676353  0.08672234  1
  O  O465  1  0.48554077  0.91705904  0.33365942  1
  O  O466  1  0.48552946  0.91713652  0.58611556  1
  O  O467  1  0.48626573  0.91670058  0.83692872  1
  O  O468  1  0.98166513  0.25002840  0.08640249  1
  O  O469  1  0.98314647  0.25030235  0.33779593  1
  O  O470  1  0.98431525  0.25034366  0.58659084  1
  O  O471  1  0.98330270  0.25002872  0.83484336  1
  O  O472  1  0.98247049  0.58303868  0.08567805  1
  O  O473  1  0.98198425  0.58342170  0.33594859  1
  O  O474  1  0.98529870  0.58235595  0.58707248  1
  O  O475  1  0.98465699  0.58296262  0.83426796  1
  O  O476  1  0.98162011  0.91707253  0.08532711  1
  O  O477  1  0.98187844  0.91653357  0.33800848  1
  O  O478  1  0.98356379  0.91725399  0.58457114  1
  O  O479  1  0.98392479  0.91690968  0.83627859  1
  O  O480  1  0.08541309  0.31575833  0.07832846  1
  O  O481  1  0.08722966  0.31474083  0.32839987  1
  O  O482  1  0.08814935  0.31593167  0.57700591  1
  O  O483  1  0.08775515  0.31401336  0.82688150  1
  O  O484  1  0.08615271  0.64820051  0.07769480  1
  O  O485  1  0.08596712  0.64779285  0.32717785  1
  O  O486  1  0.08869724  0.64728000  0.57730873  1
  O  O487  1  0.08845678  0.64820291  0.82676562  1
  O  O488  1  0.08599177  0.98123586  0.07742383  1
  O  O489  1  0.08489833  0.98280603  0.32788900  1
  O  O490  1  0.08759626  0.98179579  0.57646711  1
  O  O491  1  0.08715415  0.98287278  0.82828525  1
  O  O492  1  0.58711692  0.31611085  0.07765174  1
  O  O493  1  0.58735564  0.31514003  0.32683017  1
  O  O494  1  0.58720537  0.31438776  0.57707927  1
  O  O495  1  0.58761926  0.31524310  0.82783194  1
  O  O496  1  0.58600146  0.64735553  0.07764016  1
  O  O497  1  0.58717787  0.64743978  0.32793329  1
  O  O498  1  0.58637096  0.64748792  0.57630389  1
  O  O499  1  0.58542738  0.64858481  0.82786216  1
  O  O500  1  0.59002535  0.98129234  0.07755317  1
  O  O501  1  0.58951312  0.98236699  0.32711612  1
  O  O502  1  0.58874645  0.98333757  0.57825660  1
  O  O503  1  0.59063975  0.98015450  0.82752246  1
  O  O504  1  0.41214846  0.01904868  0.17343795  1
  O  O505  1  0.41438476  0.01921053  0.42259775  1
  O  O506  1  0.41473347  0.01817151  0.67304651  1
  O  O507  1  0.41347106  0.01810231  0.92318943  1
  O  O508  1  0.41231749  0.35120350  0.17264288  1
  O  O509  1  0.41230532  0.35057825  0.42203821  1
  O  O510  1  0.40984999  0.35222348  0.67244886  1
  O  O511  1  0.40952402  0.35255559  0.92277566  1
  O  O512  1  0.41467506  0.68473936  0.17236005  1
  O  O513  1  0.41479926  0.68507213  0.42180002  1
  O  O514  1  0.41288831  0.68415992  0.67160215  1
  O  O515  1  0.41368194  0.68505736  0.92239936  1
  O  O516  1  0.91071519  0.01829628  0.17264537  1
  O  O517  1  0.91142027  0.01866730  0.42247269  1
  O  O518  1  0.91034632  0.01974933  0.67265032  1
  O  O519  1  0.91275271  0.01963673  0.92223556  1
  O  O520  1  0.91386849  0.35150810  0.17304533  1
  O  O521  1  0.91384661  0.35200923  0.42271598  1
  O  O522  1  0.91500998  0.35073838  0.67219771  1
  O  O523  1  0.91324808  0.35041329  0.92211242  1
  O  O524  1  0.91233845  0.68513815  0.17175680  1
  O  O525  1  0.91103792  0.68442100  0.42265824  1
  O  O526  1  0.91177129  0.68461469  0.67211097  1
  O  O527  1  0.91133155  0.68488433  0.92311807  1
  O  O528  1  0.16310145  0.01877969  0.20292183  1
  O  O529  1  0.16078628  0.01852536  0.45163807  1
  O  O530  1  0.16065159  0.01977493  0.70290471  1
  O  O531  1  0.16092122  0.01753253  0.95306738  1
  O  O532  1  0.16310914  0.35198544  0.20240213  1
  O  O533  1  0.16281732  0.35095539  0.45155007  1
  O  O534  1  0.16276501  0.35193846  0.70194823  1
  O  O535  1  0.16384151  0.35147612  0.95380546  1
  O  O536  1  0.16227658  0.68446397  0.20140425  1
  O  O537  1  0.16304274  0.68572391  0.45149048  1
  O  O538  1  0.16356890  0.68322478  0.70245133  1
  O  O539  1  0.16160292  0.68574450  0.95325248  1
  O  O540  1  0.66357301  0.01899955  0.20347047  1
  O  O541  1  0.66303016  0.01911810  0.45180921  1
  O  O542  1  0.66414071  0.01779725  0.70174673  1
  O  O543  1  0.66274285  0.01888215  0.95387824  1
  O  O544  1  0.66090179  0.35024034  0.20274320  1
  O  O545  1  0.66129696  0.35254129  0.45123444  1
  O  O546  1  0.66304754  0.35114878  0.70211511  1
  O  O547  1  0.66170114  0.35045002  0.95373238  1
  O  O548  1  0.66105652  0.68543289  0.20206012  1
  O  O549  1  0.66304048  0.68394447  0.45140729  1
  O  O550  1  0.66129177  0.68552191  0.70284918  1
  O  O551  1  0.66222587  0.68551585  0.95249722  1
  O  O552  1  0.33815062  0.31542491  0.04849819  1
  O  O553  1  0.33964964  0.31502253  0.29752764  1
  O  O554  1  0.33616047  0.31533075  0.54616902  1
  O  O555  1  0.33542542  0.31574384  0.79681033  1
  O  O556  1  0.33968159  0.64784771  0.04822142  1
  O  O557  1  0.34006333  0.64770094  0.29746523  1
  O  O558  1  0.34016828  0.64717951  0.54698242  1
  O  O559  1  0.33761185  0.64703400  0.79805616  1
  O  O560  1  0.33562066  0.98193662  0.04797778  1
  O  O561  1  0.33727417  0.98252219  0.29782039  1
  O  O562  1  0.33536290  0.98238937  0.54781277  1
  O  O563  1  0.33688454  0.98203485  0.79806918  1
  O  O564  1  0.83738253  0.31502006  0.04858705  1
  O  O565  1  0.83762896  0.31472278  0.29841763  1
  O  O566  1  0.83984208  0.31457571  0.54762068  1
  O  O567  1  0.83973426  0.31389876  0.79797619  1
  O  O568  1  0.83782245  0.64900710  0.04825237  1
  O  O569  1  0.83853715  0.64797134  0.29752405  1
  O  O570  1  0.83600927  0.64898909  0.54651374  1
  O  O571  1  0.83666005  0.64797913  0.79767380  1
  O  O572  1  0.83709020  0.98047154  0.04841034  1
  O  O573  1  0.83767181  0.98243555  0.29732194  1
  O  O574  1  0.83842901  0.98128648  0.54587205  1
  O  O575  1  0.83545495  0.98306959  0.79737087  1
  O  O576  1  0.41219999  0.14911635  0.17256854  1
  O  O577  1  0.41442754  0.14935818  0.42188858  1
  O  O578  1  0.41408617  0.14821201  0.67291413  1
  O  O579  1  0.41314796  0.14824138  0.92284832  1
  O  O580  1  0.41201172  0.48122365  0.17230494  1
  O  O581  1  0.41206276  0.48064350  0.42183636  1
  O  O582  1  0.41023070  0.48232689  0.67093415  1
  O  O583  1  0.41011982  0.48263198  0.92152856  1
  O  O584  1  0.41527505  0.81487327  0.17316825  1
  O  O585  1  0.41536463  0.81523736  0.42271029  1
  O  O586  1  0.41293066  0.81453882  0.67269333  1
  O  O587  1  0.41481671  0.81507679  0.92363116  1
  O  O588  1  0.91087573  0.14849350  0.17294244  1
  O  O589  1  0.91134000  0.14882951  0.42219246  1
  O  O590  1  0.91120801  0.14980413  0.67136717  1
  O  O591  1  0.91287377  0.14966624  0.92111995  1
  O  O592  1  0.91342202  0.48158456  0.17255563  1
  O  O593  1  0.91437593  0.48210266  0.42291367  1
  O  O594  1  0.91477404  0.48074280  0.67299518  1
  O  O595  1  0.91289499  0.48048585  0.92265979  1
  O  O596  1  0.91269907  0.81527779  0.17197931  1
  O  O597  1  0.91076685  0.81456695  0.42270749  1
  O  O598  1  0.91176065  0.81487919  0.67214804  1
  O  O599  1  0.91117348  0.81479818  0.92328862  1
  O  O600  1  0.08550400  0.18562791  0.07819501  1
  O  O601  1  0.08635290  0.18462910  0.32791704  1
  O  O602  1  0.08806023  0.18595350  0.57662214  1
  O  O603  1  0.08676655  0.18405797  0.82680287  1
  O  O604  1  0.08642125  0.51802839  0.07807310  1
  O  O605  1  0.08575292  0.51770583  0.32753499  1
  O  O606  1  0.08898576  0.51720647  0.57815613  1
  O  O607  1  0.08892313  0.51823501  0.82702891  1
  O  O608  1  0.08551220  0.85123798  0.07735875  1
  O  O609  1  0.08586028  0.85263278  0.32787317  1
  O  O610  1  0.08740787  0.85186938  0.57611245  1
  O  O611  1  0.08766057  0.85257407  0.82798070  1
  O  O612  1  0.58782099  0.18610480  0.07704542  1
  O  O613  1  0.58734137  0.18519404  0.32630792  1
  O  O614  1  0.58757720  0.18432353  0.57770107  1
  O  O615  1  0.58781302  0.18523535  0.82789871  1
  O  O616  1  0.58544900  0.51728258  0.07733959  1
  O  O617  1  0.58679854  0.51734189  0.32784681  1
  O  O618  1  0.58609035  0.51761413  0.57615118  1
  O  O619  1  0.58466076  0.51847279  0.82676702  1
  O  O620  1  0.58971985  0.85111598  0.07861748  1
  O  O621  1  0.58973660  0.85218437  0.32755766  1
  O  O622  1  0.58954983  0.85317341  0.57815579  1
  O  O623  1  0.58924003  0.84998655  0.82866764  1
  O  O624  1  0.33859824  0.18546194  0.04858293  1
  O  O625  1  0.33959844  0.18492540  0.29764170  1
  O  O626  1  0.33623391  0.18523407  0.54692926  1
  O  O627  1  0.33497446  0.18573634  0.79791379  1
  O  O628  1  0.33946177  0.51782166  0.04740236  1
  O  O629  1  0.33980678  0.51754961  0.29688642  1
  O  O630  1  0.33923258  0.51703412  0.54611123  1
  O  O631  1  0.33721285  0.51689216  0.79646751  1
  O  O632  1  0.33525192  0.85198169  0.04865353  1
  O  O633  1  0.33745133  0.85235917  0.29772548  1
  O  O634  1  0.33544997  0.85227953  0.54768106  1
  O  O635  1  0.33723822  0.85184247  0.79797223  1
  O  O636  1  0.83761866  0.18520068  0.04800249  1
  O  O637  1  0.83773660  0.18484452  0.29746200  1
  O  O638  1  0.83917337  0.18452299  0.54645468  1
  O  O639  1  0.83929781  0.18383996  0.79640662  1
  O  O640  1  0.83800605  0.51899932  0.04895201  1
  O  O641  1  0.83841485  0.51793218  0.29790263  1
  O  O642  1  0.83623085  0.51888854  0.54739241  1
  O  O643  1  0.83676018  0.51786300  0.79786383  1
  O  O644  1  0.83598329  0.85053405  0.04856856  1
  O  O645  1  0.83791129  0.85243107  0.29774396  1
  O  O646  1  0.83774576  0.85081153  0.54597706  1
  O  O647  1  0.83602458  0.85298064  0.79781500  1
  O  O648  1  0.16354817  0.14876753  0.20272941  1
  O  O649  1  0.16102262  0.14857226  0.45143279  1
  O  O650  1  0.16159942  0.14993179  0.70315690  1
  O  O651  1  0.16042102  0.14756230  0.95270027  1
  O  O652  1  0.16368875  0.48190160  0.20212792  1
  O  O653  1  0.16276337  0.48093843  0.45120784  1
  O  O654  1  0.16348644  0.48192813  0.70175386  1
  O  O655  1  0.16387147  0.48152096  0.95336447  1
  O  O656  1  0.16096204  0.81442865  0.20195586  1
  O  O657  1  0.16299324  0.81597386  0.45221013  1
  O  O658  1  0.16205694  0.81341673  0.70257826  1
  O  O659  1  0.16185671  0.81607409  0.95378840  1
  O  O660  1  0.66355435  0.14906142  0.20304946  1
  O  O661  1  0.66340770  0.14899436  0.45147809  1
  O  O662  1  0.66364727  0.14779782  0.70102623  1
  O  O663  1  0.66337605  0.14919042  0.95300891  1
  O  O664  1  0.66040701  0.48032257  0.20201258  1
  O  O665  1  0.66176454  0.48252698  0.45156167  1
  O  O666  1  0.66245596  0.48120538  0.70240452  1
  O  O667  1  0.66147081  0.48075119  0.95306637  1
  O  O668  1  0.66123706  0.81569271  0.20347703  1
  O  O669  1  0.66298545  0.81387457  0.45138146  1
  O  O670  1  0.66152805  0.81583254  0.70399811  1
  O  O671  1  0.66291047  0.81557807  0.95383129  1
