# generated using pymatgen
data_Na2MnFe(PO4)2
_symmetry_space_group_name_H-M   'P 1'
_cell_length_a   21.07916141
_cell_length_b   18.93035051
_cell_length_c   20.03819647
_cell_angle_alpha   89.99962510
_cell_angle_beta   90.00457774
_cell_angle_gamma   89.99815170
_symmetry_Int_Tables_number   1
_chemical_formula_structural   Na2MnFe(PO4)2
_chemical_formula_sum   'Na96 Mn48 Fe48 P96 O384'
_cell_volume   7995.96001280
_cell_formula_units_Z   48
loop_
 _symmetry_equiv_pos_site_id
 _symmetry_equiv_pos_as_xyz
  1  'x, y, z'
loop_
 _atom_site_type_symbol
 _atom_site_label
 _atom_site_symmetry_multiplicity
 _atom_site_fract_x
 _atom_site_fract_y
 _atom_site_fract_z
 _atom_site_occupancy
  Na  Na0  1  0.00011910  -0.00041692  -0.00008245  1
  Na  Na1  1  0.00223940  0.00097790  0.24924471  1
  Na  Na2  1  0.00202902  0.00115735  0.50095657  1
  Na  Na3  1  0.00011061  0.00010603  0.75085909  1
  Na  Na4  1  -0.00093051  0.33345472  -0.00133820  1
  Na  Na5  1  -0.00227807  0.33306194  0.25026756  1
  Na  Na6  1  -0.00259896  0.33230946  0.50057530  1
  Na  Na7  1  -0.00071382  0.33290829  0.75005977  1
  Na  Na8  1  0.00371091  0.66783777  -0.00154745  1
  Na  Na9  1  -0.00179671  0.66592766  0.25121749  1
  Na  Na10  1  0.00040244  0.66695674  0.50042503  1
  Na  Na11  1  0.00268043  0.66718436  0.74958407  1
  Na  Na12  1  0.49923134  0.00058140  -0.00019571  1
  Na  Na13  1  0.50274171  0.00154836  0.24874234  1
  Na  Na14  1  0.50015419  0.00042871  0.50070782  1
  Na  Na15  1  0.49770740  -0.00013460  0.74952878  1
  Na  Na16  1  0.49824126  0.33242583  -0.00039490  1
  Na  Na17  1  0.50141123  0.33314333  0.24869360  1
  Na  Na18  1  0.50268281  0.33380567  0.50082610  1
  Na  Na19  1  0.49976553  0.33329013  0.75066527  1
  Na  Na20  1  0.50026052  0.66690155  0.00044891  1
  Na  Na21  1  0.49924802  0.66585893  0.25070202  1
  Na  Na22  1  0.50160855  0.66709039  0.49868949  1
  Na  Na23  1  0.49833707  0.66522749  0.75101752  1
  Na  Na24  1  0.24770376  -0.00056385  0.12608503  1
  Na  Na25  1  0.24829271  0.00007471  0.37540479  1
  Na  Na26  1  0.25000053  0.00120775  0.62421964  1
  Na  Na27  1  0.25018398  0.00109026  0.87473364  1
  Na  Na28  1  0.25146171  0.33346550  0.12518523  1
  Na  Na29  1  0.24916331  0.33282137  0.37396384  1
  Na  Na30  1  0.24978179  0.33299853  0.62452919  1
  Na  Na31  1  0.25131819  0.33334369  0.87537688  1
  Na  Na32  1  0.24838021  0.66608344  0.12413275  1
  Na  Na33  1  0.25058697  0.66720579  0.37593069  1
  Na  Na34  1  0.24790596  0.66527392  0.62603482  1
  Na  Na35  1  0.24822019  0.66617429  0.87443175  1
  Na  Na36  1  0.74823644  -0.00022973  0.12429539  1
  Na  Na37  1  0.74775416  -0.00059894  0.37454617  1
  Na  Na38  1  0.75088245  0.00029000  0.62523696  1
  Na  Na39  1  0.75231141  0.00108619  0.87620287  1
  Na  Na40  1  0.75221954  0.33416568  0.12610930  1
  Na  Na41  1  0.75100830  0.33293347  0.37603316  1
  Na  Na42  1  0.75086451  0.33347093  0.62423799  1
  Na  Na43  1  0.74989539  0.33278928  0.87409689  1
  Na  Na44  1  0.75036428  0.66634628  0.12487814  1
  Na  Na45  1  0.75178590  0.66737153  0.37553241  1
  Na  Na46  1  0.75031650  0.66694605  0.62445869  1
  Na  Na47  1  0.74972042  0.66618691  0.87451073  1
  Na  Na48  1  0.00063162  0.16701722  -0.00167935  1
  Na  Na49  1  -0.00141371  0.16807824  0.25025584  1
  Na  Na50  1  0.00062177  0.16725574  0.50077811  1
  Na  Na51  1  0.00152722  0.16723871  0.75072555  1
  Na  Na52  1  -0.00021497  0.49942529  -0.00082190  1
  Na  Na53  1  -0.00320758  0.50054079  0.25004710  1
  Na  Na54  1  -0.00100981  0.49990313  0.50054805  1
  Na  Na55  1  -0.00044689  0.49982566  0.74985013  1
  Na  Na56  1  0.00251203  0.83283811  -0.00036606  1
  Na  Na57  1  0.00139901  0.83268759  0.25034118  1
  Na  Na58  1  -0.00130274  0.83383457  0.50042644  1
  Na  Na59  1  0.00099681  0.83293460  0.74993301  1
  Na  Na60  1  0.49959943  0.16685724  -0.00080072  1
  Na  Na61  1  0.50264353  0.16597141  0.24910496  1
  Na  Na62  1  0.50059605  0.16694329  0.50112188  1
  Na  Na63  1  0.49812345  0.16690021  0.75046886  1
  Na  Na64  1  0.49837423  0.50014214  -0.00063539  1
  Na  Na65  1  0.50169492  0.49921488  0.24921592  1
  Na  Na66  1  0.50238278  0.49932646  0.49975488  1
  Na  Na67  1  0.49835273  0.50055088  0.75108872  1
  Na  Na68  1  0.49905664  0.83366887  0.00082957  1
  Na  Na69  1  0.49987873  0.83343026  0.25005600  1
  Na  Na70  1  0.50039582  0.83303926  0.49895891  1
  Na  Na71  1  0.50099580  0.83201283  0.75007782  1
  Na  Na72  1  0.25139800  0.16642593  0.12595082  1
  Na  Na73  1  0.24979531  0.16695849  0.37445277  1
  Na  Na74  1  0.24912157  0.16729861  0.62455335  1
  Na  Na75  1  0.25063323  0.16711511  0.87511869  1
  Na  Na76  1  0.24896216  0.50054867  0.12472213  1
  Na  Na77  1  0.24902841  0.50064042  0.37496988  1
  Na  Na78  1  0.25135457  0.49971788  0.62528514  1
  Na  Na79  1  0.25130776  0.49977915  0.87456819  1
  Na  Na80  1  0.24782704  0.83341262  0.12440554  1
  Na  Na81  1  0.24898921  0.83260392  0.37618432  1
  Na  Na82  1  0.24715397  0.83357223  0.62483514  1
  Na  Na83  1  0.24624622  0.83451066  0.87539486  1
  Na  Na84  1  0.74785908  0.16786272  0.12581744  1
  Na  Na85  1  0.74957023  0.16680004  0.37437754  1
  Na  Na86  1  0.75091148  0.16685238  0.62436828  1
  Na  Na87  1  0.74928821  0.16746526  0.87505246  1
  Na  Na88  1  0.75116194  0.49941688  0.12622935  1
  Na  Na89  1  0.75125630  0.49904660  0.37545114  1
  Na  Na90  1  0.74944171  0.50009971  0.62466737  1
  Na  Na91  1  0.75121917  0.49886931  0.87430831  1
  Na  Na92  1  0.75081084  0.83351999  0.12361693  1
  Na  Na93  1  0.75115469  0.83274334  0.37605603  1
  Na  Na94  1  0.75087010  0.83297531  0.62518652  1
  Na  Na95  1  0.75212973  0.83255275  0.87523418  1
  Mn  Mn96  1  0.64179886  0.58321431  0.74759055  1
  Mn  Mn97  1  0.39141959  0.91689778  0.12765335  1
  Mn  Mn98  1  0.14143533  0.25023372  0.24719348  1
  Mn  Mn99  1  0.39056821  0.91620311  0.87721696  1
  Mn  Mn100  1  0.64298877  0.91703897  0.74837699  1
  Mn  Mn101  1  0.89305904  0.91693146  0.12762122  1
  Mn  Mn102  1  0.89276930  0.58410622  0.87699049  1
  Mn  Mn103  1  0.10786595  0.08417442  0.12223208  1
  Mn  Mn104  1  0.10680226  0.41669340  0.12270868  1
  Mn  Mn105  1  0.39166602  0.58342538  0.12708739  1
  Mn  Mn106  1  0.10796793  0.41649478  0.62264478  1
  Mn  Mn107  1  0.64225428  0.91624580  0.99682264  1
  Mn  Mn108  1  0.85707290  0.08277571  0.25223349  1
  Mn  Mn109  1  0.89271009  0.91755058  0.62803941  1
  Mn  Mn110  1  0.60786144  0.08277152  0.62350515  1
  Mn  Mn111  1  0.89218434  0.91744795  0.37666365  1
  Mn  Mn112  1  0.35679501  0.75042589  0.75187037  1
  Mn  Mn113  1  0.89204204  0.24964758  0.87710679  1
  Mn  Mn114  1  0.64347632  0.58374161  0.24776704  1
  Mn  Mn115  1  0.39272631  0.58254283  0.37735485  1
  Mn  Mn116  1  0.35825729  0.41752843  0.25266645  1
  Mn  Mn117  1  0.64209643  0.91639955  0.49796623  1
  Mn  Mn118  1  0.35765777  0.74986416  0.50289426  1
  Mn  Mn119  1  0.35613293  0.75037548  0.00237530  1
  Mn  Mn120  1  0.10627798  0.41641094  0.37312290  1
  Mn  Mn121  1  0.39345055  0.24995497  0.37687107  1
  Mn  Mn122  1  0.10851112  0.08331559  0.87261698  1
  Mn  Mn123  1  0.39178916  0.91532768  0.62745835  1
  Mn  Mn124  1  0.60768634  0.75011888  0.87293587  1
  Mn  Mn125  1  0.60809765  0.75002913  0.12316551  1
  Mn  Mn126  1  0.60842635  0.41629947  0.12198748  1
  Mn  Mn127  1  0.39208784  0.25108538  0.62719925  1
  Mn  Mn128  1  0.10839265  0.41692943  0.87242893  1
  Mn  Mn129  1  0.60702091  0.41656730  0.87326271  1
  Mn  Mn130  1  0.89237976  0.58328999  0.12645642  1
  Mn  Mn131  1  0.60852847  0.75049679  0.37181537  1
  Mn  Mn132  1  0.64296826  0.25012842  0.49792728  1
  Mn  Mn133  1  0.60695357  0.08304609  0.87234403  1
  Mn  Mn134  1  0.85746384  0.08452976  0.00271596  1
  Mn  Mn135  1  0.14098541  0.58372998  0.24812294  1
  Mn  Mn136  1  0.14181803  0.91695539  0.49736312  1
  Mn  Mn137  1  0.85889270  0.74884962  0.00233519  1
  Mn  Mn138  1  0.85857263  0.08297819  0.50220568  1
  Mn  Mn139  1  0.35850839  0.41635378  0.50176124  1
  Mn  Mn140  1  0.35802778  0.08224581  0.25278022  1
  Mn  Mn141  1  0.10693555  0.75004416  0.37280226  1
  Mn  Mn142  1  0.39230897  0.91740451  0.37650339  1
  Mn  Mn143  1  0.89252989  0.58297360  0.62764641  1
  Fe  Fe144  1  0.39313995  0.58344325  0.62592238  1
  Fe  Fe145  1  0.64248560  0.25104733  0.99825425  1
  Fe  Fe146  1  0.35668193  0.41626562  0.00190122  1
  Fe  Fe147  1  0.14249717  0.58235162  0.99770862  1
  Fe  Fe148  1  0.10783786  0.08365719  0.62353603  1
  Fe  Fe149  1  0.64264762  0.91648073  0.24801393  1
  Fe  Fe150  1  0.35783840  0.41626885  0.75121933  1
  Fe  Fe151  1  0.35632934  0.08367055  0.75094171  1
  Fe  Fe152  1  0.64306905  0.58339883  0.49872453  1
  Fe  Fe153  1  0.85668552  0.41705693  0.50229752  1
  Fe  Fe154  1  0.35672178  0.08370569  0.00185907  1
  Fe  Fe155  1  0.64356265  0.24974461  0.24790414  1
  Fe  Fe156  1  0.14206022  0.91750079  0.74788675  1
  Fe  Fe157  1  0.85713902  0.41649530  0.00120502  1
  Fe  Fe158  1  0.10769505  0.74953113  0.12383990  1
  Fe  Fe159  1  0.89384927  0.91640722  0.87617836  1
  Fe  Fe160  1  0.14343101  0.25051554  0.74839202  1
  Fe  Fe161  1  0.39174990  0.58338968  0.87733326  1
  Fe  Fe162  1  0.10746878  0.08405257  0.37367456  1
  Fe  Fe163  1  0.85828287  0.08353220  0.75164259  1
  Fe  Fe164  1  0.60882238  0.41597418  0.37305162  1
  Fe  Fe165  1  0.35695049  0.08370887  0.50125968  1
  Fe  Fe166  1  0.14237627  0.91736335  0.99795736  1
  Fe  Fe167  1  0.14264844  0.58214921  0.49839175  1
  Fe  Fe168  1  0.60762515  0.41738461  0.62408106  1
  Fe  Fe169  1  0.35651066  0.75012077  0.25107877  1
  Fe  Fe170  1  0.14362210  0.58241286  0.74771507  1
  Fe  Fe171  1  0.14231000  0.91619278  0.24851996  1
  Fe  Fe172  1  0.14338158  0.25033925  0.99890801  1
  Fe  Fe173  1  0.10684117  0.75002830  0.62330386  1
  Fe  Fe174  1  0.64265015  0.24979182  0.74849866  1
  Fe  Fe175  1  0.89332757  0.24936319  0.62735337  1
  Fe  Fe176  1  0.85808932  0.75004256  0.75159600  1
  Fe  Fe177  1  0.89181495  0.58324289  0.37782845  1
  Fe  Fe178  1  0.60698778  0.08349963  0.12252820  1
  Fe  Fe179  1  0.85715487  0.74968750  0.50236025  1
  Fe  Fe180  1  0.39336676  0.24977344  0.12649013  1
  Fe  Fe181  1  0.85723632  0.41669887  0.25247276  1
  Fe  Fe182  1  0.64265924  0.58256943  0.99849798  1
  Fe  Fe183  1  0.85824116  0.75023660  0.25125840  1
  Fe  Fe184  1  0.10760904  0.75000380  0.87255311  1
  Fe  Fe185  1  0.89232507  0.24957417  0.37699102  1
  Fe  Fe186  1  0.39187114  0.25017565  0.87707531  1
  Fe  Fe187  1  0.60805017  0.74920446  0.62386887  1
  Fe  Fe188  1  0.14219672  0.25086828  0.49814970  1
  Fe  Fe189  1  0.89197802  0.24958906  0.12615263  1
  Fe  Fe190  1  0.60785267  0.08388126  0.37353243  1
  Fe  Fe191  1  0.85675152  0.41658479  0.75123472  1
  P  P192  1  0.05188412  0.25066082  0.10869101  1
  P  P193  1  0.05285856  0.24986981  0.36127415  1
  P  P194  1  0.05457251  0.24966692  0.61108077  1
  P  P195  1  0.05565771  0.25045769  0.86033122  1
  P  P196  1  0.05351434  0.58376217  0.10910803  1
  P  P197  1  0.05202976  0.58277495  0.36153386  1
  P  P198  1  0.05524266  0.58343254  0.61062747  1
  P  P199  1  0.05569647  0.58335580  0.85979327  1
  P  P200  1  0.05547365  0.91577286  0.11046897  1
  P  P201  1  0.05380938  0.91765707  0.35952834  1
  P  P202  1  0.05486853  0.91705335  0.61154766  1
  P  P203  1  0.05472937  0.91645096  0.86036464  1
  P  P204  1  0.55439403  0.24944661  0.10994025  1
  P  P205  1  0.55504882  0.24993982  0.35930064  1
  P  P206  1  0.55499630  0.25068145  0.61185899  1
  P  P207  1  0.55331839  0.25014516  0.86052736  1
  P  P208  1  0.55408936  0.58304531  0.10916223  1
  P  P209  1  0.55554173  0.58229877  0.36081868  1
  P  P210  1  0.55319882  0.58311829  0.60972036  1
  P  P211  1  0.55289547  0.58284395  0.86142214  1
  P  P212  1  0.55439658  0.91722867  0.11068501  1
  P  P213  1  0.55412748  0.91790512  0.35903088  1
  P  P214  1  0.55331122  0.91550069  0.61028319  1
  P  P215  1  0.55216487  0.91682850  0.85950045  1
  P  P216  1  0.44611965  0.08430303  0.13854404  1
  P  P217  1  0.44798031  0.08362238  0.39055369  1
  P  P218  1  0.44442851  0.08360411  0.63954454  1
  P  P219  1  0.44351397  0.08409387  0.88924435  1
  P  P220  1  0.44557262  0.41583909  0.13850552  1
  P  P221  1  0.44927848  0.41602248  0.39001042  1
  P  P222  1  0.44767390  0.41777872  0.64045916  1
  P  P223  1  0.44372862  0.41634592  0.88934630  1
  P  P224  1  0.44574117  0.74996432  0.14096537  1
  P  P225  1  0.44551503  0.75021172  0.38869182  1
  P  P226  1  0.44818492  0.74846117  0.63993662  1
  P  P227  1  0.44573171  0.74926519  0.89043513  1
  P  P228  1  0.94674225  0.08455765  0.13982872  1
  P  P229  1  0.94806860  0.08378640  0.39005148  1
  P  P230  1  0.94807003  0.08450577  0.64098269  1
  P  P231  1  0.94577900  0.08269009  0.88896347  1
  P  P232  1  0.94415978  0.41557764  0.13918041  1
  P  P233  1  0.94373956  0.41642246  0.38995324  1
  P  P234  1  0.94494280  0.41571461  0.63960698  1
  P  P235  1  0.94481156  0.41672696  0.88901177  1
  P  P236  1  0.94816157  0.74977416  0.14043940  1
  P  P237  1  0.94427587  0.74971344  0.38998318  1
  P  P238  1  0.94626960  0.74982759  0.63967020  1
  P  P239  1  0.94733458  0.75071089  0.88844782  1
  P  P240  1  0.19510922  0.08290163  0.23639737  1
  P  P241  1  0.19554118  0.08488421  0.48546881  1
  P  P242  1  0.19695522  0.08401947  0.73456953  1
  P  P243  1  0.19754916  0.08417714  0.98537403  1
  P  P244  1  0.19620173  0.41690823  0.23478518  1
  P  P245  1  0.19659945  0.41658880  0.48484700  1
  P  P246  1  0.19832367  0.41647173  0.73507076  1
  P  P247  1  0.19747452  0.41607721  0.98522181  1
  P  P248  1  0.19653421  0.75033764  0.23477929  1
  P  P249  1  0.19474941  0.74852307  0.48663100  1
  P  P250  1  0.19416707  0.74988496  0.73567753  1
  P  P251  1  0.19382498  0.74973866  0.98549820  1
  P  P252  1  0.69444599  0.08337199  0.23543787  1
  P  P253  1  0.69656761  0.08344362  0.48448868  1
  P  P254  1  0.69841478  0.08398815  0.73541965  1
  P  P255  1  0.69494328  0.08477656  0.98597042  1
  P  P256  1  0.69708089  0.41567452  0.23648802  1
  P  P257  1  0.69600416  0.41744602  0.48612447  1
  P  P258  1  0.69682383  0.41575370  0.73461229  1
  P  P259  1  0.69773767  0.41642249  0.98500698  1
  P  P260  1  0.69885800  0.75087189  0.23481442  1
  P  P261  1  0.69639625  0.74904317  0.48640122  1
  P  P262  1  0.69793037  0.75014741  0.73469993  1
  P  P263  1  0.69707169  0.74867567  0.98480137  1
  P  P264  1  0.30412646  0.24994258  0.01453170  1
  P  P265  1  0.30463636  0.24989650  0.26401096  1
  P  P266  1  0.30235782  0.24951514  0.51430301  1
  P  P267  1  0.30300865  0.25017156  0.76499940  1
  P  P268  1  0.30274891  0.58273808  0.01353515  1
  P  P269  1  0.30279194  0.58452886  0.26521468  1
  P  P270  1  0.30287074  0.58299972  0.51581007  1
  P  P271  1  0.30451331  0.58286742  0.76392136  1
  P  P272  1  0.30131259  0.91772005  0.01509959  1
  P  P273  1  0.30142230  0.91544776  0.26529991  1
  P  P274  1  0.30314012  0.91753910  0.51478803  1
  P  P275  1  0.30103452  0.91701981  0.76448040  1
  P  P276  1  0.80240078  0.25096119  0.01551778  1
  P  P277  1  0.80416338  0.25013853  0.26456415  1
  P  P278  1  0.80594761  0.25037917  0.51455880  1
  P  P279  1  0.80378047  0.24991526  0.76339922  1
  P  P280  1  0.80230226  0.58211895  0.01465277  1
  P  P281  1  0.80480554  0.58356646  0.26563925  1
  P  P282  1  0.80364182  0.58315378  0.51420113  1
  P  P283  1  0.80353072  0.58325316  0.76458282  1
  P  P284  1  0.80529601  0.91665174  0.01379837  1
  P  P285  1  0.80201305  0.91632359  0.26469460  1
  P  P286  1  0.80378420  0.91618559  0.51525986  1
  P  P287  1  0.80478442  0.91685862  0.76591293  1
  O  O288  1  0.05548049  0.25081042  0.18549348  1
  O  O289  1  0.05775002  0.25059727  0.43796245  1
  O  O290  1  0.05973056  0.25077138  0.68779425  1
  O  O291  1  0.06033987  0.25066827  0.93703700  1
  O  O292  1  0.05550507  0.58273264  0.18599665  1
  O  O293  1  0.05750262  0.58257497  0.43814008  1
  O  O294  1  0.05958409  0.58207620  0.68741105  1
  O  O295  1  0.05968219  0.58189230  0.93662009  1
  O  O296  1  0.05921195  0.91650812  0.18727508  1
  O  O297  1  0.05640464  0.91675087  0.43642127  1
  O  O298  1  0.05844649  0.91720441  0.68838335  1
  O  O299  1  0.05918608  0.91762524  0.93714000  1
  O  O300  1  0.55942128  0.25041692  0.18660053  1
  O  O301  1  0.55748729  0.25017540  0.43617906  1
  O  O302  1  0.55877213  0.24964084  0.68864955  1
  O  O303  1  0.55831900  0.25047123  0.93720827  1
  O  O304  1  0.55793592  0.58285022  0.18597805  1
  O  O305  1  0.55972933  0.58316241  0.43759399  1
  O  O306  1  0.55599062  0.58326146  0.68656311  1
  O  O307  1  0.55842341  0.58263299  0.93800726  1
  O  O308  1  0.55900372  0.91627323  0.18742792  1
  O  O309  1  0.55682111  0.91666710  0.43587378  1
  O  O310  1  0.55657743  0.91632634  0.68704905  1
  O  O311  1  0.55579697  0.91715392  0.93630562  1
  O  O312  1  0.44082340  0.08347369  0.06187788  1
  O  O313  1  0.44417119  0.08343748  0.31373874  1
  O  O314  1  0.44024752  0.08395256  0.56277941  1
  O  O315  1  0.43900908  0.08327350  0.81242943  1
  O  O316  1  0.44078167  0.41651510  0.06174720  1
  O  O317  1  0.44494220  0.41631034  0.31330228  1
  O  O318  1  0.44440686  0.41652793  0.56372541  1
  O  O319  1  0.44017308  0.41629622  0.81248035  1
  O  O320  1  0.44196041  0.75016413  0.06416291  1
  O  O321  1  0.44055096  0.75016102  0.31201480  1
  O  O322  1  0.44445639  0.74952514  0.56320506  1
  O  O323  1  0.44248366  0.74975375  0.81363179  1
  O  O324  1  0.94372134  0.08383583  0.06302366  1
  O  O325  1  0.94386674  0.08323694  0.31337816  1
  O  O326  1  0.94443149  0.08384345  0.56427039  1
  O  O327  1  0.94171646  0.08391851  0.81219813  1
  O  O328  1  0.94052915  0.41645809  0.06233407  1
  O  O329  1  0.94029456  0.41651500  0.31302835  1
  O  O330  1  0.94075118  0.41682967  0.56284317  1
  O  O331  1  0.94023534  0.41651186  0.81225722  1
  O  O332  1  0.94480127  0.74980158  0.06362738  1
  O  O333  1  0.94050553  0.75034272  0.31312595  1
  O  O334  1  0.94115880  0.74966043  0.56297096  1
  O  O335  1  0.94228675  0.74967835  0.81177858  1
  O  O336  1  0.19407605  0.08416025  0.06210388  1
  O  O337  1  0.19093641  0.08415189  0.31316211  1
  O  O338  1  0.19115364  0.08428751  0.56221136  1
  O  O339  1  0.19396063  0.08381741  0.81129461  1
  O  O340  1  0.19363594  0.41630305  0.06187426  1
  O  O341  1  0.19221110  0.41662696  0.31153483  1
  O  O342  1  0.19390929  0.41648580  0.56163769  1
  O  O343  1  0.19483626  0.41658044  0.81171158  1
  O  O344  1  0.19074521  0.74945009  0.06232891  1
  O  O345  1  0.19305485  0.74951176  0.31156709  1
  O  O346  1  0.19062093  0.74925288  0.56339388  1
  O  O347  1  0.19097248  0.75016736  0.81257465  1
  O  O348  1  0.69084817  0.08392455  0.06275529  1
  O  O349  1  0.69116511  0.08343830  0.31225870  1
  O  O350  1  0.69340717  0.08352763  0.56129592  1
  O  O351  1  0.69426222  0.08354072  0.81212237  1
  O  O352  1  0.69478110  0.41645967  0.06175761  1
  O  O353  1  0.69275474  0.41580087  0.31319814  1
  O  O354  1  0.69134185  0.41697221  0.56280175  1
  O  O355  1  0.69287950  0.41619650  0.81132324  1
  O  O356  1  0.69380525  0.74966533  0.06156235  1
  O  O357  1  0.69521249  0.75047429  0.31157442  1
  O  O358  1  0.69147084  0.74955473  0.56307024  1
  O  O359  1  0.69373607  0.74990072  0.81139650  1
  O  O360  1  0.30942052  0.24983009  0.18726967  1
  O  O361  1  0.30640209  0.25012092  0.43764884  1
  O  O362  1  0.30619923  0.25043725  0.68820502  1
  O  O363  1  0.30798781  0.24988518  0.93776897  1
  O  O364  1  0.30580905  0.58353811  0.18840456  1
  O  O365  1  0.30702064  0.58321363  0.43907965  1
  O  O366  1  0.30933989  0.58353085  0.68724577  1
  O  O367  1  0.30736472  0.58357770  0.93682969  1
  O  O368  1  0.30503814  0.91645647  0.18855452  1
  O  O369  1  0.30626181  0.91670553  0.43802897  1
  O  O370  1  0.30506429  0.91586529  0.68779464  1
  O  O371  1  0.30479773  0.91703643  0.93836874  1
  O  O372  1  0.80833231  0.24947969  0.18787770  1
  O  O373  1  0.80955064  0.24901978  0.43771610  1
  O  O374  1  0.80847732  0.24951229  0.68674143  1
  O  O375  1  0.80615140  0.24974970  0.93873700  1
  O  O376  1  0.80731325  0.58364439  0.18880951  1
  O  O377  1  0.80773256  0.58318222  0.43749125  1
  O  O378  1  0.80631922  0.58353317  0.68779720  1
  O  O379  1  0.80613136  0.58312333  0.93796811  1
  O  O380  1  0.80600521  0.91726309  0.18797160  1
  O  O381  1  0.80656358  0.91719572  0.43848872  1
  O  O382  1  0.80716734  0.91682145  0.68903327  1
  O  O383  1  0.81018736  0.91657656  0.93708529  1
  O  O384  1  0.23385867  0.24999889  0.03898658  1
  O  O385  1  0.23441604  0.24994034  0.28755872  1
  O  O386  1  0.23230285  0.25017472  0.53887191  1
  O  O387  1  0.23290163  0.25022945  0.78971157  1
  O  O388  1  0.23236341  0.58294271  0.03724295  1
  O  O389  1  0.23311537  0.58412363  0.29047112  1
  O  O390  1  0.23269553  0.58242756  0.53987231  1
  O  O391  1  0.23395346  0.58327130  0.78729165  1
  O  O392  1  0.23121490  0.91703317  0.03956977  1
  O  O393  1  0.23152858  0.91607798  0.29029953  1
  O  O394  1  0.23334539  0.91744150  0.53969095  1
  O  O395  1  0.23091440  0.91750036  0.78893652  1
  O  O396  1  0.73238844  0.25111452  0.04008415  1
  O  O397  1  0.73383485  0.24960827  0.28853035  1
  O  O398  1  0.73583502  0.25019425  0.53858195  1
  O  O399  1  0.73348338  0.25014826  0.78752298  1
  O  O400  1  0.73250698  0.58240107  0.03989241  1
  O  O401  1  0.73514392  0.58321262  0.29105725  1
  O  O402  1  0.73349210  0.58326877  0.53856716  1
  O  O403  1  0.73385385  0.58280311  0.78988116  1
  O  O404  1  0.73505962  0.91663278  0.03723139  1
  O  O405  1  0.73205838  0.91633933  0.28944699  1
  O  O406  1  0.73420324  0.91645321  0.54071200  1
  O  O407  1  0.73520866  0.91690128  0.79164033  1
  O  O408  1  0.26512086  0.08281587  0.21214036  1
  O  O409  1  0.26584030  0.08383133  0.46143536  1
  O  O410  1  0.26702171  0.08411786  0.70973141  1
  O  O411  1  0.26746057  0.08426605  0.96044149  1
  O  O412  1  0.26604064  0.41709211  0.21026127  1
  O  O413  1  0.26613855  0.41665214  0.45912720  1
  O  O414  1  0.26838829  0.41627296  0.71022710  1
  O  O415  1  0.26750677  0.41616176  0.96054186  1
  O  O416  1  0.26635362  0.74987086  0.20956633  1
  O  O417  1  0.26475651  0.74937029  0.46246012  1
  O  O418  1  0.26408861  0.74945756  0.71085658  1
  O  O419  1  0.26370642  0.75011395  0.96052577  1
  O  O420  1  0.76441068  0.08366772  0.21069605  1
  O  O421  1  0.76631569  0.08322383  0.45949828  1
  O  O422  1  0.76851509  0.08359977  0.71087691  1
  O  O423  1  0.76501544  0.08450985  0.96191733  1
  O  O424  1  0.76747424  0.41667439  0.21284815  1
  O  O425  1  0.76645298  0.41633059  0.46262637  1
  O  O426  1  0.76700579  0.41652461  0.71033191  1
  O  O427  1  0.76751832  0.41583316  0.95955405  1
  O  O428  1  0.76883281  0.75018681  0.20989813  1
  O  O429  1  0.76681773  0.74951160  0.46289709  1
  O  O430  1  0.76823330  0.75012327  0.71075218  1
  O  O431  1  0.76688747  0.74906143  0.95991198  1
  O  O432  1  0.01641088  0.08474722  0.16492689  1
  O  O433  1  0.01805339  0.08392659  0.41478131  1
  O  O434  1  0.01818889  0.08396775  0.66544192  1
  O  O435  1  0.01583943  0.08328243  0.91314665  1
  O  O436  1  0.01404310  0.41672536  0.16396306  1
  O  O437  1  0.01366688  0.41613523  0.41465465  1
  O  O438  1  0.01510420  0.41625509  0.66359810  1
  O  O439  1  0.01507058  0.41651606  0.91245969  1
  O  O440  1  0.01809969  0.74924500  0.16528777  1
  O  O441  1  0.01435849  0.75044948  0.41414228  1
  O  O442  1  0.01677004  0.74991498  0.66281459  1
  O  O443  1  0.01778969  0.75035102  0.91182494  1
  O  O444  1  0.51660408  0.08402039  0.16174562  1
  O  O445  1  0.51808410  0.08381927  0.41492898  1
  O  O446  1  0.51452679  0.08337881  0.66370372  1
  O  O447  1  0.51370927  0.08361243  0.91297081  1
  O  O448  1  0.51577902  0.41623575  0.16219623  1
  O  O449  1  0.51938764  0.41602500  0.41419312  1
  O  O450  1  0.51760341  0.41731465  0.66554710  1
  O  O451  1  0.51378757  0.41634284  0.91375016  1
  O  O452  1  0.51568101  0.74954149  0.16542100  1
  O  O453  1  0.51582101  0.75035954  0.41206785  1
  O  O454  1  0.51813538  0.74842765  0.66488910  1
  O  O455  1  0.51540239  0.74995643  0.91563572  1
  O  O456  1  0.48395098  0.24964955  0.08641982  1
  O  O457  1  0.48551408  0.24972975  0.33353094  1
  O  O458  1  0.48505273  0.25063574  0.58717446  1
  O  O459  1  0.48274919  0.25033742  0.83739697  1
  O  O460  1  0.48410298  0.58329195  0.08496130  1
  O  O461  1  0.48555463  0.58237646  0.33641632  1
  O  O462  1  0.48337582  0.58305508  0.58423474  1
  O  O463  1  0.48239902  0.58261411  0.83828791  1
  O  O464  1  0.48423109  0.91723089  0.08676900  1
  O  O465  1  0.48447602  0.91760490  0.33359550  1
  O  O466  1  0.48363504  0.91614470  0.58498021  1
  O  O467  1  0.48238093  0.91634814  0.83473116  1
  O  O468  1  0.98189306  0.25004633  0.08400799  1
  O  O469  1  0.98244728  0.25035622  0.33765869  1
  O  O470  1  0.98404373  0.24990842  0.58791440  1
  O  O471  1  0.98534256  0.25026739  0.83697095  1
  O  O472  1  0.98403974  0.58369074  0.08310896  1
  O  O473  1  0.98161807  0.58302563  0.33818562  1
  O  O474  1  0.98502269  0.58306660  0.58690400  1
  O  O475  1  0.98562185  0.58327052  0.83568077  1
  O  O476  1  0.98551956  0.91660521  0.08595078  1
  O  O477  1  0.98422719  0.91692477  0.33401875  1
  O  O478  1  0.98500426  0.91727082  0.58675460  1
  O  O479  1  0.98445142  0.91660896  0.83646959  1
  O  O480  1  0.08565027  0.31580688  0.07594721  1
  O  O481  1  0.08608197  0.31475987  0.32743807  1
  O  O482  1  0.08777879  0.31449665  0.57693489  1
  O  O483  1  0.08897460  0.31535447  0.82659020  1
  O  O484  1  0.08812893  0.64891028  0.07763899  1
  O  O485  1  0.08521202  0.64792101  0.32811446  1
  O  O486  1  0.08842042  0.64876779  0.57789852  1
  O  O487  1  0.08940254  0.64860247  0.82746897  1
  O  O488  1  0.08962050  0.98057516  0.07709190  1
  O  O489  1  0.08791399  0.98294888  0.32777185  1
  O  O490  1  0.08860832  0.98229715  0.57897457  1
  O  O491  1  0.08826410  0.98140549  0.82680832  1
  O  O492  1  0.58766863  0.31445242  0.07607457  1
  O  O493  1  0.58948544  0.31493849  0.32686650  1
  O  O494  1  0.58863535  0.31605083  0.57949197  1
  O  O495  1  0.58690935  0.31503926  0.82713233  1
  O  O496  1  0.58831253  0.64800176  0.07668754  1
  O  O497  1  0.58898927  0.64744225  0.32751606  1
  O  O498  1  0.58769241  0.64798485  0.57718256  1
  O  O499  1  0.58591849  0.64789407  0.82773593  1
  O  O500  1  0.58784734  0.98246021  0.07782846  1
  O  O501  1  0.58823358  0.98328642  0.32738302  1
  O  O502  1  0.58766747  0.98051142  0.57780905  1
  O  O503  1  0.58586112  0.98199538  0.82671636  1
  O  O504  1  0.41297035  0.01935387  0.17250201  1
  O  O505  1  0.41389595  0.01864387  0.42318842  1
  O  O506  1  0.41044646  0.01869638  0.67256981  1
  O  O507  1  0.40959537  0.01940598  0.92287994  1
  O  O508  1  0.41254347  0.35046410  0.17143606  1
  O  O509  1  0.41569421  0.35090197  0.42293050  1
  O  O510  1  0.41316863  0.35304091  0.67350891  1
  O  O511  1  0.41011315  0.35111932  0.92219842  1
  O  O512  1  0.41147470  0.68501908  0.17345212  1
  O  O513  1  0.41244443  0.68506253  0.42226063  1
  O  O514  1  0.41413163  0.68325975  0.67202199  1
  O  O515  1  0.41191570  0.68394059  0.92270439  1
  O  O516  1  0.91293831  0.01941923  0.17266616  1
  O  O517  1  0.91464345  0.01853155  0.42309342  1
  O  O518  1  0.91378074  0.01969653  0.67382631  1
  O  O519  1  0.91263295  0.01734198  0.92156242  1
  O  O520  1  0.91091551  0.35004347  0.17177206  1
  O  O521  1  0.90977097  0.35139615  0.42257555  1
  O  O522  1  0.91162150  0.35039887  0.67240363  1
  O  O523  1  0.91110490  0.35185016  0.92239168  1
  O  O524  1  0.91362425  0.68495789  0.17283526  1
  O  O525  1  0.91097064  0.68443989  0.42304504  1
  O  O526  1  0.91315363  0.68482089  0.67335253  1
  O  O527  1  0.91432887  0.68564556  0.92233734  1
  O  O528  1  0.16146206  0.01755047  0.20411887  1
  O  O529  1  0.16133122  0.02016385  0.45226711  1
  O  O530  1  0.16285569  0.01913032  0.70175625  1
  O  O531  1  0.16365247  0.01906618  0.95268785  1
  O  O532  1  0.16237222  0.35185180  0.20188584  1
  O  O533  1  0.16225456  0.35143157  0.45268296  1
  O  O534  1  0.16429997  0.35146538  0.70243606  1
  O  O535  1  0.16391950  0.35081777  0.95251628  1
  O  O536  1  0.16202572  0.68559141  0.20191960  1
  O  O537  1  0.16157033  0.68313768  0.45370448  1
  O  O538  1  0.16010299  0.68475149  0.70325988  1
  O  O539  1  0.16008333  0.68467354  0.95251635  1
  O  O540  1  0.66072126  0.01827854  0.20250149  1
  O  O541  1  0.66198557  0.01864886  0.45212539  1
  O  O542  1  0.66457158  0.01886896  0.70260887  1
  O  O543  1  0.66133966  0.01987723  0.95249874  1
  O  O544  1  0.66431799  0.35041014  0.20295468  1
  O  O545  1  0.66232658  0.35258909  0.45255145  1
  O  O546  1  0.66326322  0.35070219  0.70173471  1
  O  O547  1  0.66326558  0.35145355  0.95260388  1
  O  O548  1  0.66473779  0.68575430  0.20239880  1
  O  O549  1  0.66344645  0.68388870  0.45299235  1
  O  O550  1  0.66406716  0.68510155  0.70174669  1
  O  O551  1  0.66324633  0.68325409  0.95273938  1
  O  O552  1  0.33785672  0.31505095  0.04740401  1
  O  O553  1  0.33802937  0.31497285  0.29728890  1
  O  O554  1  0.33651077  0.31441822  0.54732527  1
  O  O555  1  0.33716742  0.31506127  0.79769514  1
  O  O556  1  0.33591714  0.64769609  0.04720132  1
  O  O557  1  0.33676065  0.64981109  0.29719589  1
  O  O558  1  0.33639336  0.64804126  0.54907146  1
  O  O559  1  0.33775355  0.64777743  0.79780821  1
  O  O560  1  0.33483121  0.98295747  0.04775375  1
  O  O561  1  0.33569580  0.98039318  0.29809303  1
  O  O562  1  0.33706028  0.98284027  0.54670189  1
  O  O563  1  0.33504681  0.98210690  0.79667788  1
  O  O564  1  0.83669095  0.31604009  0.04756432  1
  O  O565  1  0.83749648  0.31531341  0.29763114  1
  O  O566  1  0.83942181  0.31567436  0.54711204  1
  O  O567  1  0.83710370  0.31517726  0.79647240  1
  O  O568  1  0.83661887  0.64695752  0.04755924  1
  O  O569  1  0.83889652  0.64876138  0.29789165  1
  O  O570  1  0.83739962  0.64806107  0.54732449  1
  O  O571  1  0.83755060  0.64844607  0.79707268  1
  O  O572  1  0.83840875  0.98179187  0.04726110  1
  O  O573  1  0.83562852  0.98146001  0.29788608  1
  O  O574  1  0.83814631  0.98116199  0.54781991  1
  O  O575  1  0.83933677  0.98196056  0.79784630  1
  O  O576  1  0.41327222  0.14950602  0.17190384  1
  O  O577  1  0.41398696  0.14864291  0.42329199  1
  O  O578  1  0.41092917  0.14873377  0.67276921  1
  O  O579  1  0.41048217  0.14961360  0.92216009  1
  O  O580  1  0.41220287  0.48087303  0.17198479  1
  O  O581  1  0.41536314  0.48091368  0.42300315  1
  O  O582  1  0.41363494  0.48307923  0.67243803  1
  O  O583  1  0.40982852  0.48133224  0.92225456  1
  O  O584  1  0.41178651  0.81507742  0.17365191  1
  O  O585  1  0.41220001  0.81529517  0.42207276  1
  O  O586  1  0.41403060  0.81333778  0.67303181  1
  O  O587  1  0.41126827  0.81424286  0.92285837  1
  O  O588  1  0.91237711  0.14962285  0.17182940  1
  O  O589  1  0.91407638  0.14870143  0.42278142  1
  O  O590  1  0.91425580  0.14961813  0.67373022  1
  O  O591  1  0.91201661  0.14768301  0.92222395  1
  O  O592  1  0.90970731  0.48019780  0.17233702  1
  O  O593  1  0.91007918  0.48157213  0.42296023  1
  O  O594  1  0.91101861  0.48047440  0.67303110  1
  O  O595  1  0.91147966  0.48176378  0.92237721  1
  O  O596  1  0.91433140  0.81486138  0.17327227  1
  O  O597  1  0.91027904  0.81460030  0.42305178  1
  O  O598  1  0.91306025  0.81482968  0.67316775  1
  O  O599  1  0.91446749  0.81584161  0.92179305  1
  O  O600  1  0.08656996  0.18593490  0.07612082  1
  O  O601  1  0.08594994  0.18469639  0.32802129  1
  O  O602  1  0.08769162  0.18441249  0.57799975  1
  O  O603  1  0.08919610  0.18544083  0.82713329  1
  O  O604  1  0.08797553  0.51882099  0.07642466  1
  O  O605  1  0.08493395  0.51783654  0.32762498  1
  O  O606  1  0.08883711  0.51856328  0.57697688  1
  O  O607  1  0.08942342  0.51851441  0.82615586  1
  O  O608  1  0.08872461  0.85029946  0.07799652  1
  O  O609  1  0.08852646  0.85279487  0.32712192  1
  O  O610  1  0.08826414  0.85179069  0.57869973  1
  O  O611  1  0.08821245  0.85139570  0.82744450  1
  O  O612  1  0.58768000  0.18440791  0.07672093  1
  O  O613  1  0.58944496  0.18477453  0.32727499  1
  O  O614  1  0.58872699  0.18585088  0.57848643  1
  O  O615  1  0.58652364  0.18510482  0.82695639  1
  O  O616  1  0.58791823  0.51796453  0.07619416  1
  O  O617  1  0.58918371  0.51706383  0.32821877  1
  O  O618  1  0.58759381  0.51790218  0.57765467  1
  O  O619  1  0.58602113  0.51784776  0.82769194  1
  O  O620  1  0.58775814  0.85208632  0.07734584  1
  O  O621  1  0.58875968  0.85313498  0.32619398  1
  O  O622  1  0.58704251  0.85007405  0.57811187  1
  O  O623  1  0.58667556  0.85185320  0.82745024  1
  O  O624  1  0.33773395  0.18488840  0.04770265  1
  O  O625  1  0.33794067  0.18475623  0.29726337  1
  O  O626  1  0.33591528  0.18435509  0.54703483  1
  O  O627  1  0.33677446  0.18500472  0.79757583  1
  O  O628  1  0.33602740  0.51754487  0.04656608  1
  O  O629  1  0.33717049  0.51956452  0.29795521  1
  O  O630  1  0.33725029  0.51806853  0.54830012  1
  O  O631  1  0.33759051  0.51758797  0.79701847  1
  O  O632  1  0.33532333  0.85277954  0.04790440  1
  O  O633  1  0.33506830  0.85011601  0.29746618  1
  O  O634  1  0.33694125  0.85244433  0.54778247  1
  O  O635  1  0.33423030  0.85184562  0.79786995  1
  O  O636  1  0.83624966  0.18614676  0.04896399  1
  O  O637  1  0.83792274  0.18527258  0.29809596  1
  O  O638  1  0.83983178  0.18562218  0.54805942  1
  O  O639  1  0.83712922  0.18499970  0.79710875  1
  O  O640  1  0.83612891  0.51681762  0.04685514  1
  O  O641  1  0.83915111  0.51848904  0.29796576  1
  O  O642  1  0.83702678  0.51794901  0.54727274  1
  O  O643  1  0.83787501  0.51812269  0.79653602  1
  O  O644  1  0.83872768  0.85154815  0.04701589  1
  O  O645  1  0.83616402  0.85131987  0.29694251  1
  O  O646  1  0.83794473  0.85098167  0.54729021  1
  O  O647  1  0.83925321  0.85162063  0.79788727  1
  O  O648  1  0.16165650  0.14777199  0.20263722  1
  O  O649  1  0.16242650  0.15022456  0.45234607  1
  O  O650  1  0.16303571  0.14921792  0.70212465  1
  O  O651  1  0.16361356  0.14922270  0.95275916  1
  O  O652  1  0.16212996  0.48203918  0.20240598  1
  O  O653  1  0.16219270  0.48180662  0.45281206  1
  O  O654  1  0.16450178  0.48149898  0.70223342  1
  O  O655  1  0.16360998  0.48098440  0.95211068  1
  O  O656  1  0.16251872  0.81556449  0.20256635  1
  O  O657  1  0.16080201  0.81341697  0.45349388  1
  O  O658  1  0.16044748  0.81501676  0.70286997  1
  O  O659  1  0.15979364  0.81494263  0.95300037  1
  O  O660  1  0.66048117  0.14855916  0.20269734  1
  O  O661  1  0.66256640  0.14858966  0.45197536  1
  O  O662  1  0.66458796  0.14899886  0.70268951  1
  O  O663  1  0.66164960  0.15023748  0.95336951  1
  O  O664  1  0.66337939  0.48045614  0.20310118  1
  O  O665  1  0.66326317  0.48271729  0.45275270  1
  O  O666  1  0.66268195  0.48073057  0.70176582  1
  O  O667  1  0.66385804  0.48159739  0.95243041  1
  O  O668  1  0.66498425  0.81588498  0.20216433  1
  O  O669  1  0.66310915  0.81404150  0.45278940  1
  O  O670  1  0.66413377  0.81516285  0.70187108  1
  O  O671  1  0.66295682  0.81360819  0.95188370  1
