# generated using pymatgen
data_Na2MnFe(PO4)2
_symmetry_space_group_name_H-M   'P 1'
_cell_length_a   21.07985040
_cell_length_b   18.93111547
_cell_length_c   20.03915302
_cell_angle_alpha   89.99957117
_cell_angle_beta   89.99779180
_cell_angle_gamma   89.99926850
_symmetry_Int_Tables_number   1
_chemical_formula_structural   Na2MnFe(PO4)2
_chemical_formula_sum   'Na96 Mn48 Fe48 P96 O384'
_cell_volume   7996.92624007
_cell_formula_units_Z   48
loop_
 _symmetry_equiv_pos_site_id
 _symmetry_equiv_pos_as_xyz
  1  'x, y, z'
loop_
 _atom_site_type_symbol
 _atom_site_label
 _atom_site_symmetry_multiplicity
 _atom_site_fract_x
 _atom_site_fract_y
 _atom_site_fract_z
 _atom_site_occupancy
  Na  Na0  1  -0.00195270  -0.00033629  -0.00037264  1
  Na  Na1  1  -0.00295485  -0.00087043  0.25032943  1
  Na  Na2  1  0.00083087  0.00067354  0.50015366  1
  Na  Na3  1  -0.00043420  -0.00005659  0.74994884  1
  Na  Na4  1  0.00012806  0.33242729  0.00005447  1
  Na  Na5  1  -0.00023870  0.33259610  0.24947454  1
  Na  Na6  1  0.00102447  0.33309615  0.49972352  1
  Na  Na7  1  0.00145118  0.33334562  0.75087789  1
  Na  Na8  1  -0.00246472  0.66641707  -0.00035323  1
  Na  Na9  1  -0.00142162  0.66656573  0.24963336  1
  Na  Na10  1  -0.00208851  0.66644216  0.49944718  1
  Na  Na11  1  -0.00107161  0.66756997  0.75043433  1
  Na  Na12  1  0.49897212  -0.00010832  -0.00032585  1
  Na  Na13  1  0.49916218  0.00023533  0.24888998  1
  Na  Na14  1  0.49998612  0.00024606  0.50049738  1
  Na  Na15  1  0.49907995  -0.00058492  0.75053407  1
  Na  Na16  1  0.50001558  0.33262727  0.00031951  1
  Na  Na17  1  0.50300383  0.33348851  0.25048317  1
  Na  Na18  1  0.50415729  0.33395273  0.50024905  1
  Na  Na19  1  0.50283437  0.33403951  0.74976453  1
  Na  Na20  1  0.49854391  0.66604365  0.00105511  1
  Na  Na21  1  0.50305607  0.66805361  0.24875306  1
  Na  Na22  1  0.50103877  0.66715430  0.49968219  1
  Na  Na23  1  0.49852462  0.66667994  0.75058980  1
  Na  Na24  1  0.25241775  0.00098746  0.12416515  1
  Na  Na25  1  0.25136767  0.00020172  0.37566141  1
  Na  Na26  1  0.25041262  -0.00047324  0.62529785  1
  Na  Na27  1  0.25187447  0.00037085  0.87472015  1
  Na  Na28  1  0.24911279  0.33300655  0.12531564  1
  Na  Na29  1  0.24931909  0.33278901  0.37534075  1
  Na  Na30  1  0.24924204  0.33278333  0.62442174  1
  Na  Na31  1  0.24904349  0.33260735  0.87472750  1
  Na  Na32  1  0.24776903  0.66632240  0.12438550  1
  Na  Na33  1  0.24874802  0.66693697  0.37588581  1
  Na  Na34  1  0.25030968  0.66687106  0.62534878  1
  Na  Na35  1  0.25102293  0.66715838  0.87456083  1
  Na  Na36  1  0.75093423  0.00020161  0.12557644  1
  Na  Na37  1  0.75056187  0.00085620  0.37564478  1
  Na  Na38  1  0.74883282  -0.00061532  0.62390364  1
  Na  Na39  1  0.75133592  0.00032830  0.87461808  1
  Na  Na40  1  0.74954214  0.33287127  0.12599584  1
  Na  Na41  1  0.74856488  0.33282160  0.37490956  1
  Na  Na42  1  0.74617969  0.33212518  0.62390053  1
  Na  Na43  1  0.74845045  0.33274080  0.87546223  1
  Na  Na44  1  0.75217415  0.66746825  0.12510984  1
  Na  Na45  1  0.75039570  0.66689667  0.37481529  1
  Na  Na46  1  0.75036575  0.66726994  0.62440387  1
  Na  Na47  1  0.75313910  0.66822878  0.87588247  1
  Na  Na48  1  -0.00194743  0.16670747  -0.00014605  1
  Na  Na49  1  -0.00140138  0.16690913  0.24910734  1
  Na  Na50  1  -0.00042307  0.16648171  0.49919292  1
  Na  Na51  1  -0.00037755  0.16603992  0.75141660  1
  Na  Na52  1  -0.00026318  0.50088681  0.00039357  1
  Na  Na53  1  -0.00103014  0.50084057  0.24966725  1
  Na  Na54  1  0.00047771  0.49963607  0.50005109  1
  Na  Na55  1  -0.00048915  0.50071286  0.75062208  1
  Na  Na56  1  -0.00121444  0.83317142  -0.00085339  1
  Na  Na57  1  -0.00103602  0.83278507  0.25064105  1
  Na  Na58  1  0.00014136  0.83323953  0.50017721  1
  Na  Na59  1  -0.00003700  0.83348932  0.74895322  1
  Na  Na60  1  0.49779596  0.16706117  0.00012673  1
  Na  Na61  1  0.49970300  0.16639644  0.25015193  1
  Na  Na62  1  0.50132380  0.16585896  0.50021740  1
  Na  Na63  1  0.50011062  0.16590673  0.74959069  1
  Na  Na64  1  0.50091471  0.49988971  0.00128729  1
  Na  Na65  1  0.50332246  0.49929674  0.24932344  1
  Na  Na66  1  0.50164991  0.50020775  0.49955150  1
  Na  Na67  1  0.49913393  0.50100543  0.75028048  1
  Na  Na68  1  0.49983410  0.83367528  -0.00008789  1
  Na  Na69  1  0.50258712  0.83250839  0.24868117  1
  Na  Na70  1  0.50153476  0.83327997  0.50044810  1
  Na  Na71  1  0.50032483  0.83375344  0.75092043  1
  Na  Na72  1  0.25079901  0.16695907  0.12550358  1
  Na  Na73  1  0.25117446  0.16583302  0.37545891  1
  Na  Na74  1  0.25142846  0.16526330  0.62485114  1
  Na  Na75  1  0.25139751  0.16599738  0.87482698  1
  Na  Na76  1  0.24810117  0.50143957  0.12473882  1
  Na  Na77  1  0.24953415  0.50045567  0.37621258  1
  Na  Na78  1  0.25077238  0.50022894  0.62492484  1
  Na  Na79  1  0.25052405  0.50042312  0.87425502  1
  Na  Na80  1  0.24832861  0.83385348  0.12414241  1
  Na  Na81  1  0.24912204  0.83346676  0.37520679  1
  Na  Na82  1  0.24854143  0.83443079  0.62519673  1
  Na  Na83  1  0.25034598  0.83304031  0.87482694  1
  Na  Na84  1  0.75310294  0.16527996  0.12626427  1
  Na  Na85  1  0.74846278  0.16744877  0.37526294  1
  Na  Na86  1  0.74711896  0.16705688  0.62382507  1
  Na  Na87  1  0.75053417  0.16591837  0.87504676  1
  Na  Na88  1  0.74933105  0.50071278  0.12520113  1
  Na  Na89  1  0.74890829  0.50043958  0.37477750  1
  Na  Na90  1  0.74874650  0.50072276  0.62415238  1
  Na  Na91  1  0.75186738  0.49936239  0.87613032  1
  Na  Na92  1  0.74976022  0.83352335  0.12509883  1
  Na  Na93  1  0.75163391  0.83204103  0.37538179  1
  Na  Na94  1  0.74949528  0.83343982  0.62415123  1
  Na  Na95  1  0.75067378  0.83313148  0.87501515  1
  Mn  Mn96  1  0.39223908  0.58285011  0.12796093  1
  Mn  Mn97  1  0.64233317  0.24867197  0.99857637  1
  Mn  Mn98  1  0.89176535  0.25003152  0.62717796  1
  Mn  Mn99  1  0.35856719  0.41593599  0.75178604  1
  Mn  Mn100  1  0.35782474  0.41696840  0.25245779  1
  Mn  Mn101  1  0.10726873  0.08257922  0.12294396  1
  Mn  Mn102  1  0.39227769  0.25037200  0.87707578  1
  Mn  Mn103  1  0.85718737  0.41667919  0.50242180  1
  Mn  Mn104  1  0.35750740  0.41669988  0.00277948  1
  Mn  Mn105  1  0.39254447  0.91657776  0.12708844  1
  Mn  Mn106  1  0.14147238  0.91693407  0.24774646  1
  Mn  Mn107  1  0.14207645  0.24906502  0.74715780  1
  Mn  Mn108  1  0.10750161  0.08258807  0.87324945  1
  Mn  Mn109  1  0.35753293  0.75005908  0.25178709  1
  Mn  Mn110  1  0.64232813  0.58386094  0.74842305  1
  Mn  Mn111  1  0.39261233  0.91600086  0.37689912  1
  Mn  Mn112  1  0.14224363  0.58381979  0.74751081  1
  Mn  Mn113  1  0.64178461  0.58355241  0.49745449  1
  Mn  Mn114  1  0.14218251  0.91708643  0.99728623  1
  Mn  Mn115  1  0.39314315  0.58351904  0.37597327  1
  Mn  Mn116  1  0.60800127  0.41716967  0.87276644  1
  Mn  Mn117  1  0.89271867  0.91730206  0.62729455  1
  Mn  Mn118  1  0.64167553  0.91676795  0.49729336  1
  Mn  Mn119  1  0.39374846  0.25038812  0.62708630  1
  Mn  Mn120  1  0.10683836  0.75057586  0.87297465  1
  Mn  Mn121  1  0.14216458  0.58394716  0.49828306  1
  Mn  Mn122  1  0.85704390  0.41654695  0.25257538  1
  Mn  Mn123  1  0.10781981  0.41700075  0.87289247  1
  Mn  Mn124  1  0.35801369  0.75061862  0.75181681  1
  Mn  Mn125  1  0.10755157  0.08350659  0.37246762  1
  Mn  Mn126  1  0.85799923  0.41620872  0.00302993  1
  Mn  Mn127  1  0.85750457  0.41627191  0.75172129  1
  Mn  Mn128  1  0.89131322  0.25005326  0.87710712  1
  Mn  Mn129  1  0.64312552  0.91682420  0.24792617  1
  Mn  Mn130  1  0.85708437  0.08333194  0.50252889  1
  Mn  Mn131  1  0.60781751  0.08297248  0.87288706  1
  Mn  Mn132  1  0.35854589  0.75059174  0.50214771  1
  Mn  Mn133  1  0.35894857  0.41633321  0.50219053  1
  Mn  Mn134  1  0.60770082  0.08337474  0.12260635  1
  Mn  Mn135  1  0.89203715  0.58269008  0.62767978  1
  Mn  Mn136  1  0.10749337  0.41661981  0.37241938  1
  Mn  Mn137  1  0.89143263  0.91643052  0.12756127  1
  Mn  Mn138  1  0.10659557  0.74972994  0.37295076  1
  Mn  Mn139  1  0.10761342  0.41703363  0.12268540  1
  Mn  Mn140  1  0.39335439  0.25059541  0.37693913  1
  Mn  Mn141  1  0.14235596  0.24899489  0.49787938  1
  Mn  Mn142  1  0.60769144  0.74969628  0.87318863  1
  Mn  Mn143  1  0.64319022  0.58415340  0.99760665  1
  Fe  Fe144  1  0.89197195  0.58288674  0.37663849  1
  Fe  Fe145  1  0.64328825  0.24972001  0.24772414  1
  Fe  Fe146  1  0.64363887  0.58349309  0.24791034  1
  Fe  Fe147  1  0.35801323  0.08281709  0.50204344  1
  Fe  Fe148  1  0.14250788  0.24994891  0.24797883  1
  Fe  Fe149  1  0.60768868  0.75008549  0.62416225  1
  Fe  Fe150  1  0.10790668  0.41668445  0.62359688  1
  Fe  Fe151  1  0.35767851  0.08308152  0.75120346  1
  Fe  Fe152  1  0.60852162  0.75021258  0.37263315  1
  Fe  Fe153  1  0.14308363  0.91702936  0.49871061  1
  Fe  Fe154  1  0.39226358  0.25068875  0.12730017  1
  Fe  Fe155  1  0.10696750  0.75010956  0.62302319  1
  Fe  Fe156  1  0.60823340  0.41694799  0.37225732  1
  Fe  Fe157  1  0.89159314  0.91641496  0.87593624  1
  Fe  Fe158  1  0.14221801  0.58348637  0.99792463  1
  Fe  Fe159  1  0.85681227  0.08299747  0.75063210  1
  Fe  Fe160  1  0.14278709  0.24990496  0.99898475  1
  Fe  Fe161  1  0.64263916  0.91684616  0.74871568  1
  Fe  Fe162  1  0.39262100  0.91582151  0.87681183  1
  Fe  Fe163  1  0.85738268  0.75087153  0.00232120  1
  Fe  Fe164  1  0.60709590  0.08262205  0.62377071  1
  Fe  Fe165  1  0.89229098  0.25025345  0.37663652  1
  Fe  Fe166  1  0.60787220  0.41749635  0.62366072  1
  Fe  Fe167  1  0.89233055  0.58356735  0.87684053  1
  Fe  Fe168  1  0.10627400  0.75004880  0.12327495  1
  Fe  Fe169  1  0.85686682  0.75003740  0.50179650  1
  Fe  Fe170  1  0.60750100  0.41651775  0.12330649  1
  Fe  Fe171  1  0.64333008  0.91694638  0.99815353  1
  Fe  Fe172  1  0.39298829  0.91610088  0.62699756  1
  Fe  Fe173  1  0.64230507  0.24901479  0.74844250  1
  Fe  Fe174  1  0.39209817  0.58368595  0.87748464  1
  Fe  Fe175  1  0.89309626  0.58285071  0.12711242  1
  Fe  Fe176  1  0.35670056  0.74996510  0.00209811  1
  Fe  Fe177  1  0.39341340  0.58383238  0.62605472  1
  Fe  Fe178  1  0.14270760  0.91701657  0.74825226  1
  Fe  Fe179  1  0.85736100  0.75074370  0.75089134  1
  Fe  Fe180  1  0.89227982  0.91670498  0.37744368  1
  Fe  Fe181  1  0.35725626  0.08353452  0.25185484  1
  Fe  Fe182  1  0.14121480  0.58330905  0.24845069  1
  Fe  Fe183  1  0.85705264  0.08326987  0.25261037  1
  Fe  Fe184  1  0.85708842  0.75031145  0.25188807  1
  Fe  Fe185  1  0.35724762  0.08353570  0.00169938  1
  Fe  Fe186  1  0.85727027  0.08289770  0.00188947  1
  Fe  Fe187  1  0.10792694  0.08333405  0.62352563  1
  Fe  Fe188  1  0.64224663  0.24963767  0.49744427  1
  Fe  Fe189  1  0.89278481  0.25061019  0.12713422  1
  Fe  Fe190  1  0.60844265  0.74991156  0.12241589  1
  Fe  Fe191  1  0.60689098  0.08291289  0.37262910  1
  P  P192  1  0.05377045  0.24943372  0.11044690  1
  P  P193  1  0.05252799  0.24952217  0.35903496  1
  P  P194  1  0.05330423  0.24919097  0.61005077  1
  P  P195  1  0.05441174  0.24932217  0.86141552  1
  P  P196  1  0.05374702  0.58455862  0.11047352  1
  P  P197  1  0.05186383  0.58353496  0.35956227  1
  P  P198  1  0.05319485  0.58386296  0.61020991  1
  P  P199  1  0.05294810  0.58411542  0.86115715  1
  P  P200  1  0.05253441  0.91577522  0.10978450  1
  P  P201  1  0.05263063  0.91675862  0.36133776  1
  P  P202  1  0.05552112  0.91706700  0.61075149  1
  P  P203  1  0.05211347  0.91664336  0.85914880  1
  P  P204  1  0.55324047  0.25012292  0.11129979  1
  P  P205  1  0.55588078  0.24927723  0.36035111  1
  P  P206  1  0.55619350  0.24927339  0.61085369  1
  P  P207  1  0.55400401  0.24936056  0.85949039  1
  P  P208  1  0.55553677  0.58334536  0.11119962  1
  P  P209  1  0.55481256  0.58388331  0.35869907  1
  P  P210  1  0.55290531  0.58416809  0.61048876  1
  P  P211  1  0.55180588  0.58392920  0.86053024  1
  P  P212  1  0.55491022  0.91638035  0.10899171  1
  P  P213  1  0.55355654  0.91694700  0.35949359  1
  P  P214  1  0.55395266  0.91664248  0.61181026  1
  P  P215  1  0.55403956  0.91656142  0.86079675  1
  P  P216  1  0.44446716  0.08433553  0.13936725  1
  P  P217  1  0.44617865  0.08329753  0.38943131  1
  P  P218  1  0.44623732  0.08231676  0.63936172  1
  P  P219  1  0.44472511  0.08232224  0.88927001  1
  P  P220  1  0.44783855  0.41586234  0.14041736  1
  P  P221  1  0.44910206  0.41676490  0.38963547  1
  P  P222  1  0.44886747  0.41732141  0.63964006  1
  P  P223  1  0.44683279  0.41733301  0.89051264  1
  P  P224  1  0.44712744  0.75001415  0.13874937  1
  P  P225  1  0.44883067  0.74994152  0.38942415  1
  P  P226  1  0.44823090  0.75046866  0.63996574  1
  P  P227  1  0.44563195  0.75032069  0.89088241  1
  P  P228  1  0.94427142  0.08391666  0.13959336  1
  P  P229  1  0.94477634  0.08364734  0.38891148  1
  P  P230  1  0.94750275  0.08358412  0.64055566  1
  P  P231  1  0.94394342  0.08212012  0.88911035  1
  P  P232  1  0.94647485  0.41663907  0.14013522  1
  P  P233  1  0.94600093  0.41630151  0.38983198  1
  P  P234  1  0.94829153  0.41606515  0.64017821  1
  P  P235  1  0.94634621  0.41714320  0.89027625  1
  P  P236  1  0.94537212  0.74938169  0.13949870  1
  P  P237  1  0.94374544  0.74990779  0.38933984  1
  P  P238  1  0.94602071  0.75034851  0.63914062  1
  P  P239  1  0.94377287  0.75083951  0.88891153  1
  P  P240  1  0.19764727  0.08379818  0.23499373  1
  P  P241  1  0.19689187  0.08206327  0.48619631  1
  P  P242  1  0.19738339  0.08207779  0.73479278  1
  P  P243  1  0.19777322  0.08412818  0.98523711  1
  P  P244  1  0.19630011  0.41678795  0.23522378  1
  P  P245  1  0.19573970  0.41664557  0.48601113  1
  P  P246  1  0.19652646  0.41675727  0.73414381  1
  P  P247  1  0.19629422  0.41684173  0.98503983  1
  P  P248  1  0.19517159  0.74945297  0.23427853  1
  P  P249  1  0.19541782  0.75123411  0.48635918  1
  P  P250  1  0.19575549  0.75105356  0.73464476  1
  P  P251  1  0.19595811  0.74944711  0.98584213  1
  P  P252  1  0.69680124  0.08385675  0.23636049  1
  P  P253  1  0.69408543  0.08364523  0.48531990  1
  P  P254  1  0.69701116  0.08257861  0.73449746  1
  P  P255  1  0.69800930  0.08242655  0.98532885  1
  P  P256  1  0.69476213  0.41657509  0.23559969  1
  P  P257  1  0.69435250  0.41634829  0.48518222  1
  P  P258  1  0.69622673  0.41643240  0.73447177  1
  P  P259  1  0.69573658  0.41632570  0.98650711  1
  P  P260  1  0.69655972  0.74951088  0.23537970  1
  P  P261  1  0.69572948  0.75003748  0.48543208  1
  P  P262  1  0.69751282  0.75080644  0.73484100  1
  P  P263  1  0.69714507  0.75096352  0.98609303  1
  P  P264  1  0.30298091  0.24964104  0.01562360  1
  P  P265  1  0.30331917  0.24970876  0.26428827  1
  P  P266  1  0.30426371  0.24899394  0.51493728  1
  P  P267  1  0.30370705  0.24901568  0.76446446  1
  P  P268  1  0.30316108  0.58418332  0.01414526  1
  P  P269  1  0.30117589  0.58368257  0.26525704  1
  P  P270  1  0.30462089  0.58377128  0.51560651  1
  P  P271  1  0.30560797  0.58353134  0.76424579  1
  P  P272  1  0.30472470  0.91630070  0.01342188  1
  P  P273  1  0.30307833  0.91711304  0.26487123  1
  P  P274  1  0.30368054  0.91706783  0.51574868  1
  P  P275  1  0.30434470  0.91713728  0.76428630  1
  P  P276  1  0.80397569  0.24898893  0.01617662  1
  P  P277  1  0.80392356  0.24958955  0.26474268  1
  P  P278  1  0.80260047  0.25006035  0.51381346  1
  P  P279  1  0.80143330  0.24915052  0.76433112  1
  P  P280  1  0.80582652  0.58422764  0.01494894  1
  P  P281  1  0.80402510  0.58387819  0.26415833  1
  P  P282  1  0.80428053  0.58401389  0.51374051  1
  P  P283  1  0.80373960  0.58413453  0.76561067  1
  P  P284  1  0.80347436  0.91672162  0.01384085  1
  P  P285  1  0.80416669  0.91649999  0.26597692  1
  P  P286  1  0.80430894  0.91598553  0.51396157  1
  P  P287  1  0.80259002  0.91676310  0.76453503  1
  O  O288  1  0.05888562  0.24928041  0.18715310  1
  O  O289  1  0.05695965  0.24915063  0.43574173  1
  O  O290  1  0.05585236  0.24885722  0.68689796  1
  O  O291  1  0.05897076  0.24893281  0.93817616  1
  O  O292  1  0.05811033  0.58377420  0.18721112  1
  O  O293  1  0.05632339  0.58371859  0.43621670  1
  O  O294  1  0.05581353  0.58427098  0.68704098  1
  O  O295  1  0.05797233  0.58412924  0.93786078  1
  O  O296  1  0.05548142  0.91661776  0.18659789  1
  O  O297  1  0.05805738  0.91718385  0.43794218  1
  O  O298  1  0.05907013  0.91721400  0.68755555  1
  O  O299  1  0.05619964  0.91680486  0.93590557  1
  O  O300  1  0.55852465  0.24892677  0.18794945  1
  O  O301  1  0.55899745  0.24915663  0.43724442  1
  O  O302  1  0.55951858  0.24899184  0.68773564  1
  O  O303  1  0.55682627  0.24875687  0.93632297  1
  O  O304  1  0.55999726  0.58403001  0.18790820  1
  O  O305  1  0.55673808  0.58407094  0.43558843  1
  O  O306  1  0.55606349  0.58420852  0.68717517  1
  O  O307  1  0.55637619  0.58402979  0.93718759  1
  O  O308  1  0.55827603  0.91714752  0.18577577  1
  O  O309  1  0.55574706  0.91708576  0.43635486  1
  O  O310  1  0.55856679  0.91684362  0.68851047  1
  O  O311  1  0.55927321  0.91701433  0.93743193  1
  O  O312  1  0.44031804  0.08379559  0.06254416  1
  O  O313  1  0.44112177  0.08327309  0.31269529  1
  O  O314  1  0.44189452  0.08283511  0.56260361  1
  O  O315  1  0.44102979  0.08304089  0.81244929  1
  O  O316  1  0.44365269  0.41630611  0.06371394  1
  O  O317  1  0.44466586  0.41646032  0.31296687  1
  O  O318  1  0.44545758  0.41633853  0.56291793  1
  O  O319  1  0.44409895  0.41664889  0.81369851  1
  O  O320  1  0.44123619  0.74988523  0.06218774  1
  O  O321  1  0.44456014  0.75017203  0.31275168  1
  O  O322  1  0.44500671  0.75078041  0.56324357  1
  O  O323  1  0.44311684  0.75065984  0.81409246  1
  O  O324  1  0.94059847  0.08292161  0.06275720  1
  O  O325  1  0.94080603  0.08354292  0.31209822  1
  O  O326  1  0.94319498  0.08345630  0.56383502  1
  O  O327  1  0.93971753  0.08293727  0.81233814  1
  O  O328  1  0.94401920  0.41644830  0.06338588  1
  O  O329  1  0.94304286  0.41639848  0.31303976  1
  O  O330  1  0.94390753  0.41589988  0.56349121  1
  O  O331  1  0.94336694  0.41645309  0.81346966  1
  O  O332  1  0.94113960  0.75060357  0.06273605  1
  O  O333  1  0.94023092  0.74998060  0.31246296  1
  O  O334  1  0.94116354  0.75041976  0.56247554  1
  O  O335  1  0.94022238  0.75107121  0.81207072  1
  O  O336  1  0.19375796  0.08335256  0.06188879  1
  O  O337  1  0.19392682  0.08312631  0.31174758  1
  O  O338  1  0.19207012  0.08294384  0.56281879  1
  O  O339  1  0.19349883  0.08271455  0.81148698  1
  O  O340  1  0.19329763  0.41718221  0.06184721  1
  O  O341  1  0.19371660  0.41672286  0.31206244  1
  O  O342  1  0.19118066  0.41673361  0.56276937  1
  O  O343  1  0.19323476  0.41697801  0.81096949  1
  O  O344  1  0.19079297  0.75001601  0.06244473  1
  O  O345  1  0.19216156  0.75012861  0.31114589  1
  O  O346  1  0.19125956  0.75019632  0.56307491  1
  O  O347  1  0.19267112  0.75013981  0.81146721  1
  O  O348  1  0.69430874  0.08301263  0.06202910  1
  O  O349  1  0.69188406  0.08330881  0.31297105  1
  O  O350  1  0.68999736  0.08250321  0.56207501  1
  O  O351  1  0.69391418  0.08254623  0.81123975  1
  O  O352  1  0.69143311  0.41647056  0.06330180  1
  O  O353  1  0.69145296  0.41674105  0.31249070  1
  O  O354  1  0.69028092  0.41751875  0.56200421  1
  O  O355  1  0.69384559  0.41745414  0.81136936  1
  O  O356  1  0.69246130  0.75004679  0.06280575  1
  O  O357  1  0.69217333  0.75000964  0.31214388  1
  O  O358  1  0.69063893  0.75004432  0.56211323  1
  O  O359  1  0.69389727  0.75006169  0.81156590  1
  O  O360  1  0.30814205  0.25080174  0.18761214  1
  O  O361  1  0.30742304  0.24992140  0.43813800  1
  O  O362  1  0.30736161  0.24986629  0.68772744  1
  O  O363  1  0.30664153  0.25045511  0.93889016  1
  O  O364  1  0.30551040  0.58360474  0.18851394  1
  O  O365  1  0.30789264  0.58393123  0.43879903  1
  O  O366  1  0.31045741  0.58361999  0.68747956  1
  O  O367  1  0.30812911  0.58360110  0.93743513  1
  O  O368  1  0.30640678  0.91620411  0.18809322  1
  O  O369  1  0.30737102  0.91616155  0.43900164  1
  O  O370  1  0.30913704  0.91610935  0.68757006  1
  O  O371  1  0.30831512  0.91590282  0.93663568  1
  O  O372  1  0.80887116  0.25039210  0.18808255  1
  O  O373  1  0.80787136  0.25024477  0.43719449  1
  O  O374  1  0.80484372  0.24992423  0.68760284  1
  O  O375  1  0.80627658  0.25023566  0.93930074  1
  O  O376  1  0.80878002  0.58302372  0.18746229  1
  O  O377  1  0.80820436  0.58299126  0.43697324  1
  O  O378  1  0.80612412  0.58328312  0.68870555  1
  O  O379  1  0.80961946  0.58321808  0.93812838  1
  O  O380  1  0.80634440  0.91634268  0.18907509  1
  O  O381  1  0.80839081  0.91680020  0.43725355  1
  O  O382  1  0.80613248  0.91663717  0.68780515  1
  O  O383  1  0.80736408  0.91647297  0.93718973  1
  O  O384  1  0.23279440  0.24995253  0.04003524  1
  O  O385  1  0.23300536  0.24956485  0.28826261  1
  O  O386  1  0.23456852  0.24889007  0.54001585  1
  O  O387  1  0.23397251  0.24893503  0.78940013  1
  O  O388  1  0.23271093  0.58383191  0.03757034  1
  O  O389  1  0.23107765  0.58356478  0.28963158  1
  O  O390  1  0.23475357  0.58376328  0.54025980  1
  O  O391  1  0.23529813  0.58388743  0.78771617  1
  O  O392  1  0.23481458  0.91716442  0.03815962  1
  O  O393  1  0.23339998  0.91698961  0.29009740  1
  O  O394  1  0.23359806  0.91705564  0.54008630  1
  O  O395  1  0.23392742  0.91675351  0.78799802  1
  O  O396  1  0.73442310  0.24895247  0.04179228  1
  O  O397  1  0.73341743  0.25026157  0.28799573  1
  O  O398  1  0.73208328  0.24960964  0.53683605  1
  O  O399  1  0.73149496  0.24909270  0.78942985  1
  O  O400  1  0.73578702  0.58402836  0.03910318  1
  O  O401  1  0.73357655  0.58330567  0.28769443  1
  O  O402  1  0.73428601  0.58413134  0.53808257  1
  O  O403  1  0.73422849  0.58384024  0.79149767  1
  O  O404  1  0.73353559  0.91680921  0.03890505  1
  O  O405  1  0.73459626  0.91657149  0.29155503  1
  O  O406  1  0.73424975  0.91638703  0.53801799  1
  O  O407  1  0.73250151  0.91672016  0.78931471  1
  O  O408  1  0.26767046  0.08368116  0.21036950  1
  O  O409  1  0.26727196  0.08237986  0.46249099  1
  O  O410  1  0.26758907  0.08242379  0.71054057  1
  O  O411  1  0.26789511  0.08340596  0.96083941  1
  O  O412  1  0.26577169  0.41716019  0.20930545  1
  O  O413  1  0.26583555  0.41667848  0.46196440  1
  O  O414  1  0.26633569  0.41650036  0.70933538  1
  O  O415  1  0.26588703  0.41675162  0.95955285  1
  O  O416  1  0.26489113  0.75020857  0.20905334  1
  O  O417  1  0.26540247  0.75061920  0.46191239  1
  O  O418  1  0.26561365  0.75068134  0.70988278  1
  O  O419  1  0.26627126  0.74991970  0.96203513  1
  O  O420  1  0.76724857  0.08303464  0.21291800  1
  O  O421  1  0.76423766  0.08358282  0.46153656  1
  O  O422  1  0.76699485  0.08272755  0.70922994  1
  O  O423  1  0.76794738  0.08312211  0.96058830  1
  O  O424  1  0.76477937  0.41659785  0.21116770  1
  O  O425  1  0.76437238  0.41672523  0.46096663  1
  O  O426  1  0.76572272  0.41652777  0.70851964  1
  O  O427  1  0.76575878  0.41597241  0.96246840  1
  O  O428  1  0.76703656  0.75050819  0.21183724  1
  O  O429  1  0.76613410  0.74988559  0.46209780  1
  O  O430  1  0.76763937  0.75065126  0.71022142  1
  O  O431  1  0.76746495  0.75066533  0.96247614  1
  O  O432  1  0.01425846  0.08289772  0.16403652  1
  O  O433  1  0.01475661  0.08371893  0.41332413  1
  O  O434  1  0.01766317  0.08300980  0.66464142  1
  O  O435  1  0.01402234  0.08284005  0.91336956  1
  O  O436  1  0.01601278  0.41678791  0.16572853  1
  O  O437  1  0.01567279  0.41638028  0.41504674  1
  O  O438  1  0.01833139  0.41662072  0.66462676  1
  O  O439  1  0.01591734  0.41675748  0.91578420  1
  O  O440  1  0.01557135  0.74969721  0.16359738  1
  O  O441  1  0.01376611  0.74985871  0.41375542  1
  O  O442  1  0.01641001  0.75066438  0.66269702  1
  O  O443  1  0.01377933  0.75031523  0.91342889  1
  O  O444  1  0.51465751  0.08334102  0.16317534  1
  O  O445  1  0.51663657  0.08329848  0.41270175  1
  O  O446  1  0.51661663  0.08265056  0.66321175  1
  O  O447  1  0.51474986  0.08314586  0.91374411  1
  O  O448  1  0.51800465  0.41635335  0.16450209  1
  O  O449  1  0.51936454  0.41687887  0.41346893  1
  O  O450  1  0.51887930  0.41737099  0.66449912  1
  O  O451  1  0.51642642  0.41676294  0.91603378  1
  O  O452  1  0.51785210  0.75019935  0.16124427  1
  O  O453  1  0.51897612  0.74997398  0.41369653  1
  O  O454  1  0.51808644  0.75040883  0.66538720  1
  O  O455  1  0.51536111  0.74996491  0.91619520  1
  O  O456  1  0.48289828  0.25002229  0.08761902  1
  O  O457  1  0.48595180  0.24962414  0.33566380  1
  O  O458  1  0.48627771  0.24970130  0.58601384  1
  O  O459  1  0.48436199  0.24986619  0.83425840  1
  O  O460  1  0.48537058  0.58308056  0.08732301  1
  O  O461  1  0.48535587  0.58376855  0.33258084  1
  O  O462  1  0.48309204  0.58393059  0.58497968  1
  O  O463  1  0.48166992  0.58421696  0.83650918  1
  O  O464  1  0.48496456  0.91672267  0.08466235  1
  O  O465  1  0.48423518  0.91643250  0.33329782  1
  O  O466  1  0.48371709  0.91666066  0.58758899  1
  O  O467  1  0.48353404  0.91621248  0.83763455  1
  O  O468  1  0.98324947  0.24984009  0.08728893  1
  O  O469  1  0.98223049  0.24977497  0.33528891  1
  O  O470  1  0.98380819  0.24935958  0.58414021  1
  O  O471  1  0.98426860  0.24955213  0.83746069  1
  O  O472  1  0.98330890  0.58366768  0.08694496  1
  O  O473  1  0.98154128  0.58359680  0.33579642  1
  O  O474  1  0.98361957  0.58339892  0.58460751  1
  O  O475  1  0.98254937  0.58448262  0.83765688  1
  O  O476  1  0.98281942  0.91608853  0.08468651  1
  O  O477  1  0.98220254  0.91617094  0.33792759  1
  O  O478  1  0.98547225  0.91711692  0.58630017  1
  O  O479  1  0.98196029  0.91648165  0.83498708  1
  O  O480  1  0.08732562  0.31443094  0.07717518  1
  O  O481  1  0.08646460  0.31454421  0.32629931  1
  O  O482  1  0.08774501  0.31434146  0.57815483  1
  O  O483  1  0.08803007  0.31434757  0.82846149  1
  O  O484  1  0.08655843  0.64991102  0.07714806  1
  O  O485  1  0.08550841  0.64846110  0.32635178  1
  O  O486  1  0.08694710  0.64921733  0.57770076  1
  O  O487  1  0.08633900  0.64900751  0.82768732  1
  O  O488  1  0.08664631  0.98079021  0.07709450  1
  O  O489  1  0.08541354  0.98183886  0.32737253  1
  O  O490  1  0.08926394  0.98218115  0.57772537  1
  O  O491  1  0.08614615  0.98162197  0.82640594  1
  O  O492  1  0.58666453  0.31530684  0.07845909  1
  O  O493  1  0.59002309  0.31426198  0.32777906  1
  O  O494  1  0.59029206  0.31432042  0.57833371  1
  O  O495  1  0.58878420  0.31424172  0.82754235  1
  O  O496  1  0.58884393  0.64840133  0.07761625  1
  O  O497  1  0.58944598  0.64892701  0.32669020  1
  O  O498  1  0.58682268  0.64937509  0.57797284  1
  O  O499  1  0.58558004  0.64887822  0.82747654  1
  O  O500  1  0.58890928  0.98140498  0.07608467  1
  O  O501  1  0.58757452  0.98227653  0.32731437  1
  O  O502  1  0.58729297  0.98163794  0.57828566  1
  O  O503  1  0.58714015  0.98150053  0.82690435  1
  O  O504  1  0.41047557  0.01948153  0.17256977  1
  O  O505  1  0.41286183  0.01824178  0.42292000  1
  O  O506  1  0.41278887  0.01725761  0.67252272  1
  O  O507  1  0.41140458  0.01689440  0.92186944  1
  O  O508  1  0.41435093  0.35073206  0.17327510  1
  O  O509  1  0.41575557  0.35170419  0.42291402  1
  O  O510  1  0.41531682  0.35218713  0.67273191  1
  O  O511  1  0.41251323  0.35224074  0.92284501  1
  O  O512  1  0.41427339  0.68502271  0.17269662  1
  O  O513  1  0.41502369  0.68490742  0.42214658  1
  O  O514  1  0.41407316  0.68538587  0.67218312  1
  O  O515  1  0.41101638  0.68539110  0.92315750  1
  O  O516  1  0.90987147  0.01929394  0.17281324  1
  O  O517  1  0.91131156  0.01850699  0.42203414  1
  O  O518  1  0.91325605  0.01870427  0.67336142  1
  O  O519  1  0.91079284  0.01654992  0.92181657  1
  O  O520  1  0.91223042  0.35156348  0.17243678  1
  O  O521  1  0.91205122  0.35098178  0.42215115  1
  O  O522  1  0.91473814  0.35092492  0.67316908  1
  O  O523  1  0.91200722  0.35206161  0.92264030  1
  O  O524  1  0.91183343  0.68411633  0.17219659  1
  O  O525  1  0.91000192  0.68469880  0.42199724  1
  O  O526  1  0.91258707  0.68544844  0.67260785  1
  O  O527  1  0.90975286  0.68602612  0.92193236  1
  O  O528  1  0.16380523  0.01876691  0.20201713  1
  O  O529  1  0.16365969  0.01681057  0.45301975  1
  O  O530  1  0.16365854  0.01691736  0.70216698  1
  O  O531  1  0.16376949  0.01926107  0.95204187  1
  O  O532  1  0.16220228  0.35147058  0.20309968  1
  O  O533  1  0.16223792  0.35146554  0.45300374  1
  O  O534  1  0.16214321  0.35176878  0.70181903  1
  O  O535  1  0.16222332  0.35140705  0.95326220  1
  O  O536  1  0.16120899  0.68410758  0.20216987  1
  O  O537  1  0.16139886  0.68650029  0.45297262  1
  O  O538  1  0.16136837  0.68631733  0.70172919  1
  O  O539  1  0.16281352  0.68430050  0.95247082  1
  O  O540  1  0.66334415  0.01903989  0.20272983  1
  O  O541  1  0.66053077  0.01871358  0.45174927  1
  O  O542  1  0.66295166  0.01742420  0.70193817  1
  O  O543  1  0.66447517  0.01725987  0.95250555  1
  O  O544  1  0.66100225  0.35134378  0.20294678  1
  O  O545  1  0.66080734  0.35108342  0.45257073  1
  O  O546  1  0.66168370  0.35128671  0.70288989  1
  O  O547  1  0.66200549  0.35127228  0.95378608  1
  O  O548  1  0.66375866  0.68427958  0.20194991  1
  O  O549  1  0.66238049  0.68516431  0.45179855  1
  O  O550  1  0.66359668  0.68582899  0.70179095  1
  O  O551  1  0.66397514  0.68602809  0.95228575  1
  O  O552  1  0.33696697  0.31450897  0.04890759  1
  O  O553  1  0.33662738  0.31471594  0.29796650  1
  O  O554  1  0.33831841  0.31404907  0.54762526  1
  O  O555  1  0.33751177  0.31410472  0.79737051  1
  O  O556  1  0.33634070  0.64928014  0.04750749  1
  O  O557  1  0.33497062  0.64885808  0.29785334  1
  O  O558  1  0.33872238  0.64881717  0.54827584  1
  O  O559  1  0.33904899  0.64858002  0.79755342  1
  O  O560  1  0.33891918  0.98134788  0.04584960  1
  O  O561  1  0.33719384  0.98239821  0.29684920  1
  O  O562  1  0.33788345  0.98207392  0.54819849  1
  O  O563  1  0.33786071  0.98227551  0.79711300  1
  O  O564  1  0.83845476  0.31377853  0.04904228  1
  O  O565  1  0.83736756  0.31445959  0.29850128  1
  O  O566  1  0.83531667  0.31515118  0.54765002  1
  O  O567  1  0.83529279  0.31412627  0.79736805  1
  O  O568  1  0.83940970  0.64955019  0.04743245  1
  O  O569  1  0.83705217  0.64916081  0.29716641  1
  O  O570  1  0.83792918  0.64921211  0.54634932  1
  O  O571  1  0.83805374  0.64948975  0.79713546  1
  O  O572  1  0.83719428  0.98181244  0.04675549  1
  O  O573  1  0.83863504  0.98152141  0.29805680  1
  O  O574  1  0.83792117  0.98090452  0.54733302  1
  O  O575  1  0.83656915  0.98186213  0.79708108  1
  O  O576  1  0.41132790  0.14956514  0.17255187  1
  O  O577  1  0.41292817  0.14829643  0.42293856  1
  O  O578  1  0.41267756  0.14725159  0.67276649  1
  O  O579  1  0.41053497  0.14706165  0.92252362  1
  O  O580  1  0.41410217  0.48097537  0.17333452  1
  O  O581  1  0.41542077  0.48191072  0.42221157  1
  O  O582  1  0.41477036  0.48235860  0.67177394  1
  O  O583  1  0.41285162  0.48259991  0.92270210  1
  O  O584  1  0.41429071  0.81513091  0.17243164  1
  O  O585  1  0.41514588  0.81492151  0.42261646  1
  O  O586  1  0.41418848  0.81548641  0.67272540  1
  O  O587  1  0.41157337  0.81556833  0.92321956  1
  O  O588  1  0.91096485  0.14938822  0.17217103  1
  O  O589  1  0.91118260  0.14894640  0.42167414  1
  O  O590  1  0.91364285  0.14854419  0.67348280  1
  O  O591  1  0.90982715  0.14679480  0.92251606  1
  O  O592  1  0.91215642  0.48179897  0.17223203  1
  O  O593  1  0.91189228  0.48150048  0.42210731  1
  O  O594  1  0.91412743  0.48102777  0.67275894  1
  O  O595  1  0.91240710  0.48243844  0.92231560  1
  O  O596  1  0.91154174  0.81410848  0.17315161  1
  O  O597  1  0.91011319  0.81492186  0.42254815  1
  O  O598  1  0.91249893  0.81529649  0.67262127  1
  O  O599  1  0.91046068  0.81622639  0.92194401  1
  O  O600  1  0.08676433  0.18432935  0.07678880  1
  O  O601  1  0.08615266  0.18454185  0.32582362  1
  O  O602  1  0.08742087  0.18384627  0.57779250  1
  O  O603  1  0.08761066  0.18422381  0.82799475  1
  O  O604  1  0.08765285  0.51980576  0.07697592  1
  O  O605  1  0.08553828  0.51852615  0.32650412  1
  O  O606  1  0.08761730  0.51873559  0.57825172  1
  O  O607  1  0.08609883  0.51900743  0.82782942  1
  O  O608  1  0.08643361  0.85051367  0.07760551  1
  O  O609  1  0.08598411  0.85174572  0.32803192  1
  O  O610  1  0.08915286  0.85189622  0.57781224  1
  O  O611  1  0.08621645  0.85174437  0.82644528  1
  O  O612  1  0.58633264  0.18509303  0.07737437  1
  O  O613  1  0.58941881  0.18406638  0.32734619  1
  O  O614  1  0.58954512  0.18395117  0.57796231  1
  O  O615  1  0.58798824  0.18427856  0.82678945  1
  O  O616  1  0.58895318  0.51795680  0.07855774  1
  O  O617  1  0.58948734  0.51876469  0.32694905  1
  O  O618  1  0.58717357  0.51923678  0.57792253  1
  O  O619  1  0.58542816  0.51888617  0.82761773  1
  O  O620  1  0.58901230  0.85128927  0.07664414  1
  O  O621  1  0.58843646  0.85194468  0.32781806  1
  O  O622  1  0.58749078  0.85153169  0.57871529  1
  O  O623  1  0.58756231  0.85159863  0.82745853  1
  O  O624  1  0.33688394  0.18447468  0.04798346  1
  O  O625  1  0.33692573  0.18447293  0.29697181  1
  O  O626  1  0.33846549  0.18377016  0.54687166  1
  O  O627  1  0.33773253  0.18377333  0.79656444  1
  O  O628  1  0.33642774  0.51914921  0.04781405  1
  O  O629  1  0.33522893  0.51867763  0.29796963  1
  O  O630  1  0.33888355  0.51876051  0.54807686  1
  O  O631  1  0.33887595  0.51843393  0.79761213  1
  O  O632  1  0.33787293  0.85103219  0.04674118  1
  O  O633  1  0.33707363  0.85202915  0.29765294  1
  O  O634  1  0.33763439  0.85213361  0.54893729  1
  O  O635  1  0.33794972  0.85230197  0.79795966  1
  O  O636  1  0.83846570  0.18375659  0.04767542  1
  O  O637  1  0.83689022  0.18439333  0.29809393  1
  O  O638  1  0.83581113  0.18509674  0.54738802  1
  O  O639  1  0.83550354  0.18400481  0.79649265  1
  O  O640  1  0.83959123  0.51941543  0.04850011  1
  O  O641  1  0.83750289  0.51905846  0.29797572  1
  O  O642  1  0.83760346  0.51899628  0.54723307  1
  O  O643  1  0.83848770  0.51925736  0.79794855  1
  O  O644  1  0.83709547  0.85170051  0.04718121  1
  O  O645  1  0.83846894  0.85134592  0.29795719  1
  O  O646  1  0.83765501  0.85075927  0.54678470  1
  O  O647  1  0.83663405  0.85185970  0.79742420  1
  O  O648  1  0.16373686  0.14889861  0.20253917  1
  O  O649  1  0.16344636  0.14691500  0.45241715  1
  O  O650  1  0.16337880  0.14680820  0.70142112  1
  O  O651  1  0.16438618  0.14941708  0.95266540  1
  O  O652  1  0.16164613  0.48180032  0.20320029  1
  O  O653  1  0.16211154  0.48172379  0.45295695  1
  O  O654  1  0.16244542  0.48184868  0.70164928  1
  O  O655  1  0.16216393  0.48202837  0.95262650  1
  O  O656  1  0.16039954  0.81420914  0.20167617  1
  O  O657  1  0.16210932  0.81673326  0.45373557  1
  O  O658  1  0.16179259  0.81638090  0.70268975  1
  O  O659  1  0.16253423  0.81451323  0.95233272  1
  O  O660  1  0.66405590  0.14913595  0.20278644  1
  O  O661  1  0.66052405  0.14870485  0.45241476  1
  O  O662  1  0.66265012  0.14745083  0.70201455  1
  O  O663  1  0.66383130  0.14728697  0.95254237  1
  O  O664  1  0.66108472  0.48159703  0.20269321  1
  O  O665  1  0.66055595  0.48125932  0.45184030  1
  O  O666  1  0.66178267  0.48152129  0.70203895  1
  O  O667  1  0.66265457  0.48158072  0.95319718  1
  O  O668  1  0.66270373  0.81430563  0.20203399  1
  O  O669  1  0.66250467  0.81506242  0.45183246  1
  O  O670  1  0.66352955  0.81586904  0.70229361  1
  O  O671  1  0.66389724  0.81610521  0.95306520  1
