# generated using pymatgen
data_Na2MnFe(PO4)2
_symmetry_space_group_name_H-M   'P 1'
_cell_length_a   21.08565107
_cell_length_b   18.93838092
_cell_length_c   20.04474830
_cell_angle_alpha   89.99927574
_cell_angle_beta   90.00023328
_cell_angle_gamma   89.99776177
_symmetry_Int_Tables_number   1
_chemical_formula_structural   Na2MnFe(PO4)2
_chemical_formula_sum   'Na96 Mn48 Fe48 P96 O384'
_cell_volume   8004.43108455
_cell_formula_units_Z   48
loop_
 _symmetry_equiv_pos_site_id
 _symmetry_equiv_pos_as_xyz
  1  'x, y, z'
loop_
 _atom_site_type_symbol
 _atom_site_label
 _atom_site_symmetry_multiplicity
 _atom_site_fract_x
 _atom_site_fract_y
 _atom_site_fract_z
 _atom_site_occupancy
  Na  Na0  1  0.00220829  0.00024873  -0.00026035  1
  Na  Na1  1  0.00071523  0.00001641  0.24923681  1
  Na  Na2  1  -0.00123062  -0.00024462  0.50149270  1
  Na  Na3  1  0.00006534  -0.00001032  0.74994332  1
  Na  Na4  1  -0.00093049  0.33321190  -0.00129650  1
  Na  Na5  1  0.00065421  0.33340170  0.25015300  1
  Na  Na6  1  -0.00094602  0.33324962  0.49956396  1
  Na  Na7  1  -0.00206791  0.33270631  0.75064671  1
  Na  Na8  1  0.00382709  0.66845693  -0.00030636  1
  Na  Na9  1  0.00084113  0.66649635  0.25009503  1
  Na  Na10  1  0.00177573  0.66745618  0.49990768  1
  Na  Na11  1  0.00054111  0.66631552  0.75074287  1
  Na  Na12  1  0.49716311  -0.00012508  0.00048331  1
  Na  Na13  1  0.50062288  0.00133598  0.24927903  1
  Na  Na14  1  0.49961820  0.00071390  0.49976595  1
  Na  Na15  1  0.49783000  0.00015248  0.74973837  1
  Na  Na16  1  0.50280197  0.33386576  -0.00083085  1
  Na  Na17  1  0.50055843  0.33337500  0.24995320  1
  Na  Na18  1  0.49935063  0.33185680  0.50127725  1
  Na  Na19  1  0.50146746  0.33292346  0.75029606  1
  Na  Na20  1  0.50004709  0.66709513  -0.00114099  1
  Na  Na21  1  0.49852145  0.66563440  0.24972041  1
  Na  Na22  1  0.50192626  0.66683652  0.50075191  1
  Na  Na23  1  0.50130811  0.66693373  0.75061554  1
  Na  Na24  1  0.25063762  0.00036990  0.12487004  1
  Na  Na25  1  0.24993092  0.00031427  0.37428118  1
  Na  Na26  1  0.25044939  0.00065124  0.62521560  1
  Na  Na27  1  0.24978986  -0.00022423  0.87515164  1
  Na  Na28  1  0.24811293  0.33227775  0.12495035  1
  Na  Na29  1  0.24991593  0.33343875  0.37556501  1
  Na  Na30  1  0.24797086  0.33237254  0.62390621  1
  Na  Na31  1  0.24885823  0.33340783  0.87518004  1
  Na  Na32  1  0.24991569  0.66648755  0.12644708  1
  Na  Na33  1  0.24939889  0.66598974  0.37376495  1
  Na  Na34  1  0.24966298  0.66670003  0.62495049  1
  Na  Na35  1  0.25079671  0.66728065  0.87577153  1
  Na  Na36  1  0.74842574  -0.00085877  0.12479026  1
  Na  Na37  1  0.74952076  0.00036497  0.37511500  1
  Na  Na38  1  0.75100810  0.00078452  0.62422342  1
  Na  Na39  1  0.75202852  0.00097645  0.87655553  1
  Na  Na40  1  0.74965682  0.33284236  0.12469265  1
  Na  Na41  1  0.75146694  0.33341140  0.37388468  1
  Na  Na42  1  0.75298176  0.33361739  0.62512635  1
  Na  Na43  1  0.75231995  0.33311984  0.87578524  1
  Na  Na44  1  0.74788789  0.66648334  0.12485074  1
  Na  Na45  1  0.75058225  0.66756279  0.37526462  1
  Na  Na46  1  0.74792231  0.66614561  0.62426517  1
  Na  Na47  1  0.74664666  0.66588668  0.87539083  1
  Na  Na48  1  0.00041258  0.16632213  -0.00101401  1
  Na  Na49  1  -0.00040478  0.16692786  0.25060434  1
  Na  Na50  1  -0.00087720  0.16633786  0.50011437  1
  Na  Na51  1  -0.00236839  0.16729546  0.74999669  1
  Na  Na52  1  0.00070707  0.49948083  -0.00131904  1
  Na  Na53  1  -0.00044770  0.50009481  0.24969830  1
  Na  Na54  1  -0.00059316  0.49996893  0.50001934  1
  Na  Na55  1  0.00007275  0.49952038  0.75061252  1
  Na  Na56  1  0.00216830  0.83423215  0.00019327  1
  Na  Na57  1  0.00379088  0.83239202  0.24941513  1
  Na  Na58  1  -0.00002854  0.83442982  0.50082556  1
  Na  Na59  1  0.00185702  0.83335274  0.75076779  1
  Na  Na60  1  0.50072117  0.16604853  -0.00107260  1
  Na  Na61  1  0.49875777  0.16646625  0.24910168  1
  Na  Na62  1  0.50034248  0.16574768  0.50098997  1
  Na  Na63  1  0.50080032  0.16608574  0.75020796  1
  Na  Na64  1  0.50079015  0.50020197  -0.00068706  1
  Na  Na65  1  0.50004847  0.50016777  0.25049767  1
  Na  Na66  1  0.50067048  0.50028614  0.50092099  1
  Na  Na67  1  0.50078461  0.50060240  0.75024548  1
  Na  Na68  1  0.49738668  0.83407755  0.00023466  1
  Na  Na69  1  0.50087816  0.83272989  0.24913216  1
  Na  Na70  1  0.50072848  0.83297671  0.50000353  1
  Na  Na71  1  0.49847143  0.83346122  0.75020628  1
  Na  Na72  1  0.25117263  0.16600818  0.12605435  1
  Na  Na73  1  0.25013172  0.16656514  0.37471354  1
  Na  Na74  1  0.25031980  0.16593109  0.62516712  1
  Na  Na75  1  0.25049816  0.16602458  0.87470239  1
  Na  Na76  1  0.24939798  0.50017247  0.12511185  1
  Na  Na77  1  0.25029626  0.49964467  0.37507123  1
  Na  Na78  1  0.24780008  0.50064438  0.62407286  1
  Na  Na79  1  0.24877738  0.50005185  0.87539989  1
  Na  Na80  1  0.24867025  0.83381753  0.12511484  1
  Na  Na81  1  0.24797763  0.83415255  0.37382061  1
  Na  Na82  1  0.24998733  0.83344829  0.62485019  1
  Na  Na83  1  0.25089549  0.83281820  0.87610175  1
  Na  Na84  1  0.74861078  0.16669185  0.12500353  1
  Na  Na85  1  0.74966749  0.16617183  0.37398381  1
  Na  Na86  1  0.75080010  0.16618447  0.62484681  1
  Na  Na87  1  0.74934742  0.16686587  0.87536693  1
  Na  Na88  1  0.74917929  0.50060986  0.12548781  1
  Na  Na89  1  0.75181029  0.50000878  0.37457796  1
  Na  Na90  1  0.75031551  0.50062804  0.62464277  1
  Na  Na91  1  0.75091828  0.49922536  0.87595231  1
  Na  Na92  1  0.74850350  0.83429367  0.12393568  1
  Na  Na93  1  0.74930304  0.83376005  0.37580824  1
  Na  Na94  1  0.74904679  0.83454162  0.62434050  1
  Na  Na95  1  0.75157159  0.83267451  0.87628143  1
  Mn  Mn96  1  0.64124981  0.91678973  0.99730878  1
  Mn  Mn97  1  0.64210080  0.91705164  0.74849627  1
  Mn  Mn98  1  0.10738163  0.08440644  0.62284065  1
  Mn  Mn99  1  0.10726586  0.41661209  0.37279143  1
  Mn  Mn100  1  0.39268217  0.58319791  0.62693295  1
  Mn  Mn101  1  0.35741026  0.75026463  0.25216101  1
  Mn  Mn102  1  0.14218166  0.58360794  0.74760649  1
  Mn  Mn103  1  0.89284510  0.58361501  0.12651785  1
  Mn  Mn104  1  0.89199226  0.91661216  0.62835298  1
  Mn  Mn105  1  0.89327440  0.91683113  0.12756821  1
  Mn  Mn106  1  0.85823981  0.75001204  0.50232181  1
  Mn  Mn107  1  0.35733116  0.41659109  0.75172818  1
  Mn  Mn108  1  0.35745274  0.41637708  0.00259013  1
  Mn  Mn109  1  0.85793615  0.41718034  0.25123591  1
  Mn  Mn110  1  0.14133064  0.24948148  0.74730756  1
  Mn  Mn111  1  0.39222678  0.58321357  0.87732148  1
  Mn  Mn112  1  0.39241805  0.25077482  0.12617951  1
  Mn  Mn113  1  0.60692221  0.75114192  0.87283950  1
  Mn  Mn114  1  0.89197936  0.58463690  0.87774925  1
  Mn  Mn115  1  0.64219377  0.91695937  0.49757273  1
  Mn  Mn116  1  0.35841433  0.41593475  0.25174965  1
  Mn  Mn117  1  0.64181523  0.58414209  0.24784914  1
  Mn  Mn118  1  0.85725017  0.08236361  0.25180673  1
  Mn  Mn119  1  0.60791333  0.41584865  0.37337549  1
  Mn  Mn120  1  0.14172716  0.91704031  0.49731914  1
  Mn  Mn121  1  0.10862243  0.08411149  0.12236003  1
  Mn  Mn122  1  0.64298021  0.25063281  0.49773340  1
  Mn  Mn123  1  0.60723833  0.08249912  0.87262175  1
  Mn  Mn124  1  0.14203122  0.58318617  0.24764354  1
  Mn  Mn125  1  0.14227043  0.24964091  0.24764551  1
  Mn  Mn126  1  0.10872774  0.74917581  0.62282393  1
  Mn  Mn127  1  0.10686350  0.41629674  0.87256489  1
  Mn  Mn128  1  0.39221995  0.25023126  0.62751480  1
  Mn  Mn129  1  0.85804354  0.08355035  0.00264507  1
  Mn  Mn130  1  0.60913982  0.41650940  0.87229641  1
  Mn  Mn131  1  0.35728638  0.41620173  0.50278032  1
  Mn  Mn132  1  0.85816627  0.75083496  0.25136727  1
  Mn  Mn133  1  0.39201925  0.91624399  0.62708296  1
  Mn  Mn134  1  0.89225665  0.58343662  0.62756499  1
  Mn  Mn135  1  0.39230501  0.91659950  0.37696424  1
  Mn  Mn136  1  0.60788516  0.75040868  0.37215542  1
  Mn  Mn137  1  0.35737007  0.75026780  0.50183231  1
  Mn  Mn138  1  0.85752915  0.75037879  0.75279633  1
  Mn  Mn139  1  0.89224623  0.24922887  0.37738190  1
  Mn  Mn140  1  0.85817203  0.74929469  0.00242414  1
  Mn  Mn141  1  0.64145458  0.24960851  0.24741973  1
  Mn  Mn142  1  0.60945644  0.41646684  0.62253809  1
  Mn  Mn143  1  0.39238805  0.25022344  0.87720729  1
  Fe  Fe144  1  0.85725217  0.08319012  0.75209452  1
  Fe  Fe145  1  0.64343119  0.58280223  0.49784904  1
  Fe  Fe146  1  0.60596066  0.08336248  0.12290759  1
  Fe  Fe147  1  0.10629580  0.41625438  0.62348303  1
  Fe  Fe148  1  0.14218007  0.58299613  0.49753047  1
  Fe  Fe149  1  0.89246005  0.24992992  0.62654987  1
  Fe  Fe150  1  0.39294646  0.58311626  0.12588342  1
  Fe  Fe151  1  0.14255366  0.91749924  0.24840298  1
  Fe  Fe152  1  0.35645825  0.74976848  0.00238540  1
  Fe  Fe153  1  0.60766182  0.08268585  0.62358495  1
  Fe  Fe154  1  0.35727363  0.08318187  0.75175864  1
  Fe  Fe155  1  0.60742609  0.75084380  0.62407514  1
  Fe  Fe156  1  0.39264946  0.58259346  0.37744470  1
  Fe  Fe157  1  0.10853727  0.75072647  0.87330637  1
  Fe  Fe158  1  0.60687958  0.08347627  0.37338396  1
  Fe  Fe159  1  0.14368722  0.91673169  0.74912948  1
  Fe  Fe160  1  0.64202019  0.58277977  0.99891655  1
  Fe  Fe161  1  0.39093434  0.91684236  0.87693050  1
  Fe  Fe162  1  0.35767297  0.75014193  0.75168905  1
  Fe  Fe163  1  0.89297316  0.91636763  0.37553763  1
  Fe  Fe164  1  0.35635519  0.08350091  0.00132773  1
  Fe  Fe165  1  0.14390090  0.91689367  0.99790307  1
  Fe  Fe166  1  0.85751262  0.41679129  0.75143762  1
  Fe  Fe167  1  0.35708224  0.08351816  0.50129603  1
  Fe  Fe168  1  0.10706627  0.75066330  0.37361593  1
  Fe  Fe169  1  0.60628518  0.74999382  0.12304977  1
  Fe  Fe170  1  0.14190426  0.24963978  0.99817009  1
  Fe  Fe171  1  0.10835863  0.74919282  0.12259470  1
  Fe  Fe172  1  0.10730177  0.41660872  0.12279948  1
  Fe  Fe173  1  0.89302800  0.24996426  0.12597198  1
  Fe  Fe174  1  0.10752218  0.08316732  0.87308877  1
  Fe  Fe175  1  0.60779922  0.41692161  0.12312385  1
  Fe  Fe176  1  0.35756423  0.08349578  0.25223647  1
  Fe  Fe177  1  0.64201327  0.91658819  0.24810002  1
  Fe  Fe178  1  0.64336237  0.25040609  0.99834869  1
  Fe  Fe179  1  0.14202894  0.24964354  0.49835475  1
  Fe  Fe180  1  0.10718869  0.08260262  0.37388250  1
  Fe  Fe181  1  0.39229094  0.91646696  0.12701739  1
  Fe  Fe182  1  0.64435631  0.24979015  0.74849040  1
  Fe  Fe183  1  0.39242143  0.25021889  0.37699662  1
  Fe  Fe184  1  0.85688836  0.41693421  0.00250222  1
  Fe  Fe185  1  0.85797574  0.41656198  0.50191825  1
  Fe  Fe186  1  0.89227121  0.24881413  0.87721775  1
  Fe  Fe187  1  0.14310344  0.58317856  0.99873825  1
  Fe  Fe188  1  0.85735558  0.08368004  0.50124825  1
  Fe  Fe189  1  0.89428423  0.91660025  0.87661978  1
  Fe  Fe190  1  0.89290123  0.58433888  0.37680200  1
  Fe  Fe191  1  0.64302744  0.58292248  0.74823638  1
  P  P192  1  0.05277513  0.25067656  0.10904259  1
  P  P193  1  0.05450961  0.24873742  0.36132582  1
  P  P194  1  0.05208016  0.25077196  0.60950948  1
  P  P195  1  0.05296755  0.24893071  0.86097433  1
  P  P196  1  0.05428508  0.58287607  0.10912878  1
  P  P197  1  0.05322015  0.58388852  0.36103393  1
  P  P198  1  0.05391373  0.58222175  0.60942516  1
  P  P199  1  0.05478903  0.58424876  0.86136576  1
  P  P200  1  0.05629298  0.91638120  0.11025624  1
  P  P201  1  0.05294485  0.91734981  0.35969867  1
  P  P202  1  0.05482170  0.91701132  0.61175164  1
  P  P203  1  0.05562493  0.91708969  0.86094116  1
  P  P204  1  0.55394443  0.24970086  0.10901961  1
  P  P205  1  0.55202971  0.24888141  0.36035293  1
  P  P206  1  0.55548438  0.24869144  0.61161619  1
  P  P207  1  0.55577989  0.24966240  0.86010384  1
  P  P208  1  0.55266825  0.58357467  0.10948710  1
  P  P209  1  0.55330698  0.58283475  0.36129358  1
  P  P210  1  0.55621148  0.58413407  0.61078205  1
  P  P211  1  0.55540413  0.58346738  0.86040126  1
  P  P212  1  0.55270914  0.91684783  0.11104401  1
  P  P213  1  0.55365857  0.91791021  0.35913390  1
  P  P214  1  0.55345767  0.91704673  0.61029675  1
  P  P215  1  0.55049365  0.91701957  0.85993558  1
  P  P216  1  0.44473520  0.08301373  0.13876113  1
  P  P217  1  0.44577984  0.08419784  0.38937563  1
  P  P218  1  0.44586316  0.08335570  0.63951602  1
  P  P219  1  0.44404932  0.08280509  0.88951645  1
  P  P220  1  0.44845563  0.41732202  0.13938200  1
  P  P221  1  0.44656448  0.41609289  0.39059706  1
  P  P222  1  0.44769804  0.41668065  0.64051307  1
  P  P223  1  0.44708641  0.41657358  0.89006011  1
  P  P224  1  0.44563971  0.74975007  0.13829898  1
  P  P225  1  0.44670860  0.74924461  0.39000019  1
  P  P226  1  0.44732930  0.74957546  0.64048715  1
  P  P227  1  0.44384747  0.75085978  0.88972780  1
  P  P228  1  0.94722563  0.08436950  0.13982880  1
  P  P229  1  0.94711976  0.08173567  0.39019452  1
  P  P230  1  0.94456267  0.08439171  0.63970869  1
  P  P231  1  0.94663319  0.08255063  0.88868591  1
  P  P232  1  0.94684866  0.41593129  0.13816697  1
  P  P233  1  0.94557605  0.41740149  0.39016292  1
  P  P234  1  0.94577706  0.41589375  0.63955190  1
  P  P235  1  0.94348724  0.41609631  0.88924181  1
  P  P236  1  0.94906391  0.75001605  0.13968348  1
  P  P237  1  0.94792374  0.75086562  0.38950693  1
  P  P238  1  0.94736266  0.74981851  0.64083413  1
  P  P239  1  0.94856120  0.75137001  0.89019436  1
  P  P240  1  0.19675846  0.08271403  0.23631626  1
  P  P241  1  0.19681987  0.08410649  0.48439067  1
  P  P242  1  0.19650976  0.08233158  0.73630906  1
  P  P243  1  0.19691777  0.08349714  0.98456388  1
  P  P244  1  0.19598277  0.41651641  0.23428007  1
  P  P245  1  0.19458340  0.41635270  0.48622926  1
  P  P246  1  0.19547950  0.41633665  0.73383229  1
  P  P247  1  0.19486904  0.41650190  0.98624522  1
  P  P248  1  0.19428563  0.75079359  0.23575108  1
  P  P249  1  0.19589968  0.74921523  0.48380230  1
  P  P250  1  0.19724533  0.75119537  0.73652250  1
  P  P251  1  0.19614765  0.74974473  0.98629068  1
  P  P252  1  0.69410741  0.08227099  0.23520197  1
  P  P253  1  0.69616866  0.08369790  0.48527571  1
  P  P254  1  0.69756471  0.08356109  0.73494321  1
  P  P255  1  0.69503478  0.08400910  0.98635288  1
  P  P256  1  0.69589206  0.41679873  0.23427061  1
  P  P257  1  0.69890524  0.41698792  0.48469944  1
  P  P258  1  0.69875454  0.41599685  0.73530832  1
  P  P259  1  0.69635774  0.41647928  0.98659267  1
  P  P260  1  0.69586519  0.75128395  0.23396424  1
  P  P261  1  0.69536063  0.74952041  0.48616791  1
  P  P262  1  0.69613412  0.75011117  0.73467819  1
  P  P263  1  0.69470139  0.74946868  0.98628809  1
  P  P264  1  0.30147505  0.24922206  0.01474025  1
  P  P265  1  0.30430834  0.24955313  0.26552056  1
  P  P266  1  0.30304711  0.24885847  0.51382483  1
  P  P267  1  0.30281366  0.24956677  0.76497336  1
  P  P268  1  0.30272228  0.58381265  0.01574583  1
  P  P269  1  0.30545058  0.58282168  0.26439002  1
  P  P270  1  0.30293336  0.58339906  0.51384528  1
  P  P271  1  0.30323627  0.58377872  0.76498942  1
  P  P272  1  0.30391006  0.91672535  0.01445909  1
  P  P273  1  0.30346311  0.91728135  0.26352620  1
  P  P274  1  0.30305560  0.91768985  0.51451632  1
  P  P275  1  0.30319738  0.91667167  0.76547687  1
  P  P276  1  0.80431725  0.25030491  0.01464566  1
  P  P277  1  0.80440106  0.24961802  0.26331173  1
  P  P278  1  0.80448102  0.24965938  0.51511737  1
  P  P279  1  0.80474160  0.24940090  0.76438117  1
  P  P280  1  0.80189884  0.58297090  0.01524131  1
  P  P281  1  0.80412083  0.58432135  0.26538305  1
  P  P282  1  0.80413472  0.58304786  0.51377948  1
  P  P283  1  0.80210660  0.58322638  0.76519368  1
  P  P284  1  0.80483627  0.91654819  0.01423273  1
  P  P285  1  0.80215943  0.91644236  0.26541119  1
  P  P286  1  0.80511180  0.91760580  0.51350110  1
  P  P287  1  0.80378297  0.91766167  0.76638356  1
  O  O288  1  0.05631842  0.24989500  0.18581138  1
  O  O289  1  0.05843490  0.24929192  0.43803082  1
  O  O290  1  0.05543622  0.24985345  0.68629496  1
  O  O291  1  0.05823171  0.24935157  0.93757680  1
  O  O292  1  0.05646334  0.58271648  0.18597453  1
  O  O293  1  0.05786014  0.58313523  0.43769017  1
  O  O294  1  0.05674886  0.58304866  0.68628167  1
  O  O295  1  0.05929078  0.58374063  0.93803626  1
  O  O296  1  0.06006247  0.91743285  0.18705769  1
  O  O297  1  0.05580098  0.91768195  0.43648876  1
  O  O298  1  0.05959966  0.91707568  0.68844940  1
  O  O299  1  0.06030617  0.91720691  0.93767992  1
  O  O300  1  0.55599223  0.24973212  0.18589467  1
  O  O301  1  0.55607553  0.24930614  0.43703922  1
  O  O302  1  0.56036377  0.24962490  0.68831433  1
  O  O303  1  0.56019674  0.24997113  0.93683740  1
  O  O304  1  0.55582890  0.58354416  0.18624442  1
  O  O305  1  0.55885238  0.58279710  0.43792419  1
  O  O306  1  0.56031079  0.58282177  0.68762709  1
  O  O307  1  0.55955826  0.58299787  0.93716788  1
  O  O308  1  0.55738845  0.91672470  0.18764772  1
  O  O309  1  0.55660038  0.91719877  0.43592296  1
  O  O310  1  0.55602548  0.91720872  0.68703377  1
  O  O311  1  0.55461540  0.91721830  0.93662032  1
  O  O312  1  0.43980950  0.08367611  0.06206565  1
  O  O313  1  0.44130674  0.08351181  0.31260022  1
  O  O314  1  0.44098030  0.08352038  0.56283509  1
  O  O315  1  0.44006869  0.08352848  0.81270764  1
  O  O316  1  0.44436246  0.41652634  0.06272037  1
  O  O317  1  0.44405481  0.41628167  0.31380471  1
  O  O318  1  0.44362663  0.41640101  0.56375309  1
  O  O319  1  0.44338400  0.41647125  0.81336007  1
  O  O320  1  0.44079150  0.74997866  0.06162200  1
  O  O321  1  0.44345705  0.74983984  0.31318764  1
  O  O322  1  0.44335267  0.74952522  0.56378749  1
  O  O323  1  0.44014258  0.74997830  0.81290942  1
  O  O324  1  0.94419743  0.08338958  0.06304991  1
  O  O325  1  0.94341243  0.08266141  0.31348602  1
  O  O326  1  0.94065448  0.08347516  0.56297349  1
  O  O327  1  0.94196815  0.08289537  0.81203931  1
  O  O328  1  0.94187775  0.41683446  0.06148125  1
  O  O329  1  0.94294897  0.41672398  0.31332697  1
  O  O330  1  0.94138161  0.41676791  0.56282703  1
  O  O331  1  0.93953712  0.41699280  0.81237154  1
  O  O332  1  0.94480915  0.75032280  0.06303825  1
  O  O333  1  0.94468401  0.75051925  0.31282923  1
  O  O334  1  0.94382081  0.75007344  0.56405779  1
  O  O335  1  0.94421170  0.75034849  0.81355628  1
  O  O336  1  0.19402494  0.08393471  0.06130860  1
  O  O337  1  0.19162115  0.08300788  0.31286953  1
  O  O338  1  0.19318692  0.08367455  0.56114280  1
  O  O339  1  0.19159248  0.08344377  0.81293665  1
  O  O340  1  0.19109352  0.41619477  0.06298685  1
  O  O341  1  0.19268098  0.41675140  0.31107982  1
  O  O342  1  0.19033324  0.41627969  0.56290800  1
  O  O343  1  0.19231408  0.41624755  0.81070414  1
  O  O344  1  0.19199539  0.74960106  0.06305267  1
  O  O345  1  0.18994142  0.75000693  0.31250279  1
  O  O346  1  0.19364123  0.74982916  0.56068613  1
  O  O347  1  0.19271898  0.75043606  0.81322556  1
  O  O348  1  0.69030935  0.08279484  0.06303531  1
  O  O349  1  0.69032292  0.08340637  0.31199765  1
  O  O350  1  0.69150172  0.08323370  0.56193482  1
  O  O351  1  0.69367714  0.08266794  0.81167268  1
  O  O352  1  0.69155286  0.41676569  0.06325697  1
  O  O353  1  0.69301919  0.41660093  0.31106541  1
  O  O354  1  0.69531979  0.41642321  0.56141167  1
  O  O355  1  0.69552429  0.41576514  0.81203211  1
  O  O356  1  0.68990176  0.75058144  0.06299656  1
  O  O357  1  0.69320473  0.75050279  0.31081323  1
  O  O358  1  0.69112699  0.75055040  0.56285170  1
  O  O359  1  0.69313413  0.75118868  0.81151318  1
  O  O360  1  0.30743878  0.25036766  0.18873454  1
  O  O361  1  0.30797424  0.24983948  0.43720306  1
  O  O362  1  0.30596383  0.25000967  0.68817368  1
  O  O363  1  0.30555790  0.25016785  0.93812076  1
  O  O364  1  0.31006537  0.58278899  0.18763993  1
  O  O365  1  0.30823226  0.58311598  0.43716794  1
  O  O366  1  0.30627127  0.58333022  0.68819492  1
  O  O367  1  0.30639587  0.58309912  0.93904363  1
  O  O368  1  0.30830036  0.91649294  0.18683878  1
  O  O369  1  0.30612814  0.91685677  0.43775660  1
  O  O370  1  0.30629744  0.91667612  0.68871401  1
  O  O371  1  0.30775706  0.91659898  0.93773157  1
  O  O372  1  0.80875583  0.24951592  0.18663165  1
  O  O373  1  0.80675887  0.24931390  0.43819918  1
  O  O374  1  0.80887951  0.24944514  0.68767554  1
  O  O375  1  0.80891186  0.24892019  0.93788591  1
  O  O376  1  0.80734048  0.58433671  0.18859610  1
  O  O377  1  0.80917262  0.58425673  0.43711629  1
  O  O378  1  0.80580515  0.58405170  0.68848541  1
  O  O379  1  0.80580632  0.58405704  0.93856006  1
  O  O380  1  0.80663658  0.91647743  0.18869941  1
  O  O381  1  0.80934186  0.91670517  0.43679393  1
  O  O382  1  0.80629117  0.91687848  0.68951435  1
  O  O383  1  0.81026763  0.91652847  0.93759621  1
  O  O384  1  0.23140560  0.24915350  0.03931195  1
  O  O385  1  0.23449603  0.25011957  0.29026295  1
  O  O386  1  0.23269152  0.24907426  0.53759892  1
  O  O387  1  0.23307977  0.24958286  0.78999338  1
  O  O388  1  0.23258007  0.58365947  0.04007685  1
  O  O389  1  0.23512486  0.58286734  0.28777307  1
  O  O390  1  0.23251861  0.58343691  0.53716109  1
  O  O391  1  0.23361778  0.58366393  0.79035561  1
  O  O392  1  0.23346463  0.91686515  0.03825338  1
  O  O393  1  0.23314389  0.91725580  0.28728432  1
  O  O394  1  0.23348125  0.91743471  0.53985333  1
  O  O395  1  0.23333504  0.91657722  0.79069908  1
  O  O396  1  0.73392323  0.25000207  0.03816207  1
  O  O397  1  0.73435069  0.24974197  0.28753348  1
  O  O398  1  0.73498333  0.24997266  0.54074274  1
  O  O399  1  0.73442462  0.24939826  0.78856152  1
  O  O400  1  0.73183788  0.58313309  0.03970760  1
  O  O401  1  0.73429167  0.58403205  0.29011759  1
  O  O402  1  0.73382957  0.58307510  0.53747774  1
  O  O403  1  0.73206104  0.58288196  0.78984380  1
  O  O404  1  0.73446444  0.91676292  0.03723982  1
  O  O405  1  0.73200123  0.91683103  0.28942081  1
  O  O406  1  0.73506900  0.91749155  0.53768282  1
  O  O407  1  0.73418518  0.91706686  0.79194767  1
  O  O408  1  0.26710332  0.08313379  0.21259925  1
  O  O409  1  0.26685423  0.08351342  0.45981171  1
  O  O410  1  0.26683226  0.08295318  0.71250375  1
  O  O411  1  0.26698293  0.08301471  0.95987535  1
  O  O412  1  0.26579045  0.41613106  0.20956888  1
  O  O413  1  0.26458959  0.41647367  0.46185469  1
  O  O414  1  0.26510993  0.41634874  0.70868778  1
  O  O415  1  0.26477553  0.41664574  0.96153576  1
  O  O416  1  0.26445770  0.75014098  0.21193675  1
  O  O417  1  0.26538736  0.74993459  0.45804392  1
  O  O418  1  0.26741308  0.75063195  0.71220113  1
  O  O419  1  0.26660161  0.74996700  0.96269628  1
  O  O420  1  0.76413894  0.08267549  0.21084005  1
  O  O421  1  0.76657430  0.08368709  0.46164392  1
  O  O422  1  0.76772884  0.08339459  0.71073836  1
  O  O423  1  0.76520503  0.08397937  0.96263371  1
  O  O424  1  0.76562553  0.41681212  0.20928871  1
  O  O425  1  0.76884115  0.41639772  0.45992483  1
  O  O426  1  0.76875739  0.41654233  0.71035763  1
  O  O427  1  0.76664563  0.41624734  0.96270935  1
  O  O428  1  0.76549343  0.75056597  0.20857205  1
  O  O429  1  0.76538411  0.75017234  0.46191295  1
  O  O430  1  0.76575844  0.75070049  0.70924465  1
  O  O431  1  0.76481927  0.74938235  0.96238209  1
  O  O432  1  0.01690276  0.08394943  0.16488148  1
  O  O433  1  0.01710918  0.08254482  0.41502121  1
  O  O434  1  0.01464189  0.08392925  0.66387729  1
  O  O435  1  0.01696329  0.08277582  0.91262005  1
  O  O436  1  0.01706075  0.41647259  0.16226306  1
  O  O437  1  0.01529850  0.41660369  0.41517797  1
  O  O438  1  0.01598581  0.41615007  0.66371418  1
  O  O439  1  0.01377008  0.41644961  0.91270965  1
  O  O440  1  0.01923078  0.74938784  0.16372137  1
  O  O441  1  0.01787360  0.75123138  0.41470108  1
  O  O442  1  0.01715543  0.74950609  0.66551563  1
  O  O443  1  0.01879239  0.75164732  0.91418376  1
  O  O444  1  0.51528425  0.08365111  0.16195723  1
  O  O445  1  0.51609880  0.08334521  0.41323329  1
  O  O446  1  0.51625804  0.08308852  0.66313073  1
  O  O447  1  0.51412879  0.08307213  0.91353661  1
  O  O448  1  0.51849061  0.41686253  0.16400257  1
  O  O449  1  0.51607107  0.41595283  0.41647989  1
  O  O450  1  0.51757222  0.41685011  0.66492497  1
  O  O451  1  0.51700341  0.41683617  0.91436721  1
  O  O452  1  0.51599225  0.74965043  0.16214157  1
  O  O453  1  0.51641528  0.74985968  0.41494996  1
  O  O454  1  0.51742254  0.75022452  0.66482035  1
  O  O455  1  0.51390926  0.75051715  0.91386218  1
  O  O456  1  0.48436874  0.24982133  0.08325877  1
  O  O457  1  0.48212189  0.24961106  0.33551441  1
  O  O458  1  0.48535516  0.24888864  0.58778146  1
  O  O459  1  0.48559628  0.24955870  0.83644144  1
  O  O460  1  0.48263639  0.58372685  0.08446569  1
  O  O461  1  0.48292526  0.58274275  0.33787466  1
  O  O462  1  0.48608058  0.58334270  0.58679384  1
  O  O463  1  0.48525357  0.58368314  0.83667443  1
  O  O464  1  0.48227584  0.91690790  0.08726162  1
  O  O465  1  0.48397019  0.91716510  0.33394912  1
  O  O466  1  0.48394510  0.91689785  0.58449129  1
  O  O467  1  0.48047523  0.91697012  0.83562355  1
  O  O468  1  0.98282971  0.25000676  0.08418474  1
  O  O469  1  0.98451879  0.24958407  0.33689516  1
  O  O470  1  0.98205133  0.25011512  0.58496367  1
  O  O471  1  0.98247391  0.24951553  0.83774153  1
  O  O472  1  0.98478324  0.58360337  0.08323143  1
  O  O473  1  0.98297415  0.58356336  0.33695100  1
  O  O474  1  0.98420717  0.58359426  0.58442299  1
  O  O475  1  0.98472475  0.58340814  0.83723491  1
  O  O476  1  0.98623607  0.91733635  0.08608247  1
  O  O477  1  0.98312397  0.91660390  0.33422500  1
  O  O478  1  0.98468896  0.91712843  0.58809831  1
  O  O479  1  0.98527136  0.91676347  0.83716258  1
  O  O480  1  0.08657623  0.31574275  0.07647297  1
  O  O481  1  0.08831645  0.31355027  0.32807895  1
  O  O482  1  0.08587519  0.31589370  0.57712747  1
  O  O483  1  0.08607870  0.31397180  0.82740708  1
  O  O484  1  0.08930831  0.64775262  0.07727758  1
  O  O485  1  0.08653669  0.64908367  0.32816177  1
  O  O486  1  0.08910911  0.64668637  0.57692896  1
  O  O487  1  0.08786518  0.64972596  0.82854405  1
  O  O488  1  0.09048472  0.98102098  0.07691202  1
  O  O489  1  0.08684715  0.98259799  0.32709997  1
  O  O490  1  0.08802254  0.98207522  0.57834375  1
  O  O491  1  0.08875191  0.98221881  0.82748908  1
  O  O492  1  0.58855595  0.31471454  0.07702711  1
  O  O493  1  0.58637283  0.31374407  0.32769269  1
  O  O494  1  0.58883012  0.31369876  0.57794300  1
  O  O495  1  0.58954962  0.31453016  0.82678673  1
  O  O496  1  0.58673315  0.64855310  0.07688982  1
  O  O497  1  0.58628156  0.64791943  0.32760227  1
  O  O498  1  0.58923853  0.64972874  0.57836798  1
  O  O499  1  0.58898188  0.64854433  0.82755526  1
  O  O500  1  0.58582391  0.98203333  0.07763388  1
  O  O501  1  0.58746322  0.98327146  0.32709426  1
  O  O502  1  0.58763773  0.98224028  0.57798717  1
  O  O503  1  0.58443697  0.98182816  0.82695350  1
  O  O504  1  0.41182003  0.01782391  0.17225328  1
  O  O505  1  0.41186122  0.01939670  0.42269690  1
  O  O506  1  0.41215562  0.01836199  0.67264098  1
  O  O507  1  0.41038794  0.01770058  0.92232635  1
  O  O508  1  0.41454600  0.35230160  0.17224950  1
  O  O509  1  0.41230641  0.35078876  0.42259262  1
  O  O510  1  0.41391837  0.35154621  0.67310274  1
  O  O511  1  0.41340792  0.35146455  0.92294151  1
  O  O512  1  0.41239940  0.68462376  0.17139787  1
  O  O513  1  0.41292793  0.68413056  0.42248334  1
  O  O514  1  0.41377751  0.68452500  0.67349669  1
  O  O515  1  0.41007140  0.68599250  0.92311048  1
  O  O516  1  0.91298220  0.01945542  0.17252094  1
  O  O517  1  0.91346952  0.01644605  0.42251497  1
  O  O518  1  0.91059029  0.01980417  0.67336169  1
  O  O519  1  0.91361097  0.01734714  0.92201370  1
  O  O520  1  0.91372265  0.35062215  0.17114134  1
  O  O521  1  0.91101680  0.35255680  0.42270090  1
  O  O522  1  0.91226969  0.35064376  0.67225383  1
  O  O523  1  0.91026122  0.35076174  0.92195143  1
  O  O524  1  0.91501293  0.68514393  0.17229994  1
  O  O525  1  0.91420186  0.68578757  0.42243821  1
  O  O526  1  0.91326040  0.68476950  0.67323885  1
  O  O527  1  0.91510966  0.68619922  0.92342286  1
  O  O528  1  0.16363048  0.01779441  0.20275407  1
  O  O529  1  0.16263506  0.01921640  0.45147413  1
  O  O530  1  0.16368245  0.01693245  0.70342030  1
  O  O531  1  0.16290881  0.01832635  0.95221531  1
  O  O532  1  0.16149881  0.35164263  0.20192127  1
  O  O533  1  0.16123506  0.35108236  0.45326067  1
  O  O534  1  0.16100087  0.35140615  0.70149755  1
  O  O535  1  0.16117811  0.35142768  0.95315482  1
  O  O536  1  0.16063685  0.68584078  0.20234908  1
  O  O537  1  0.16154210  0.68411076  0.45185056  1
  O  O538  1  0.16354653  0.68636847  0.70308628  1
  O  O539  1  0.16283918  0.68482417  0.95282939  1
  O  O540  1  0.66053576  0.01699784  0.20253254  1
  O  O541  1  0.66248014  0.01895032  0.45173211  1
  O  O542  1  0.66361439  0.01867323  0.70177820  1
  O  O543  1  0.66169621  0.01913395  0.95247835  1
  O  O544  1  0.66156350  0.35191007  0.20176433  1
  O  O545  1  0.66486244  0.35193550  0.45202838  1
  O  O546  1  0.66540094  0.35077371  0.70246768  1
  O  O547  1  0.66322888  0.35129071  0.95327401  1
  O  O548  1  0.66094811  0.68646638  0.20175658  1
  O  O549  1  0.66224306  0.68409452  0.45330442  1
  O  O550  1  0.66220818  0.68471826  0.70286709  1
  O  O551  1  0.66111421  0.68425514  0.95385911  1
  O  O552  1  0.33527002  0.31417511  0.04795887  1
  O  O553  1  0.33868149  0.31433286  0.29833065  1
  O  O554  1  0.33647476  0.31363809  0.54768909  1
  O  O555  1  0.33678043  0.31462919  0.79761202  1
  O  O556  1  0.33654303  0.64886579  0.04842605  1
  O  O557  1  0.33878166  0.64788492  0.29767765  1
  O  O558  1  0.33612349  0.64854288  0.54713198  1
  O  O559  1  0.33732561  0.64891176  0.79716308  1
  O  O560  1  0.33731594  0.98186683  0.04745191  1
  O  O561  1  0.33691236  0.98228576  0.29653845  1
  O  O562  1  0.33713045  0.98293993  0.54650309  1
  O  O563  1  0.33710977  0.98182292  0.79802320  1
  O  O564  1  0.83760575  0.31562304  0.04739208  1
  O  O565  1  0.83809753  0.31463286  0.29618597  1
  O  O566  1  0.83910458  0.31468383  0.54710658  1
  O  O567  1  0.83825485  0.31441047  0.79748509  1
  O  O568  1  0.83583580  0.64781288  0.04830816  1
  O  O569  1  0.83814775  0.64940730  0.29797571  1
  O  O570  1  0.83729392  0.64788098  0.54773437  1
  O  O571  1  0.83551381  0.64843168  0.79838501  1
  O  O572  1  0.83796929  0.98163741  0.04774822  1
  O  O573  1  0.83629749  0.98126079  0.29833710  1
  O  O574  1  0.83845394  0.98296244  0.54619539  1
  O  O575  1  0.83797610  0.98299856  0.79818888  1
  O  O576  1  0.41131332  0.14787798  0.17238060  1
  O  O577  1  0.41270576  0.14942770  0.42261620  1
  O  O578  1  0.41243661  0.14817186  0.67319865  1
  O  O579  1  0.41036069  0.14770692  0.92293738  1
  O  O580  1  0.41477790  0.48245321  0.17190285  1
  O  O581  1  0.41228739  0.48118940  0.42289687  1
  O  O582  1  0.41372818  0.48181683  0.67282233  1
  O  O583  1  0.41303746  0.48152455  0.92274035  1
  O  O584  1  0.41243503  0.81482282  0.17183476  1
  O  O585  1  0.41263883  0.81447497  0.42231564  1
  O  O586  1  0.41295533  0.81445425  0.67309100  1
  O  O587  1  0.41025623  0.81607118  0.92239042  1
  O  O588  1  0.91326631  0.14961189  0.17178913  1
  O  O589  1  0.91260600  0.14647488  0.42317365  1
  O  O590  1  0.91124644  0.14982084  0.67231686  1
  O  O591  1  0.91306255  0.14750361  0.92206611  1
  O  O592  1  0.91327214  0.48086100  0.17155997  1
  O  O593  1  0.91184586  0.48267413  0.42246274  1
  O  O594  1  0.91216135  0.48077169  0.67315955  1
  O  O595  1  0.90986293  0.48093202  0.92276846  1
  O  O596  1  0.91585181  0.81520275  0.17285047  1
  O  O597  1  0.91390748  0.81598938  0.42187672  1
  O  O598  1  0.91357309  0.81489466  0.67348307  1
  O  O599  1  0.91476553  0.81638208  0.92281923  1
  O  O600  1  0.08712788  0.18580033  0.07622556  1
  O  O601  1  0.08755382  0.18328301  0.32848316  1
  O  O602  1  0.08646713  0.18599274  0.57665792  1
  O  O603  1  0.08584084  0.18375889  0.82749136  1
  O  O604  1  0.08832057  0.51771790  0.07682945  1
  O  O605  1  0.08669351  0.51899341  0.32743422  1
  O  O606  1  0.08721090  0.51665474  0.57721818  1
  O  O607  1  0.08841233  0.51929308  0.82814236  1
  O  O608  1  0.08951448  0.85093011  0.07767405  1
  O  O609  1  0.08780796  0.85260233  0.32757005  1
  O  O610  1  0.08812980  0.85195257  0.57849723  1
  O  O611  1  0.08937328  0.85210737  0.82785915  1
  O  O612  1  0.58821967  0.18452190  0.07701089  1
  O  O613  1  0.58557494  0.18370894  0.32755510  1
  O  O614  1  0.58866831  0.18338211  0.57872374  1
  O  O615  1  0.58932648  0.18461541  0.82702487  1
  O  O616  1  0.58673763  0.51849785  0.07687850  1
  O  O617  1  0.58661250  0.51786674  0.32790552  1
  O  O618  1  0.59042979  0.51954978  0.57716170  1
  O  O619  1  0.58906019  0.51858083  0.82700641  1
  O  O620  1  0.58580445  0.85178070  0.07750094  1
  O  O621  1  0.58833829  0.85322368  0.32644873  1
  O  O622  1  0.58775384  0.85192085  0.57817275  1
  O  O623  1  0.58442291  0.85205823  0.82734103  1
  O  O624  1  0.33530900  0.18407622  0.04714228  1
  O  O625  1  0.33817071  0.18426745  0.29773529  1
  O  O626  1  0.33629768  0.18354924  0.54670697  1
  O  O627  1  0.33700989  0.18447827  0.79707660  1
  O  O628  1  0.33672731  0.51887797  0.04874189  1
  O  O629  1  0.33878618  0.51778437  0.29771602  1
  O  O630  1  0.33618462  0.51851278  0.54756147  1
  O  O631  1  0.33721178  0.51866610  0.79758008  1
  O  O632  1  0.33722343  0.85170199  0.04789306  1
  O  O633  1  0.33655097  0.85224933  0.29713887  1
  O  O634  1  0.33721287  0.85268216  0.54716153  1
  O  O635  1  0.33734927  0.85174293  0.79807221  1
  O  O636  1  0.83794377  0.18567436  0.04845143  1
  O  O637  1  0.83777522  0.18455871  0.29663267  1
  O  O638  1  0.83870138  0.18458593  0.54740012  1
  O  O639  1  0.83800752  0.18421190  0.79784373  1
  O  O640  1  0.83563146  0.51770318  0.04757242  1
  O  O641  1  0.83851119  0.51933232  0.29760158  1
  O  O642  1  0.83729035  0.51768916  0.54667959  1
  O  O643  1  0.83627011  0.51827911  0.79740470  1
  O  O644  1  0.83789463  0.85146105  0.04782338  1
  O  O645  1  0.83591202  0.85136019  0.29829163  1
  O  O646  1  0.83861626  0.85277172  0.54719816  1
  O  O647  1  0.83872214  0.85296991  0.79881084  1
  O  O648  1  0.16355058  0.14779673  0.20274488  1
  O  O649  1  0.16283232  0.14906501  0.45178265  1
  O  O650  1  0.16283062  0.14700166  0.70248352  1
  O  O651  1  0.16281475  0.14831996  0.95163631  1
  O  O652  1  0.16189911  0.48152210  0.20173793  1
  O  O653  1  0.16117178  0.48156096  0.45302531  1
  O  O654  1  0.16108728  0.48130155  0.70161696  1
  O  O655  1  0.16125811  0.48177619  0.95357032  1
  O  O656  1  0.16116725  0.81605209  0.20290349  1
  O  O657  1  0.16112913  0.81420612  0.45172421  1
  O  O658  1  0.16406473  0.81644225  0.70363802  1
  O  O659  1  0.16293401  0.81496622  0.95304975  1
  O  O660  1  0.66006464  0.14702958  0.20188745  1
  O  O661  1  0.66283144  0.14877849  0.45194261  1
  O  O662  1  0.66385224  0.14866187  0.70230251  1
  O  O663  1  0.66182255  0.14930351  0.95360343  1
  O  O664  1  0.66170700  0.48191374  0.20201158  1
  O  O665  1  0.66504535  0.48204895  0.45221941  1
  O  O666  1  0.66457348  0.48093174  0.70292918  1
  O  O667  1  0.66319336  0.48157801  0.95321653  1
  O  O668  1  0.66168657  0.81650618  0.20193258  1
  O  O669  1  0.66156407  0.81435417  0.45280427  1
  O  O670  1  0.66144422  0.81491995  0.70210225  1
  O  O671  1  0.66141522  0.81448040  0.95253006  1
