# generated using pymatgen
data_Na2MnFe(PO4)2
_symmetry_space_group_name_H-M   'P 1'
_cell_length_a   21.09017000
_cell_length_b   18.94284271
_cell_length_c   20.04819319
_cell_angle_alpha   89.99941666
_cell_angle_beta   89.99955585
_cell_angle_gamma   90.00039437
_symmetry_Int_Tables_number   1
_chemical_formula_structural   Na2MnFe(PO4)2
_chemical_formula_sum   'Na96 Mn48 Fe48 P96 O384'
_cell_volume   8009.40900929
_cell_formula_units_Z   48
loop_
 _symmetry_equiv_pos_site_id
 _symmetry_equiv_pos_as_xyz
  1  'x, y, z'
loop_
 _atom_site_type_symbol
 _atom_site_label
 _atom_site_symmetry_multiplicity
 _atom_site_fract_x
 _atom_site_fract_y
 _atom_site_fract_z
 _atom_site_occupancy
  Na  Na0  1  0.00136589  -0.00019589  -0.00055363  1
  Na  Na1  1  0.00274827  0.00071417  0.24884265  1
  Na  Na2  1  -0.00097577  -0.00027356  0.50113824  1
  Na  Na3  1  -0.00005185  0.00024816  0.75082984  1
  Na  Na4  1  0.00324347  0.33482157  -0.00022994  1
  Na  Na5  1  -0.00058980  0.33277409  0.24998468  1
  Na  Na6  1  -0.00239894  0.33298292  0.49927819  1
  Na  Na7  1  -0.00032935  0.33349490  0.75079716  1
  Na  Na8  1  0.00072640  0.66676277  -0.00039853  1
  Na  Na9  1  -0.00197799  0.66612690  0.25004523  1
  Na  Na10  1  -0.00251884  0.66642604  0.50097020  1
  Na  Na11  1  -0.00119392  0.66611871  0.74946747  1
  Na  Na12  1  0.49946916  0.00003418  -0.00026233  1
  Na  Na13  1  0.49810349  -0.00028707  0.25072173  1
  Na  Na14  1  0.49889902  -0.00076964  0.50077873  1
  Na  Na15  1  0.50298549  0.00098710  0.74885025  1
  Na  Na16  1  0.49969284  0.33406127  -0.00009676  1
  Na  Na17  1  0.50058049  0.33333746  0.25060048  1
  Na  Na18  1  0.50154557  0.33412526  0.50000214  1
  Na  Na19  1  0.49776009  0.33295922  0.74978052  1
  Na  Na20  1  0.50082198  0.66756023  0.00081322  1
  Na  Na21  1  0.49753300  0.66647343  0.24938308  1
  Na  Na22  1  0.49697548  0.66597518  0.49953660  1
  Na  Na23  1  0.49986873  0.66638872  0.75000905  1
  Na  Na24  1  0.24769418  -0.00095106  0.12602618  1
  Na  Na25  1  0.24950429  0.00008087  0.37405593  1
  Na  Na26  1  0.24908956  -0.00039329  0.62393846  1
  Na  Na27  1  0.24825938  -0.00062118  0.87590179  1
  Na  Na28  1  0.24868118  0.33310187  0.12435338  1
  Na  Na29  1  0.24772904  0.33269472  0.37501581  1
  Na  Na30  1  0.25001335  0.33372512  0.62538325  1
  Na  Na31  1  0.25050006  0.33393815  0.87520985  1
  Na  Na32  1  0.25240097  0.66781748  0.12597772  1
  Na  Na33  1  0.25185066  0.66747584  0.37527568  1
  Na  Na34  1  0.25047512  0.66678956  0.62507401  1
  Na  Na35  1  0.24921057  0.66597198  0.87410529  1
  Na  Na36  1  0.74914274  -0.00016508  0.12520447  1
  Na  Na37  1  0.75262988  0.00105697  0.37546499  1
  Na  Na38  1  0.75030826  -0.00028493  0.62385242  1
  Na  Na39  1  0.74994148  0.00053173  0.87582994  1
  Na  Na40  1  0.75075309  0.33396046  0.12457696  1
  Na  Na41  1  0.75299639  0.33386088  0.37516226  1
  Na  Na42  1  0.75180395  0.33398347  0.62507633  1
  Na  Na43  1  0.74844516  0.33293136  0.87499729  1
  Na  Na44  1  0.74961111  0.66626166  0.12410340  1
  Na  Na45  1  0.75301144  0.66729099  0.37505040  1
  Na  Na46  1  0.75375340  0.66746968  0.62566716  1
  Na  Na47  1  0.75044160  0.66665439  0.87423440  1
  Na  Na48  1  0.00150434  0.16628811  -0.00040282  1
  Na  Na49  1  0.00173322  0.16577560  0.24891724  1
  Na  Na50  1  -0.00227844  0.16720747  0.50052922  1
  Na  Na51  1  -0.00244289  0.16732371  0.75140184  1
  Na  Na52  1  0.00117742  0.49974330  -0.00068338  1
  Na  Na53  1  -0.00079177  0.49970838  0.25054667  1
  Na  Na54  1  -0.00308508  0.50055781  0.49995788  1
  Na  Na55  1  0.00000220  0.49958681  0.74960306  1
  Na  Na56  1  0.00234047  0.83251223  -0.00028964  1
  Na  Na57  1  0.00029924  0.83331374  0.24968469  1
  Na  Na58  1  -0.00133844  0.83396243  0.50066690  1
  Na  Na59  1  0.00140505  0.83266385  0.75015007  1
  Na  Na60  1  0.49862878  0.16762768  -0.00006190  1
  Na  Na61  1  0.50034943  0.16661730  0.25178467  1
  Na  Na62  1  0.50087846  0.16662573  0.49962932  1
  Na  Na63  1  0.50047701  0.16684526  0.74904646  1
  Na  Na64  1  0.50081225  0.49929640  -0.00050934  1
  Na  Na65  1  0.50007726  0.49971938  0.24925942  1
  Na  Na66  1  0.49796735  0.50106444  0.50006085  1
  Na  Na67  1  0.49947331  0.50003026  0.75116912  1
  Na  Na68  1  0.49898308  0.83361990  0.00054822  1
  Na  Na69  1  0.49667580  0.83389034  0.24990013  1
  Na  Na70  1  0.49821275  0.83352181  0.50053674  1
  Na  Na71  1  0.50137135  0.83255515  0.74875020  1
  Na  Na72  1  0.24839644  0.16772215  0.12549645  1
  Na  Na73  1  0.24851522  0.16670854  0.37379779  1
  Na  Na74  1  0.25073943  0.16611084  0.62533020  1
  Na  Na75  1  0.25096789  0.16664416  0.87578346  1
  Na  Na76  1  0.24875976  0.50011628  0.12505931  1
  Na  Na77  1  0.25049658  0.49939709  0.37607011  1
  Na  Na78  1  0.24991625  0.49965996  0.62436453  1
  Na  Na79  1  0.24950486  0.49922749  0.87461387  1
  Na  Na80  1  0.25102561  0.83275396  0.12602797  1
  Na  Na81  1  0.24984137  0.83353566  0.37451747  1
  Na  Na82  1  0.24981971  0.83287724  0.62467401  1
  Na  Na83  1  0.24854723  0.83373421  0.87472949  1
  Na  Na84  1  0.74955638  0.16666228  0.12530715  1
  Na  Na85  1  0.75131409  0.16660942  0.37507197  1
  Na  Na86  1  0.75116175  0.16673289  0.62471220  1
  Na  Na87  1  0.75207847  0.16525464  0.87488010  1
  Na  Na88  1  0.74819703  0.50065386  0.12349483  1
  Na  Na89  1  0.75406611  0.49878729  0.37538244  1
  Na  Na90  1  0.75328551  0.49930974  0.62551751  1
  Na  Na91  1  0.74945451  0.50026976  0.87488338  1
  Na  Na92  1  0.75177852  0.83253893  0.12509839  1
  Na  Na93  1  0.75328060  0.83252823  0.37530044  1
  Na  Na94  1  0.75114923  0.83295902  0.62440097  1
  Na  Na95  1  0.74738151  0.83420850  0.87526713  1
  Mn  Mn96  1  0.35722241  0.74991114  0.75274457  1
  Mn  Mn97  1  0.85880216  0.08326881  0.25204070  1
  Mn  Mn98  1  0.10695959  0.74925291  0.62253508  1
  Mn  Mn99  1  0.85753044  0.41622463  0.00184635  1
  Mn  Mn100  1  0.39165034  0.25002759  0.37764715  1
  Mn  Mn101  1  0.35746394  0.41682767  0.25188505  1
  Mn  Mn102  1  0.14185213  0.58369652  0.49784851  1
  Mn  Mn103  1  0.39215420  0.58338441  0.87749022  1
  Mn  Mn104  1  0.14242808  0.24983643  0.74739163  1
  Mn  Mn105  1  0.64268743  0.24967198  0.74768427  1
  Mn  Mn106  1  0.60888076  0.41760000  0.37317830  1
  Mn  Mn107  1  0.35755664  0.41621928  0.50250031  1
  Mn  Mn108  1  0.64330668  0.91646993  0.49671990  1
  Mn  Mn109  1  0.64120548  0.91638140  0.99840928  1
  Mn  Mn110  1  0.35750121  0.08308854  0.00304094  1
  Mn  Mn111  1  0.89170571  0.58287622  0.12652452  1
  Mn  Mn112  1  0.10771650  0.08329563  0.87260496  1
  Mn  Mn113  1  0.89343731  0.24998722  0.12651257  1
  Mn  Mn114  1  0.60799334  0.08360610  0.87250286  1
  Mn  Mn115  1  0.10619011  0.41678335  0.37288571  1
  Mn  Mn116  1  0.39236304  0.58286270  0.12690740  1
  Mn  Mn117  1  0.39228223  0.91693195  0.87655704  1
  Mn  Mn118  1  0.39258409  0.91673623  0.62757593  1
  Mn  Mn119  1  0.60717855  0.75056056  0.12354050  1
  Mn  Mn120  1  0.85767920  0.75049420  0.00146691  1
  Mn  Mn121  1  0.64288649  0.25021219  0.24789695  1
  Mn  Mn122  1  0.35662722  0.08361786  0.25204182  1
  Mn  Mn123  1  0.39280138  0.25057286  0.62648763  1
  Mn  Mn124  1  0.60787573  0.08256789  0.37338575  1
  Mn  Mn125  1  0.64217990  0.91623571  0.24863315  1
  Mn  Mn126  1  0.64323085  0.58303852  0.49792981  1
  Mn  Mn127  1  0.14205486  0.91662713  0.49737537  1
  Mn  Mn128  1  0.89194203  0.91698258  0.62859236  1
  Mn  Mn129  1  0.64328760  0.58368931  0.74738853  1
  Mn  Mn130  1  0.89248726  0.91576451  0.87744836  1
  Mn  Mn131  1  0.89317245  0.91676725  0.12699985  1
  Mn  Mn132  1  0.14174249  0.58329479  0.24861245  1
  Mn  Mn133  1  0.14246073  0.58345909  0.99741947  1
  Mn  Mn134  1  0.89251138  0.25085594  0.87813583  1
  Mn  Mn135  1  0.60823059  0.74930269  0.62231950  1
  Mn  Mn136  1  0.10852958  0.74928966  0.12279478  1
  Mn  Mn137  1  0.64274202  0.58358851  0.24873975  1
  Mn  Mn138  1  0.10705625  0.08455992  0.62299001  1
  Mn  Mn139  1  0.64135551  0.25010257  0.99790663  1
  Mn  Mn140  1  0.60807294  0.41696425  0.62321896  1
  Mn  Mn141  1  0.14090662  0.24930918  0.49827808  1
  Mn  Mn142  1  0.60743035  0.74995793  0.37320016  1
  Mn  Mn143  1  0.35829626  0.08341699  0.75193956  1
  Fe  Fe144  1  0.64213568  0.58357906  0.99772785  1
  Fe  Fe145  1  0.89302348  0.24903655  0.37641622  1
  Fe  Fe146  1  0.35693936  0.74990089  0.25253283  1
  Fe  Fe147  1  0.85838904  0.74992787  0.25188869  1
  Fe  Fe148  1  0.89294276  0.58272314  0.62765061  1
  Fe  Fe149  1  0.35701220  0.41686314  0.00188345  1
  Fe  Fe150  1  0.85789111  0.41663602  0.75303398  1
  Fe  Fe151  1  0.39202797  0.58329422  0.37685344  1
  Fe  Fe152  1  0.85822895  0.08346818  0.50190184  1
  Fe  Fe153  1  0.14236057  0.91656642  0.74825907  1
  Fe  Fe154  1  0.85810057  0.41634344  0.50254591  1
  Fe  Fe155  1  0.39242091  0.25005363  0.87670024  1
  Fe  Fe156  1  0.89202637  0.25044189  0.62743053  1
  Fe  Fe157  1  0.60734325  0.74965814  0.87330515  1
  Fe  Fe158  1  0.85844776  0.75014428  0.50186016  1
  Fe  Fe159  1  0.39204009  0.58312119  0.62701736  1
  Fe  Fe160  1  0.35676865  0.75044084  0.50161449  1
  Fe  Fe161  1  0.10606396  0.41636649  0.62366613  1
  Fe  Fe162  1  0.14377763  0.25007321  0.99814640  1
  Fe  Fe163  1  0.60763243  0.41602544  0.12326882  1
  Fe  Fe164  1  0.85733527  0.75060319  0.75301636  1
  Fe  Fe165  1  0.60623506  0.41679924  0.87275740  1
  Fe  Fe166  1  0.10665508  0.75022094  0.37370813  1
  Fe  Fe167  1  0.14235429  0.58320961  0.74766388  1
  Fe  Fe168  1  0.14135716  0.25011188  0.24786549  1
  Fe  Fe169  1  0.85802451  0.41707389  0.25069732  1
  Fe  Fe170  1  0.60665750  0.08369889  0.12404212  1
  Fe  Fe171  1  0.39156194  0.91782961  0.12672229  1
  Fe  Fe172  1  0.14337195  0.91631504  0.99849239  1
  Fe  Fe173  1  0.64319537  0.91654043  0.74850194  1
  Fe  Fe174  1  0.85732191  0.08311586  0.00203460  1
  Fe  Fe175  1  0.39245878  0.24990172  0.12688652  1
  Fe  Fe176  1  0.35652625  0.41681359  0.75172511  1
  Fe  Fe177  1  0.85659902  0.08278818  0.75184199  1
  Fe  Fe178  1  0.10700944  0.08293936  0.37408880  1
  Fe  Fe179  1  0.10788641  0.08372190  0.12232862  1
  Fe  Fe180  1  0.35701921  0.08328905  0.50148028  1
  Fe  Fe181  1  0.10800920  0.41740726  0.87253107  1
  Fe  Fe182  1  0.35744020  0.74991778  0.00080440  1
  Fe  Fe183  1  0.14256545  0.91637144  0.24854005  1
  Fe  Fe184  1  0.10806698  0.74908236  0.87311450  1
  Fe  Fe185  1  0.10750716  0.41664171  0.12349757  1
  Fe  Fe186  1  0.89370586  0.58333873  0.87637480  1
  Fe  Fe187  1  0.89376134  0.91700278  0.37577132  1
  Fe  Fe188  1  0.39136894  0.91667777  0.37724666  1
  Fe  Fe189  1  0.60846366  0.08367378  0.62234199  1
  Fe  Fe190  1  0.64457792  0.25039391  0.49862889  1
  Fe  Fe191  1  0.89222453  0.58385741  0.37672983  1
  P  P192  1  0.05586759  0.25039796  0.11011619  1
  P  P193  1  0.05225108  0.24899788  0.35972810  1
  P  P194  1  0.05112733  0.25107084  0.61051118  1
  P  P195  1  0.05506486  0.25080798  0.86130243  1
  P  P196  1  0.05324580  0.58242090  0.11001620  1
  P  P197  1  0.05131970  0.58440726  0.36075254  1
  P  P198  1  0.05286105  0.58213079  0.61116920  1
  P  P199  1  0.05371425  0.58334145  0.85911136  1
  P  P200  1  0.05601373  0.91687160  0.11025850  1
  P  P201  1  0.05298237  0.91658922  0.35988658  1
  P  P202  1  0.05426057  0.91688628  0.61130174  1
  P  P203  1  0.05554631  0.91561958  0.86067413  1
  P  P204  1  0.55211091  0.24966661  0.11060500  1
  P  P205  1  0.55512115  0.25030080  0.36161148  1
  P  P206  1  0.55504193  0.24978999  0.60915045  1
  P  P207  1  0.55197910  0.25112484  0.85981408  1
  P  P208  1  0.55434305  0.58269820  0.10972664  1
  P  P209  1  0.55181645  0.58382092  0.36002697  1
  P  P210  1  0.55217065  0.58318141  0.60984702  1
  P  P211  1  0.55466254  0.58352004  0.86117317  1
  P  P212  1  0.55136290  0.91766686  0.11091510  1
  P  P213  1  0.55132201  0.91612204  0.36030426  1
  P  P214  1  0.55577715  0.91699947  0.61075064  1
  P  P215  1  0.55395008  0.91567253  0.85906465  1
  P  P216  1  0.44700103  0.08405309  0.14029083  1
  P  P217  1  0.44541861  0.08261368  0.39085057  1
  P  P218  1  0.44738980  0.08364838  0.63857426  1
  P  P219  1  0.44665470  0.08400672  0.88980095  1
  P  P220  1  0.44666393  0.41568595  0.13866290  1
  P  P221  1  0.44662891  0.41729615  0.38996983  1
  P  P222  1  0.44586678  0.41769931  0.64085592  1
  P  P223  1  0.44514139  0.41617177  0.88930454  1
  P  P224  1  0.44378950  0.75095802  0.13929925  1
  P  P225  1  0.44410679  0.75009597  0.38941825  1
  P  P226  1  0.44509538  0.74911436  0.63900122  1
  P  P227  1  0.44744445  0.75012743  0.89036596  1
  P  P228  1  0.94763456  0.08333022  0.13822319  1
  P  P229  1  0.94768585  0.08291444  0.39000009  1
  P  P230  1  0.94457810  0.08436957  0.64027230  1
  P  P231  1  0.94459064  0.08291250  0.88987549  1
  P  P232  1  0.94763668  0.41646003  0.13993730  1
  P  P233  1  0.94405148  0.41633122  0.38895918  1
  P  P234  1  0.94536101  0.41626327  0.63982154  1
  P  P235  1  0.94725798  0.41786815  0.88904433  1
  P  P236  1  0.94643760  0.74993836  0.14013630  1
  P  P237  1  0.94628293  0.75065022  0.38929415  1
  P  P238  1  0.94444763  0.74953260  0.64009718  1
  P  P239  1  0.94736190  0.74909750  0.88874017  1
  P  P240  1  0.19360983  0.08322167  0.23590443  1
  P  P241  1  0.19693082  0.08335632  0.48420219  1
  P  P242  1  0.19675256  0.08266791  0.73488007  1
  P  P243  1  0.19550722  0.08350486  0.98657556  1
  P  P244  1  0.19535915  0.41618896  0.23474252  1
  P  P245  1  0.19462497  0.41643294  0.48625583  1
  P  P246  1  0.19539227  0.41741857  0.73517949  1
  P  P247  1  0.19597732  0.41602975  0.98551440  1
  P  P248  1  0.19624203  0.75035669  0.23693556  1
  P  P249  1  0.19681713  0.74987299  0.48429069  1
  P  P250  1  0.19480443  0.74961295  0.73588301  1
  P  P251  1  0.19766293  0.75044597  0.98467699  1
  P  P252  1  0.69644163  0.08301919  0.23476629  1
  P  P253  1  0.69772369  0.08426590  0.48598115  1
  P  P254  1  0.69724948  0.08260830  0.73430778  1
  P  P255  1  0.69613330  0.08351668  0.98638517  1
  P  P256  1  0.69800967  0.41703998  0.23454058  1
  P  P257  1  0.69895845  0.41624085  0.48558281  1
  P  P258  1  0.69736559  0.41682239  0.73620757  1
  P  P259  1  0.69418097  0.41715787  0.98503202  1
  P  P260  1  0.69845015  0.75000139  0.23539050  1
  P  P261  1  0.69888889  0.74941986  0.48492875  1
  P  P262  1  0.69706495  0.75048649  0.73603974  1
  P  P263  1  0.69552561  0.74935942  0.98449209  1
  P  P264  1  0.30434391  0.25088463  0.01450106  1
  P  P265  1  0.30241747  0.25027034  0.26372418  1
  P  P266  1  0.30253535  0.24884880  0.51506431  1
  P  P267  1  0.30412366  0.25093728  0.76546931  1
  P  P268  1  0.30329843  0.58310437  0.01467134  1
  P  P269  1  0.30371305  0.58341022  0.26568454  1
  P  P270  1  0.30473150  0.58414807  0.51466392  1
  P  P271  1  0.30291476  0.58227773  0.76375946  1
  P  P272  1  0.30268376  0.91595804  0.01541594  1
  P  P273  1  0.30371535  0.91651277  0.26433144  1
  P  P274  1  0.30437702  0.91680539  0.51369250  1
  P  P275  1  0.30182740  0.91674801  0.76495294  1
  P  P276  1  0.80321722  0.24933928  0.01510381  1
  P  P277  1  0.80487342  0.25069960  0.26505190  1
  P  P278  1  0.80538280  0.24972424  0.51424243  1
  P  P279  1  0.80484134  0.24998706  0.76421659  1
  P  P280  1  0.80317856  0.58330189  0.01300087  1
  P  P281  1  0.80445918  0.58324385  0.26501826  1
  P  P282  1  0.80627467  0.58343964  0.51479229  1
  P  P283  1  0.80621988  0.58321254  0.76475357  1
  P  P284  1  0.80323738  0.91727691  0.01515179  1
  P  P285  1  0.80455789  0.91622276  0.26549596  1
  P  P286  1  0.80607672  0.91678227  0.51341927  1
  P  P287  1  0.80226299  0.91682943  0.76532821  1
  O  O288  1  0.05867242  0.25017267  0.18699330  1
  O  O289  1  0.05529079  0.24974525  0.43646704  1
  O  O290  1  0.05531511  0.25018600  0.68716450  1
  O  O291  1  0.05967200  0.25026561  0.93799484  1
  O  O292  1  0.05605787  0.58316328  0.18675758  1
  O  O293  1  0.05504805  0.58405307  0.43741752  1
  O  O294  1  0.05790640  0.58290621  0.68776062  1
  O  O295  1  0.05726097  0.58348060  0.93585670  1
  O  O296  1  0.05976228  0.91602687  0.18705471  1
  O  O297  1  0.05589676  0.91641762  0.43667140  1
  O  O298  1  0.05866424  0.91690693  0.68801264  1
  O  O299  1  0.05984478  0.91612457  0.93745602  1
  O  O300  1  0.55588833  0.24986841  0.18729104  1
  O  O301  1  0.56044894  0.25056776  0.43826601  1
  O  O302  1  0.55768572  0.25030674  0.68598634  1
  O  O303  1  0.55554614  0.25055321  0.93649654  1
  O  O304  1  0.55709559  0.58337899  0.18653082  1
  O  O305  1  0.55637172  0.58382204  0.43667880  1
  O  O306  1  0.55685413  0.58329781  0.68653757  1
  O  O307  1  0.55823841  0.58369264  0.93789479  1
  O  O308  1  0.55526094  0.91670066  0.18754375  1
  O  O309  1  0.55620263  0.91591802  0.43697256  1
  O  O310  1  0.56041776  0.91641791  0.68748682  1
  O  O311  1  0.55619807  0.91650243  0.93591211  1
  O  O312  1  0.44360863  0.08388406  0.06355115  1
  O  O313  1  0.44196285  0.08351428  0.31408228  1
  O  O314  1  0.44181634  0.08332524  0.56203530  1
  O  O315  1  0.44396900  0.08327208  0.81300753  1
  O  O316  1  0.44158207  0.41646588  0.06202898  1
  O  O317  1  0.44346920  0.41640475  0.31320120  1
  O  O318  1  0.44300796  0.41693596  0.56406767  1
  O  O319  1  0.44033096  0.41706253  0.81266888  1
  O  O320  1  0.43999104  0.75024932  0.06251792  1
  O  O321  1  0.44030507  0.75023032  0.31255662  1
  O  O322  1  0.44060428  0.75001882  0.56230300  1
  O  O323  1  0.44342360  0.74983745  0.81363071  1
  O  O324  1  0.94225220  0.08317415  0.06163752  1
  O  O325  1  0.94486879  0.08294077  0.31325705  1
  O  O326  1  0.94085185  0.08333296  0.56344370  1
  O  O327  1  0.93995449  0.08265640  0.81313565  1
  O  O328  1  0.94383048  0.41661897  0.06321854  1
  O  O329  1  0.94100088  0.41647382  0.31217730  1
  O  O330  1  0.94128058  0.41621360  0.56303739  1
  O  O331  1  0.94221825  0.41670179  0.81241362  1
  O  O332  1  0.94322414  0.75015802  0.06333518  1
  O  O333  1  0.94225484  0.75030514  0.31256553  1
  O  O334  1  0.94081453  0.75059437  0.56326739  1
  O  O335  1  0.94212937  0.75051185  0.81212146  1
  O  O336  1  0.19212969  0.08376088  0.06335728  1
  O  O337  1  0.18974303  0.08327047  0.31268574  1
  O  O338  1  0.19278701  0.08355433  0.56088816  1
  O  O339  1  0.19361976  0.08362201  0.81167759  1
  O  O340  1  0.19130290  0.41699532  0.06214505  1
  O  O341  1  0.19207097  0.41669496  0.31155947  1
  O  O342  1  0.18997962  0.41645383  0.56296820  1
  O  O343  1  0.19105647  0.41700711  0.81196436  1
  O  O344  1  0.19453073  0.74948854  0.06142207  1
  O  O345  1  0.19084642  0.74976421  0.31351694  1
  O  O346  1  0.19257205  0.74962367  0.56099570  1
  O  O347  1  0.19113087  0.74915960  0.81266697  1
  O  O348  1  0.69058097  0.08370139  0.06298987  1
  O  O349  1  0.69327203  0.08303852  0.31156351  1
  O  O350  1  0.69288450  0.08355688  0.56262460  1
  O  O351  1  0.69363569  0.08350722  0.81109758  1
  O  O352  1  0.69016972  0.41612247  0.06185519  1
  O  O353  1  0.69462292  0.41690666  0.31129217  1
  O  O354  1  0.69481247  0.41705531  0.56223125  1
  O  O355  1  0.69138640  0.41672771  0.81275233  1
  O  O356  1  0.69266467  0.74997821  0.06130706  1
  O  O357  1  0.69423703  0.75020823  0.31203844  1
  O  O358  1  0.69465718  0.74933520  0.56162823  1
  O  O359  1  0.69172245  0.74966794  0.81261335  1
  O  O360  1  0.30794690  0.25030907  0.18710349  1
  O  O361  1  0.30524196  0.24967827  0.43826865  1
  O  O362  1  0.30728148  0.25014439  0.68871571  1
  O  O363  1  0.30899724  0.25021409  0.93782919  1
  O  O364  1  0.30684643  0.58258252  0.18890232  1
  O  O365  1  0.30866159  0.58306021  0.43791158  1
  O  O366  1  0.30760330  0.58286072  0.68713382  1
  O  O367  1  0.30585461  0.58275301  0.93785742  1
  O  O368  1  0.30831759  0.91742100  0.18763805  1
  O  O369  1  0.30767036  0.91690037  0.43688586  1
  O  O370  1  0.30612798  0.91669281  0.68826577  1
  O  O371  1  0.30630804  0.91692594  0.93872499  1
  O  O372  1  0.80778387  0.24979841  0.18828727  1
  O  O373  1  0.80974020  0.24927491  0.43754365  1
  O  O374  1  0.80820642  0.25072725  0.68741703  1
  O  O375  1  0.80641721  0.25008777  0.93832583  1
  O  O376  1  0.80625833  0.58323275  0.18817487  1
  O  O377  1  0.80993961  0.58369096  0.43793937  1
  O  O378  1  0.81010735  0.58284884  0.68791903  1
  O  O379  1  0.80871688  0.58316973  0.93643380  1
  O  O380  1  0.80737027  0.91701841  0.18872507  1
  O  O381  1  0.81041410  0.91704935  0.43676566  1
  O  O382  1  0.80568213  0.91647322  0.68856073  1
  O  O383  1  0.80640148  0.91666476  0.93843747  1
  O  O384  1  0.23389481  0.25032191  0.03788646  1
  O  O385  1  0.23188964  0.24979159  0.28682102  1
  O  O386  1  0.23305319  0.24947529  0.54079905  1
  O  O387  1  0.23435848  0.25033099  0.79040275  1
  O  O388  1  0.23380780  0.58364802  0.04042018  1
  O  O389  1  0.23399102  0.58315717  0.29081588  1
  O  O390  1  0.23465523  0.58343262  0.53883902  1
  O  O391  1  0.23264599  0.58270593  0.78762245  1
  O  O392  1  0.23262473  0.91623080  0.04001356  1
  O  O393  1  0.23322425  0.91688062  0.28779565  1
  O  O394  1  0.23450992  0.91624833  0.53843623  1
  O  O395  1  0.23180212  0.91646191  0.78922470  1
  O  O396  1  0.73358608  0.25005416  0.04018229  1
  O  O397  1  0.73523819  0.24993423  0.29034738  1
  O  O398  1  0.73511871  0.25011589  0.53838899  1
  O  O399  1  0.73501619  0.24935683  0.78915815  1
  O  O400  1  0.73283591  0.58342066  0.03647555  1
  O  O401  1  0.73511080  0.58316080  0.29138964  1
  O  O402  1  0.73637528  0.58337686  0.53958060  1
  O  O403  1  0.73608539  0.58333202  0.78854288  1
  O  O404  1  0.73357850  0.91633321  0.04033926  1
  O  O405  1  0.73498450  0.91688575  0.29111173  1
  O  O406  1  0.73607124  0.91652065  0.53767358  1
  O  O407  1  0.73233789  0.91708396  0.79017209  1
  O  O408  1  0.26368938  0.08337742  0.21160361  1
  O  O409  1  0.26690099  0.08323768  0.45970665  1
  O  O410  1  0.26637839  0.08291218  0.70968579  1
  O  O411  1  0.26534070  0.08319846  0.96173466  1
  O  O412  1  0.26508738  0.41666560  0.20977197  1
  O  O413  1  0.26470855  0.41619182  0.46238024  1
  O  O414  1  0.26573584  0.41676710  0.71153458  1
  O  O415  1  0.26638746  0.41650327  0.96191953  1
  O  O416  1  0.26670223  0.75028658  0.21361434  1
  O  O417  1  0.26702020  0.75050921  0.46055334  1
  O  O418  1  0.26471039  0.74984585  0.71131335  1
  O  O419  1  0.26763393  0.74993247  0.95966721  1
  O  O420  1  0.76634778  0.08322536  0.21022113  1
  O  O421  1  0.76815886  0.08382802  0.46243589  1
  O  O422  1  0.76738648  0.08312321  0.70998761  1
  O  O423  1  0.76648071  0.08325106  0.96287235  1
  O  O424  1  0.76804101  0.41738757  0.20979836  1
  O  O425  1  0.76919301  0.41636300  0.46162745  1
  O  O426  1  0.76793186  0.41712930  0.71341487  1
  O  O427  1  0.76432399  0.41637581  0.96105917  1
  O  O428  1  0.76852516  0.74965485  0.21101274  1
  O  O429  1  0.76915973  0.74966589  0.46119824  1
  O  O430  1  0.76757416  0.74998029  0.71285008  1
  O  O431  1  0.76525848  0.75026717  0.95936429  1
  O  O432  1  0.01806071  0.08361259  0.16141328  1
  O  O433  1  0.01760576  0.08308673  0.41534678  1
  O  O434  1  0.01449203  0.08385613  0.66475496  1
  O  O435  1  0.01492000  0.08309713  0.91309359  1
  O  O436  1  0.01759832  0.41611559  0.16454000  1
  O  O437  1  0.01392748  0.41672114  0.41395103  1
  O  O438  1  0.01561010  0.41634179  0.66393782  1
  O  O439  1  0.01769011  0.41771956  0.91235557  1
  O  O440  1  0.01622710  0.74968939  0.16485597  1
  O  O441  1  0.01647654  0.75049685  0.41393154  1
  O  O442  1  0.01451954  0.74973276  0.66400494  1
  O  O443  1  0.01774111  0.74913438  0.91231227  1
  O  O444  1  0.51677878  0.08356970  0.16563290  1
  O  O445  1  0.51530701  0.08278183  0.41542770  1
  O  O446  1  0.51785949  0.08400938  0.66181622  1
  O  O447  1  0.51625613  0.08379210  0.91519661  1
  O  O448  1  0.51702491  0.41616473  0.16240279  1
  O  O449  1  0.51628581  0.41756069  0.41525216  1
  O  O450  1  0.51557957  0.41668670  0.66599164  1
  O  O451  1  0.51558386  0.41699976  0.91270494  1
  O  O452  1  0.51386562  0.75010088  0.16366173  1
  O  O453  1  0.51403693  0.75002406  0.41412041  1
  O  O454  1  0.51519497  0.74928125  0.66291345  1
  O  O455  1  0.51746594  0.75015704  0.91469608  1
  O  O456  1  0.48219453  0.25020851  0.08561378  1
  O  O457  1  0.48486604  0.24998752  0.33817284  1
  O  O458  1  0.48529845  0.25041416  0.58411097  1
  O  O459  1  0.48203429  0.25039377  0.83504668  1
  O  O460  1  0.48456325  0.58317215  0.08464469  1
  O  O461  1  0.48172308  0.58347723  0.33579600  1
  O  O462  1  0.48198480  0.58328377  0.58607373  1
  O  O463  1  0.48469369  0.58321350  0.83662278  1
  O  O464  1  0.48133067  0.91737343  0.08616102  1
  O  O465  1  0.48106759  0.91647272  0.33667274  1
  O  O466  1  0.48555289  0.91651887  0.58727407  1
  O  O467  1  0.48443987  0.91659981  0.83322393  1
  O  O468  1  0.98610322  0.25049430  0.08494299  1
  O  O469  1  0.98223121  0.24916082  0.33490791  1
  O  O470  1  0.98111705  0.25067919  0.58611051  1
  O  O471  1  0.98492658  0.25054213  0.83762275  1
  O  O472  1  0.98375552  0.58300104  0.08432021  1
  O  O473  1  0.98124103  0.58347863  0.33628295  1
  O  O474  1  0.98241651  0.58285205  0.58785912  1
  O  O475  1  0.98366751  0.58310413  0.83458621  1
  O  O476  1  0.98605941  0.91625268  0.08580684  1
  O  O477  1  0.98309174  0.91693308  0.33467750  1
  O  O478  1  0.98414468  0.91677852  0.58761469  1
  O  O479  1  0.98542411  0.91635539  0.83672414  1
  O  O480  1  0.08987947  0.31557099  0.07777891  1
  O  O481  1  0.08630038  0.31395110  0.32686773  1
  O  O482  1  0.08467780  0.31615277  0.57780294  1
  O  O483  1  0.08828429  0.31597608  0.82828732  1
  O  O484  1  0.08772794  0.64728964  0.07751939  1
  O  O485  1  0.08470113  0.64952979  0.32787949  1
  O  O486  1  0.08615436  0.64703506  0.57746008  1
  O  O487  1  0.08755536  0.64832632  0.82629752  1
  O  O488  1  0.08952054  0.98207848  0.07752711  1
  O  O489  1  0.08727711  0.98154385  0.32762828  1
  O  O490  1  0.08753031  0.98195242  0.57807966  1
  O  O491  1  0.08936778  0.98053220  0.82740731  1
  O  O492  1  0.58635442  0.31447057  0.07783163  1
  O  O493  1  0.58820708  0.31538387  0.32803469  1
  O  O494  1  0.58961507  0.31473835  0.57686278  1
  O  O495  1  0.58558313  0.31635180  0.82722102  1
  O  O496  1  0.58870601  0.64769786  0.07730629  1
  O  O497  1  0.58521429  0.64897252  0.32699983  1
  O  O498  1  0.58589579  0.64801584  0.57663108  1
  O  O499  1  0.58806351  0.64869357  0.82807407  1
  O  O500  1  0.58511293  0.98279880  0.07836367  1
  O  O501  1  0.58508321  0.98117426  0.32764012  1
  O  O502  1  0.58889141  0.98233378  0.57776029  1
  O  O503  1  0.58904106  0.98038097  0.82685692  1
  O  O504  1  0.41243460  0.01916878  0.17252502  1
  O  O505  1  0.41139605  0.01745879  0.42306596  1
  O  O506  1  0.41448850  0.01862855  0.67251522  1
  O  O507  1  0.41240721  0.01901102  0.92231994  1
  O  O508  1  0.41349750  0.35058248  0.17199506  1
  O  O509  1  0.41266373  0.35224164  0.42272963  1
  O  O510  1  0.41098311  0.35294567  0.67311399  1
  O  O511  1  0.41225114  0.35084387  0.92248945  1
  O  O512  1  0.40970390  0.68614421  0.17243033  1
  O  O513  1  0.41023843  0.68496407  0.42200745  1
  O  O514  1  0.41162829  0.68391274  0.67189211  1
  O  O515  1  0.41340214  0.68523717  0.92326627  1
  O  O516  1  0.91481730  0.01835397  0.17205189  1
  O  O517  1  0.91370183  0.01790737  0.42258825  1
  O  O518  1  0.91058757  0.01956354  0.67363886  1
  O  O519  1  0.91137673  0.01790349  0.92330172  1
  O  O520  1  0.91340778  0.35164634  0.17256945  1
  O  O521  1  0.91068150  0.35090830  0.42161457  1
  O  O522  1  0.91181994  0.35132703  0.67307524  1
  O  O523  1  0.91402702  0.35309368  0.92298099  1
  O  O524  1  0.91204897  0.68501392  0.17243668  1
  O  O525  1  0.91246544  0.68574566  0.42247121  1
  O  O526  1  0.91094544  0.68428980  0.67252434  1
  O  O527  1  0.91419349  0.68374805  0.92152295  1
  O  O528  1  0.16020206  0.01796349  0.20309417  1
  O  O529  1  0.16290927  0.01837587  0.45143398  1
  O  O530  1  0.16254649  0.01763744  0.70286112  1
  O  O531  1  0.16160133  0.01836737  0.95414218  1
  O  O532  1  0.16136760  0.35113183  0.20231862  1
  O  O533  1  0.16096665  0.35150022  0.45316346  1
  O  O534  1  0.16162889  0.35251768  0.70190275  1
  O  O535  1  0.16287769  0.35084080  0.95233919  1
  O  O536  1  0.16339618  0.68530919  0.20307192  1
  O  O537  1  0.16335553  0.68477819  0.45124819  1
  O  O538  1  0.16144108  0.68436349  0.70276871  1
  O  O539  1  0.16324000  0.68573651  0.95171516  1
  O  O540  1  0.66230594  0.01801403  0.20232930  1
  O  O541  1  0.66439865  0.01931278  0.45231916  1
  O  O542  1  0.66361702  0.01742734  0.70187910  1
  O  O543  1  0.66280377  0.01845745  0.95313165  1
  O  O544  1  0.66418251  0.35190169  0.20181888  1
  O  O545  1  0.66553002  0.35114553  0.45279801  1
  O  O546  1  0.66463618  0.35168948  0.70255867  1
  O  O547  1  0.66007619  0.35246360  0.95169962  1
  O  O548  1  0.66442127  0.68507505  0.20276002  1
  O  O549  1  0.66541374  0.68436800  0.45201975  1
  O  O550  1  0.66397774  0.68552576  0.70207472  1
  O  O551  1  0.66179598  0.68418667  0.95195193  1
  O  O552  1  0.33732183  0.31616374  0.04769002  1
  O  O553  1  0.33527557  0.31529912  0.29743065  1
  O  O554  1  0.33715175  0.31368398  0.54745512  1
  O  O555  1  0.33774497  0.31638730  0.79769952  1
  O  O556  1  0.33779143  0.64817147  0.04637458  1
  O  O557  1  0.33786244  0.64857052  0.29772351  1
  O  O558  1  0.33784658  0.64969491  0.54721231  1
  O  O559  1  0.33652426  0.64710548  0.79732255  1
  O  O560  1  0.33651815  0.98089583  0.04876931  1
  O  O561  1  0.33711485  0.98137595  0.29788882  1
  O  O562  1  0.33776149  0.98212516  0.54652624  1
  O  O563  1  0.33543891  0.98179769  0.79781366  1
  O  O564  1  0.83764746  0.31434547  0.04733002  1
  O  O565  1  0.83865152  0.31610859  0.29691410  1
  O  O566  1  0.83889805  0.31481427  0.54743844  1
  O  O567  1  0.83830230  0.31508896  0.79747911  1
  O  O568  1  0.83647823  0.64828296  0.04636578  1
  O  O569  1  0.83909395  0.64829258  0.29710143  1
  O  O570  1  0.84023067  0.64840515  0.54756274  1
  O  O571  1  0.83987442  0.64837735  0.79754994  1
  O  O572  1  0.83700258  0.98252977  0.04757472  1
  O  O573  1  0.83943493  0.98096063  0.29794412  1
  O  O574  1  0.83934439  0.98194885  0.54668812  1
  O  O575  1  0.83622227  0.98193243  0.79754424  1
  O  O576  1  0.41317407  0.14930549  0.17276460  1
  O  O577  1  0.41127340  0.14754490  0.42363695  1
  O  O578  1  0.41405852  0.14869825  0.67182170  1
  O  O579  1  0.41243715  0.14913212  0.92182387  1
  O  O580  1  0.41326388  0.48068858  0.17205479  1
  O  O581  1  0.41217765  0.48231884  0.42191084  1
  O  O582  1  0.41203203  0.48296969  0.67317023  1
  O  O583  1  0.41145268  0.48087318  0.92311777  1
  O  O584  1  0.41044756  0.81623903  0.17202030  1
  O  O585  1  0.41029405  0.81512801  0.42234470  1
  O  O586  1  0.41167493  0.81410957  0.67250425  1
  O  O587  1  0.41338289  0.81516467  0.92285614  1
  O  O588  1  0.91448361  0.14826669  0.17178730  1
  O  O589  1  0.91337727  0.14790179  0.42243580  1
  O  O590  1  0.91100900  0.14965706  0.67260945  1
  O  O591  1  0.91114788  0.14788873  0.92316944  1
  O  O592  1  0.91367253  0.48142809  0.17267108  1
  O  O593  1  0.91002936  0.48117478  0.42191175  1
  O  O594  1  0.91195303  0.48137718  0.67289572  1
  O  O595  1  0.91411596  0.48312752  0.92195131  1
  O  O596  1  0.91248378  0.81489084  0.17289508  1
  O  O597  1  0.91303707  0.81597109  0.42215466  1
  O  O598  1  0.91075730  0.81434153  0.67370845  1
  O  O599  1  0.91419337  0.81390959  0.92266022  1
  O  O600  1  0.08993133  0.18545610  0.07736124  1
  O  O601  1  0.08632519  0.18397046  0.32751621  1
  O  O602  1  0.08488276  0.18608519  0.57739215  1
  O  O603  1  0.08819976  0.18568762  0.82782770  1
  O  O604  1  0.08721868  0.51714159  0.07796598  1
  O  O605  1  0.08541646  0.51952807  0.32804580  1
  O  O606  1  0.08550695  0.51685570  0.57789328  1
  O  O607  1  0.08778376  0.51834071  0.82648245  1
  O  O608  1  0.09005713  0.85203193  0.07715694  1
  O  O609  1  0.08699667  0.85152382  0.32725830  1
  O  O610  1  0.08757797  0.85184103  0.57802154  1
  O  O611  1  0.08878711  0.85039890  0.82777570  1
  O  O612  1  0.58553796  0.18428552  0.07794663  1
  O  O613  1  0.58839408  0.18515445  0.32846224  1
  O  O614  1  0.58924671  0.18469815  0.57699127  1
  O  O615  1  0.58631117  0.18623742  0.82723263  1
  O  O616  1  0.58831590  0.51753105  0.07754101  1
  O  O617  1  0.58587269  0.51886571  0.32735022  1
  O  O618  1  0.58573783  0.51797916  0.57705587  1
  O  O619  1  0.58843124  0.51839217  0.82834896  1
  O  O620  1  0.58525406  0.85264569  0.07801414  1
  O  O621  1  0.58468010  0.85109527  0.32705443  1
  O  O622  1  0.58912485  0.85198446  0.57729206  1
  O  O623  1  0.58790500  0.85021306  0.82722333  1
  O  O624  1  0.33777901  0.18604506  0.04828623  1
  O  O625  1  0.33576293  0.18533125  0.29712008  1
  O  O626  1  0.33658722  0.18353635  0.54697911  1
  O  O627  1  0.33868198  0.18624271  0.79825346  1
  O  O628  1  0.33719049  0.51785805  0.04708842  1
  O  O629  1  0.33800517  0.51857238  0.29839639  1
  O  O630  1  0.33881013  0.51951365  0.54811657  1
  O  O631  1  0.33611218  0.51714442  0.79694923  1
  O  O632  1  0.33651326  0.85079976  0.04760942  1
  O  O633  1  0.33695229  0.85143392  0.29744715  1
  O  O634  1  0.33831149  0.85177207  0.54640018  1
  O  O635  1  0.33560012  0.85176240  0.79784905  1
  O  O636  1  0.83721091  0.18419068  0.04733116  1
  O  O637  1  0.83957512  0.18596406  0.29782398  1
  O  O638  1  0.83875635  0.18476282  0.54764601  1
  O  O639  1  0.83881807  0.18474771  0.79627594  1
  O  O640  1  0.83616332  0.51819370  0.04664514  1
  O  O641  1  0.83912758  0.51823338  0.29686320  1
  O  O642  1  0.84008305  0.51820714  0.54745648  1
  O  O643  1  0.83976572  0.51825031  0.79804902  1
  O  O644  1  0.83788388  0.85237961  0.04730671  1
  O  O645  1  0.83872314  0.85093625  0.29738717  1
  O  O646  1  0.83956066  0.85168114  0.54652165  1
  O  O647  1  0.83612942  0.85180698  0.79818930  1
  O  O648  1  0.15992713  0.14819864  0.20282723  1
  O  O649  1  0.16273049  0.14823196  0.45149161  1
  O  O650  1  0.16269581  0.14779557  0.70222062  1
  O  O651  1  0.16201797  0.14859687  0.95354382  1
  O  O652  1  0.16099298  0.48112063  0.20218773  1
  O  O653  1  0.16142624  0.48159139  0.45299029  1
  O  O654  1  0.16199723  0.48245323  0.70200038  1
  O  O655  1  0.16239434  0.48082916  0.95173234  1
  O  O656  1  0.16326300  0.81545364  0.20355733  1
  O  O657  1  0.16264935  0.81464323  0.45143661  1
  O  O658  1  0.16109608  0.81478186  0.70330993  1
  O  O659  1  0.16365901  0.81559064  0.95253561  1
  O  O660  1  0.66221961  0.14797667  0.20218972  1
  O  O661  1  0.66471476  0.14945681  0.45297772  1
  O  O662  1  0.66322916  0.14749850  0.70133904  1
  O  O663  1  0.66323143  0.14855839  0.95251181  1
  O  O664  1  0.66357547  0.48182194  0.20212881  1
  O  O665  1  0.66552035  0.48130588  0.45230708  1
  O  O666  1  0.66436502  0.48177578  0.70235209  1
  O  O667  1  0.66092941  0.48247618  0.95231657  1
  O  O668  1  0.66472929  0.81508322  0.20244974  1
  O  O669  1  0.66522128  0.81439611  0.45194512  1
  O  O670  1  0.66421301  0.81570036  0.70278567  1
  O  O671  1  0.66074885  0.81413334  0.95218797  1
