# generated using pymatgen
data_Na2MnFe(PO4)2
_symmetry_space_group_name_H-M   'P 1'
_cell_length_a   21.08779941
_cell_length_b   18.94116548
_cell_length_c   20.04668014
_cell_angle_alpha   90.00057790
_cell_angle_beta   90.00541878
_cell_angle_gamma   90.00279378
_symmetry_Int_Tables_number   1
_chemical_formula_structural   Na2MnFe(PO4)2
_chemical_formula_sum   'Na96 Mn48 Fe48 P96 O384'
_cell_volume   8007.19525151
_cell_formula_units_Z   48
loop_
 _symmetry_equiv_pos_site_id
 _symmetry_equiv_pos_as_xyz
  1  'x, y, z'
loop_
 _atom_site_type_symbol
 _atom_site_label
 _atom_site_symmetry_multiplicity
 _atom_site_fract_x
 _atom_site_fract_y
 _atom_site_fract_z
 _atom_site_occupancy
  Na  Na0  1  -0.00018291  -0.00043743  0.00069565  1
  Na  Na1  1  -0.00059240  -0.00030087  0.25047818  1
  Na  Na2  1  -0.00131159  0.00003158  0.49893724  1
  Na  Na3  1  0.00126136  0.00060548  0.75005662  1
  Na  Na4  1  0.00181828  0.33495133  -0.00046003  1
  Na  Na5  1  -0.00037860  0.33291073  0.25130576  1
  Na  Na6  1  -0.00132983  0.33273597  0.50004701  1
  Na  Na7  1  -0.00139517  0.33335744  0.74832995  1
  Na  Na8  1  0.00243450  0.66690073  0.00119373  1
  Na  Na9  1  0.00061700  0.66645523  0.25095263  1
  Na  Na10  1  0.00207432  0.66745771  0.49961540  1
  Na  Na11  1  0.00202461  0.66665458  0.74877892  1
  Na  Na12  1  0.49978675  0.00021101  0.00159697  1
  Na  Na13  1  0.50217335  0.00094542  0.25052728  1
  Na  Na14  1  0.50142650  0.00046369  0.49883815  1
  Na  Na15  1  0.49872453  -0.00021451  0.74890042  1
  Na  Na16  1  0.49863262  0.33345282  0.00061431  1
  Na  Na17  1  0.49804646  0.33283147  0.25104441  1
  Na  Na18  1  0.50084289  0.33426603  0.49896985  1
  Na  Na19  1  0.50013689  0.33372594  0.74923881  1
  Na  Na20  1  0.49854860  0.66632631  0.00122436  1
  Na  Na21  1  0.50041378  0.66641370  0.24970591  1
  Na  Na22  1  0.50243985  0.66715953  0.49842612  1
  Na  Na23  1  0.49974218  0.66620916  0.75067898  1
  Na  Na24  1  0.24976167  -0.00071957  0.12453332  1
  Na  Na25  1  0.25130615  0.00087476  0.37608667  1
  Na  Na26  1  0.25079211  0.00034378  0.62454562  1
  Na  Na27  1  0.25002990  -0.00035602  0.87427880  1
  Na  Na28  1  0.24993911  0.33340149  0.12485735  1
  Na  Na29  1  0.25298859  0.33430566  0.37538151  1
  Na  Na30  1  0.25129089  0.33361986  0.62547189  1
  Na  Na31  1  0.24855780  0.33304875  0.87446428  1
  Na  Na32  1  0.24851542  0.66641773  0.12506637  1
  Na  Na33  1  0.24796060  0.66584867  0.37600636  1
  Na  Na34  1  0.24864080  0.66587916  0.62528864  1
  Na  Na35  1  0.24954673  0.66667051  0.87385554  1
  Na  Na36  1  0.74969863  0.00020584  0.12500605  1
  Na  Na37  1  0.74826754  -0.00040996  0.37372612  1
  Na  Na38  1  0.74867477  0.00021506  0.62555189  1
  Na  Na39  1  0.74954741  0.00015499  0.87572311  1
  Na  Na40  1  0.74979797  0.33334446  0.12513710  1
  Na  Na41  1  0.75030668  0.33383039  0.37534152  1
  Na  Na42  1  0.75003950  0.33345321  0.62414695  1
  Na  Na43  1  0.75129041  0.33426146  0.87521606  1
  Na  Na44  1  0.75002323  0.66650508  0.12480385  1
  Na  Na45  1  0.74929096  0.66721118  0.37536350  1
  Na  Na46  1  0.74866171  0.66614224  0.62503223  1
  Na  Na47  1  0.75036648  0.66596132  0.87499021  1
  Na  Na48  1  -0.00138886  0.16737382  0.00078450  1
  Na  Na49  1  -0.00280023  0.16742899  0.25147305  1
  Na  Na50  1  0.00025112  0.16573273  0.49901307  1
  Na  Na51  1  -0.00004002  0.16674434  0.74859446  1
  Na  Na52  1  0.00242408  0.50032102  -0.00049411  1
  Na  Na53  1  0.00303951  0.49961693  0.25126668  1
  Na  Na54  1  -0.00058530  0.50040049  0.50065420  1
  Na  Na55  1  0.00072728  0.49969823  0.74903787  1
  Na  Na56  1  0.00068495  0.83358162  0.00063565  1
  Na  Na57  1  -0.00036423  0.83353369  0.25021783  1
  Na  Na58  1  0.00084004  0.83229803  0.49920806  1
  Na  Na59  1  0.00179632  0.83247215  0.74970660  1
  Na  Na60  1  0.49951782  0.16583535  0.00060389  1
  Na  Na61  1  0.49889399  0.16677791  0.25071980  1
  Na  Na62  1  0.49947903  0.16719552  0.49927880  1
  Na  Na63  1  0.50051528  0.16591186  0.74922246  1
  Na  Na64  1  0.49992984  0.50059104  0.00102111  1
  Na  Na65  1  0.50170550  0.49975376  0.25057434  1
  Na  Na66  1  0.50165230  0.49953195  0.49859545  1
  Na  Na67  1  0.49908671  0.50091526  0.74976366  1
  Na  Na68  1  0.49684342  0.83429188  0.00160170  1
  Na  Na69  1  0.50061373  0.83291722  0.25015960  1
  Na  Na70  1  0.50323198  0.83184557  0.49835195  1
  Na  Na71  1  0.49992298  0.83275738  0.75008531  1
  Na  Na72  1  0.25162917  0.16570280  0.12543255  1
  Na  Na73  1  0.25256672  0.16638691  0.37613566  1
  Na  Na74  1  0.25069132  0.16731973  0.62432645  1
  Na  Na75  1  0.25109327  0.16566755  0.87367188  1
  Na  Na76  1  0.24809639  0.50061151  0.12382232  1
  Na  Na77  1  0.25022177  0.50003867  0.37541918  1
  Na  Na78  1  0.25041809  0.50021742  0.62611561  1
  Na  Na79  1  0.24800922  0.50092403  0.87453186  1
  Na  Na80  1  0.25021692  0.83265352  0.12498939  1
  Na  Na81  1  0.24886361  0.83309614  0.37615740  1
  Na  Na82  1  0.24902572  0.83328182  0.62505744  1
  Na  Na83  1  0.24954871  0.83334137  0.87436520  1
  Na  Na84  1  0.75005987  0.16614956  0.12448255  1
  Na  Na85  1  0.75054832  0.16588580  0.37441823  1
  Na  Na86  1  0.74895710  0.16720198  0.62545873  1
  Na  Na87  1  0.75004396  0.16649764  0.87563919  1
  Na  Na88  1  0.74859657  0.50097083  0.12498467  1
  Na  Na89  1  0.74762938  0.50070875  0.37530684  1
  Na  Na90  1  0.74987766  0.49993632  0.62459141  1
  Na  Na91  1  0.75181643  0.49981660  0.87505622  1
  Na  Na92  1  0.75136356  0.83257714  0.12542895  1
  Na  Na93  1  0.74857373  0.83375231  0.37474121  1
  Na  Na94  1  0.74803095  0.83339001  0.62474853  1
  Na  Na95  1  0.75005713  0.83289804  0.87511048  1
  Mn  Mn96  1  0.60772520  0.08352916  0.62192042  1
  Mn  Mn97  1  0.89321113  0.58346486  0.12754516  1
  Mn  Mn98  1  0.64189897  0.58293031  0.74832415  1
  Mn  Mn99  1  0.39196629  0.24973446  0.87758512  1
  Mn  Mn100  1  0.35801629  0.74946539  0.50214028  1
  Mn  Mn101  1  0.14298203  0.24967877  0.24866507  1
  Mn  Mn102  1  0.64228895  0.24993912  0.24779876  1
  Mn  Mn103  1  0.64183576  0.91571820  0.99778021  1
  Mn  Mn104  1  0.89169976  0.91655352  0.62684712  1
  Mn  Mn105  1  0.39143079  0.58313699  0.12744208  1
  Mn  Mn106  1  0.60664613  0.75064313  0.87358038  1
  Mn  Mn107  1  0.39325316  0.91650715  0.37678370  1
  Mn  Mn108  1  0.10816301  0.75004480  0.12326964  1
  Mn  Mn109  1  0.39275521  0.58331886  0.37694649  1
  Mn  Mn110  1  0.10827224  0.41646578  0.37371953  1
  Mn  Mn111  1  0.10794087  0.08387119  0.12366339  1
  Mn  Mn112  1  0.89152270  0.91667063  0.37735028  1
  Mn  Mn113  1  0.35805700  0.41704861  0.75207090  1
  Mn  Mn114  1  0.89225247  0.58386112  0.62658688  1
  Mn  Mn115  1  0.85894543  0.41720233  0.00254734  1
  Mn  Mn116  1  0.89275116  0.91617816  0.87727571  1
  Mn  Mn117  1  0.35648868  0.41688518  0.00188588  1
  Mn  Mn118  1  0.14187080  0.24912740  0.99729599  1
  Mn  Mn119  1  0.14227165  0.91717693  0.49737319  1
  Mn  Mn120  1  0.14209574  0.91668876  0.74716866  1
  Mn  Mn121  1  0.39137897  0.91685448  0.12827191  1
  Mn  Mn122  1  0.35784889  0.74994184  0.75151613  1
  Mn  Mn123  1  0.10803090  0.08403604  0.87297378  1
  Mn  Mn124  1  0.39318821  0.91573381  0.62630985  1
  Mn  Mn125  1  0.85814184  0.41717602  0.25241871  1
  Mn  Mn126  1  0.64102391  0.91636836  0.74852818  1
  Mn  Mn127  1  0.60750637  0.41610868  0.12295933  1
  Mn  Mn128  1  0.14167270  0.24997307  0.74716946  1
  Mn  Mn129  1  0.89231522  0.25022346  0.12764633  1
  Mn  Mn130  1  0.85762272  0.08301088  0.00223093  1
  Mn  Mn131  1  0.10764715  0.08305027  0.37262820  1
  Mn  Mn132  1  0.89233126  0.58298227  0.37737489  1
  Mn  Mn133  1  0.60753875  0.75034767  0.12268002  1
  Mn  Mn134  1  0.35800349  0.08312638  0.75182310  1
  Mn  Mn135  1  0.60763200  0.41649361  0.87267538  1
  Mn  Mn136  1  0.10757839  0.41605141  0.62180626  1
  Mn  Mn137  1  0.85884248  0.74984869  0.00180601  1
  Mn  Mn138  1  0.64222808  0.25074439  0.74821622  1
  Mn  Mn139  1  0.39147004  0.25017263  0.12738785  1
  Mn  Mn140  1  0.64176327  0.25080685  0.99733833  1
  Mn  Mn141  1  0.85821027  0.74943951  0.75236686  1
  Mn  Mn142  1  0.89171674  0.24947338  0.62631766  1
  Mn  Mn143  1  0.85792502  0.08366816  0.75249667  1
  Fe  Fe144  1  0.85600282  0.08311060  0.50140862  1
  Fe  Fe145  1  0.10854600  0.41599055  0.12390680  1
  Fe  Fe146  1  0.35613068  0.75007972  0.00125208  1
  Fe  Fe147  1  0.10805469  0.74971771  0.87317422  1
  Fe  Fe148  1  0.60784480  0.74909314  0.62318896  1
  Fe  Fe149  1  0.39353878  0.25090087  0.62601161  1
  Fe  Fe150  1  0.14335843  0.58206735  0.49880648  1
  Fe  Fe151  1  0.14305639  0.91671796  0.24868029  1
  Fe  Fe152  1  0.14280884  0.91650360  0.99843237  1
  Fe  Fe153  1  0.60719357  0.41637952  0.37289398  1
  Fe  Fe154  1  0.85745652  0.41695342  0.75145537  1
  Fe  Fe155  1  0.14282350  0.58324038  0.74793133  1
  Fe  Fe156  1  0.60688285  0.08370433  0.12337569  1
  Fe  Fe157  1  0.35795417  0.08373446  0.50194483  1
  Fe  Fe158  1  0.89189051  0.25021287  0.37759721  1
  Fe  Fe159  1  0.89420541  0.58327415  0.87654020  1
  Fe  Fe160  1  0.35713732  0.41712739  0.25160232  1
  Fe  Fe161  1  0.35843448  0.41702356  0.50195470  1
  Fe  Fe162  1  0.10749989  0.08319137  0.62230961  1
  Fe  Fe163  1  0.89296647  0.91660937  0.12705572  1
  Fe  Fe164  1  0.10658667  0.41689284  0.87257785  1
  Fe  Fe165  1  0.60770013  0.41711152  0.62293300  1
  Fe  Fe166  1  0.10717643  0.75035715  0.37307244  1
  Fe  Fe167  1  0.85707867  0.75001142  0.25200459  1
  Fe  Fe168  1  0.64275008  0.58345696  0.99792787  1
  Fe  Fe169  1  0.64230235  0.24980016  0.49781037  1
  Fe  Fe170  1  0.35794893  0.08280702  0.25216964  1
  Fe  Fe171  1  0.85585826  0.41684755  0.50120053  1
  Fe  Fe172  1  0.10745314  0.75060724  0.62240084  1
  Fe  Fe173  1  0.35759459  0.08246695  0.00161331  1
  Fe  Fe174  1  0.39181743  0.58381491  0.87726683  1
  Fe  Fe175  1  0.60844715  0.74988357  0.37210699  1
  Fe  Fe176  1  0.64339973  0.91637797  0.24773217  1
  Fe  Fe177  1  0.14260072  0.58402582  0.99719075  1
  Fe  Fe178  1  0.14410497  0.25056674  0.49819991  1
  Fe  Fe179  1  0.60637960  0.08304000  0.87409158  1
  Fe  Fe180  1  0.14323769  0.58331666  0.24870917  1
  Fe  Fe181  1  0.89273766  0.25067009  0.87643877  1
  Fe  Fe182  1  0.64232791  0.58335636  0.49849482  1
  Fe  Fe183  1  0.39342008  0.58324475  0.62587329  1
  Fe  Fe184  1  0.64313186  0.58390269  0.24802756  1
  Fe  Fe185  1  0.60744627  0.08382714  0.37293358  1
  Fe  Fe186  1  0.85645660  0.08282434  0.25152173  1
  Fe  Fe187  1  0.35648172  0.74980156  0.25200635  1
  Fe  Fe188  1  0.64268775  0.91689376  0.49795594  1
  Fe  Fe189  1  0.39311489  0.25005805  0.37723847  1
  Fe  Fe190  1  0.39182526  0.91640410  0.87716636  1
  Fe  Fe191  1  0.85643980  0.75010959  0.50160082  1
  P  P192  1  0.05358648  0.25053905  0.11063860  1
  P  P193  1  0.05332066  0.25004331  0.36165861  1
  P  P194  1  0.05399429  0.24912933  0.60830383  1
  P  P195  1  0.05184363  0.25081265  0.85945377  1
  P  P196  1  0.05635565  0.58261089  0.11104279  1
  P  P197  1  0.05576220  0.58377194  0.36131188  1
  P  P198  1  0.05533945  0.58385127  0.61014961  1
  P  P199  1  0.05472745  0.58362566  0.86019807  1
  P  P200  1  0.05442944  0.91676795  0.11113087  1
  P  P201  1  0.05383228  0.91602947  0.35935966  1
  P  P202  1  0.05325121  0.91697369  0.60929211  1
  P  P203  1  0.05502826  0.91598274  0.86126922  1
  P  P204  1  0.55293378  0.24924018  0.11039895  1
  P  P205  1  0.55376480  0.24998423  0.36134135  1
  P  P206  1  0.55323213  0.25115013  0.60906844  1
  P  P207  1  0.55264295  0.24910805  0.85987914  1
  P  P208  1  0.55493628  0.58352569  0.11064749  1
  P  P209  1  0.55604534  0.58325435  0.36039983  1
  P  P210  1  0.55311973  0.58310172  0.60929709  1
  P  P211  1  0.55251199  0.58367482  0.86149519  1
  P  P212  1  0.55428565  0.91729879  0.11171043  1
  P  P213  1  0.55637672  0.91682636  0.36025304  1
  P  P214  1  0.55418039  0.91556154  0.60884408  1
  P  P215  1  0.55096933  0.91739014  0.86065236  1
  P  P216  1  0.44569668  0.08310096  0.14022696  1
  P  P217  1  0.44616178  0.08360374  0.38919735  1
  P  P218  1  0.44556991  0.08424995  0.63795723  1
  P  P219  1  0.44671021  0.08225208  0.89066855  1
  P  P220  1  0.44552893  0.41721476  0.14118301  1
  P  P221  1  0.44583667  0.41655597  0.38902616  1
  P  P222  1  0.44695421  0.41721595  0.63806578  1
  P  P223  1  0.44637319  0.41772053  0.89028261  1
  P  P224  1  0.44409077  0.74985053  0.14010035  1
  P  P225  1  0.44715168  0.74986478  0.38823014  1
  P  P226  1  0.44846965  0.74851915  0.63921780  1
  P  P227  1  0.44513959  0.74998644  0.89098131  1
  P  P228  1  0.94590497  0.08242368  0.14112623  1
  P  P229  1  0.94394960  0.08376213  0.38936630  1
  P  P230  1  0.94630070  0.08304821  0.63828149  1
  P  P231  1  0.94690982  0.08423107  0.89013586  1
  P  P232  1  0.94907628  0.41742646  0.14061302  1
  P  P233  1  0.94582503  0.41629632  0.39114175  1
  P  P234  1  0.94419067  0.41675918  0.63869560  1
  P  P235  1  0.94672029  0.41732913  0.88816994  1
  P  P236  1  0.94648239  0.75053247  0.14119136  1
  P  P237  1  0.94563605  0.74982958  0.38953281  1
  P  P238  1  0.94655719  0.75009459  0.63840654  1
  P  P239  1  0.94901789  0.74857295  0.88983673  1
  P  P240  1  0.19847732  0.08267475  0.23573567  1
  P  P241  1  0.19700955  0.08473764  0.48618412  1
  P  P242  1  0.19596908  0.08340982  0.73348476  1
  P  P243  1  0.19812194  0.08235351  0.98507162  1
  P  P244  1  0.19763261  0.41702366  0.23514838  1
  P  P245  1  0.19860271  0.41627269  0.48570111  1
  P  P246  1  0.19502776  0.41735526  0.73586530  1
  P  P247  1  0.19421210  0.41723700  0.98504042  1
  P  P248  1  0.19633752  0.75026634  0.23657844  1
  P  P249  1  0.19474741  0.74888645  0.48582810  1
  P  P250  1  0.19476443  0.74908041  0.73516271  1
  P  P251  1  0.19661995  0.75026935  0.98487048  1
  P  P252  1  0.69560921  0.08284979  0.23546131  1
  P  P253  1  0.69656063  0.08355853  0.48411751  1
  P  P254  1  0.69501203  0.08347027  0.73644743  1
  P  P255  1  0.69446199  0.08317067  0.98557414  1
  P  P256  1  0.69563348  0.41722394  0.23622590  1
  P  P257  1  0.69500885  0.41658670  0.48570755  1
  P  P258  1  0.69735500  0.41686292  0.73424773  1
  P  P259  1  0.69687430  0.41788131  0.98490905  1
  P  P260  1  0.69660076  0.74995819  0.23598173  1
  P  P261  1  0.69552532  0.74983470  0.48562947  1
  P  P262  1  0.69575955  0.74955027  0.73469254  1
  P  P263  1  0.69691468  0.74902510  0.98489772  1
  P  P264  1  0.30289398  0.24911377  0.01478513  1
  P  P265  1  0.30454449  0.24992209  0.26601554  1
  P  P266  1  0.30537543  0.25057285  0.51436596  1
  P  P267  1  0.30455054  0.25034951  0.76358172  1
  P  P268  1  0.30265869  0.58438385  0.01364075  1
  P  P269  1  0.30214049  0.58346529  0.26486673  1
  P  P270  1  0.30335256  0.58258123  0.51570720  1
  P  P271  1  0.30419915  0.58347342  0.76407152  1
  P  P272  1  0.30339709  0.91611325  0.01381874  1
  P  P273  1  0.30224270  0.91626257  0.26545622  1
  P  P274  1  0.30385973  0.91691451  0.51479373  1
  P  P275  1  0.30418242  0.91627584  0.76506809  1
  P  P276  1  0.80450068  0.25038538  0.01414480  1
  P  P277  1  0.80401969  0.24939145  0.26563022  1
  P  P278  1  0.80259511  0.24964409  0.51330107  1
  P  P279  1  0.80402283  0.25102828  0.76550189  1
  P  P280  1  0.80421709  0.58344408  0.01414906  1
  P  P281  1  0.80245239  0.58412101  0.26514259  1
  P  P282  1  0.80185928  0.58358861  0.51437138  1
  P  P283  1  0.80433411  0.58260432  0.76542590  1
  P  P284  1  0.80415646  0.91634255  0.01599475  1
  P  P285  1  0.80359950  0.91647599  0.26358839  1
  P  P286  1  0.80162235  0.91681020  0.51443924  1
  P  P287  1  0.80281708  0.91645673  0.76531003  1
  O  O288  1  0.05672352  0.24955506  0.18742187  1
  O  O289  1  0.05922697  0.25006832  0.43817898  1
  O  O290  1  0.05679822  0.25016091  0.68510406  1
  O  O291  1  0.05563776  0.25005925  0.93617486  1
  O  O292  1  0.06036635  0.58344559  0.18793076  1
  O  O293  1  0.05976269  0.58254814  0.43805275  1
  O  O294  1  0.05907202  0.58283289  0.68690390  1
  O  O295  1  0.05883831  0.58396985  0.93699108  1
  O  O296  1  0.05951332  0.91686261  0.18785470  1
  O  O297  1  0.05707005  0.91688981  0.43612134  1
  O  O298  1  0.05604733  0.91707602  0.68608105  1
  O  O299  1  0.05908999  0.91660379  0.93805654  1
  O  O300  1  0.55605547  0.24991152  0.18717256  1
  O  O301  1  0.55859177  0.24991083  0.43799282  1
  O  O302  1  0.55675806  0.25044762  0.68574274  1
  O  O303  1  0.55546257  0.25011879  0.93666079  1
  O  O304  1  0.55963221  0.58379870  0.18744643  1
  O  O305  1  0.55987439  0.58351692  0.43716924  1
  O  O306  1  0.55605923  0.58301146  0.68604461  1
  O  O307  1  0.55769707  0.58350336  0.93809203  1
  O  O308  1  0.55911560  0.91630346  0.18844655  1
  O  O309  1  0.56013547  0.91667123  0.43707595  1
  O  O310  1  0.55612745  0.91656412  0.68564783  1
  O  O311  1  0.55473925  0.91660446  0.93734136  1
  O  O312  1  0.44051281  0.08262212  0.06356414  1
  O  O313  1  0.44138136  0.08274971  0.31247171  1
  O  O314  1  0.44182322  0.08357606  0.56120398  1
  O  O315  1  0.44339145  0.08284241  0.81388306  1
  O  O316  1  0.44178133  0.41753830  0.06442180  1
  O  O317  1  0.44064341  0.41754588  0.31242818  1
  O  O318  1  0.44267871  0.41726171  0.56133114  1
  O  O319  1  0.44369687  0.41742988  0.81345692  1
  O  O320  1  0.43929111  0.74983665  0.06340569  1
  O  O321  1  0.44097281  0.74976014  0.31166680  1
  O  O322  1  0.44494425  0.74920078  0.56250899  1
  O  O323  1  0.44300512  0.74969328  0.81414453  1
  O  O324  1  0.94313304  0.08292395  0.06434253  1
  O  O325  1  0.93955106  0.08286284  0.31266371  1
  O  O326  1  0.94041889  0.08297130  0.56166442  1
  O  O327  1  0.94426536  0.08355832  0.81329457  1
  O  O328  1  0.94530709  0.41798321  0.06387523  1
  O  O329  1  0.94323319  0.41716377  0.31434124  1
  O  O330  1  0.93902967  0.41695294  0.56198995  1
  O  O331  1  0.94224892  0.41720043  0.81151168  1
  O  O332  1  0.94381589  0.74976530  0.06422360  1
  O  O333  1  0.94040420  0.74971539  0.31287931  1
  O  O334  1  0.94064251  0.74992981  0.56178326  1
  O  O335  1  0.94531742  0.74907605  0.81312851  1
  O  O336  1  0.19418121  0.08312773  0.06171787  1
  O  O337  1  0.19449299  0.08350546  0.31242834  1
  O  O338  1  0.19197641  0.08378766  0.56275063  1
  O  O339  1  0.19273041  0.08351307  0.81031084  1
  O  O340  1  0.19110868  0.41624457  0.06185006  1
  O  O341  1  0.19421222  0.41632615  0.31191002  1
  O  O342  1  0.19469230  0.41617131  0.56226360  1
  O  O343  1  0.19044373  0.41654079  0.81261978  1
  O  O344  1  0.19354350  0.75029408  0.06101971  1
  O  O345  1  0.19192299  0.75030006  0.31357034  1
  O  O346  1  0.19103690  0.75021437  0.56259813  1
  O  O347  1  0.19114015  0.74976877  0.81198586  1
  O  O348  1  0.69034694  0.08334609  0.06238163  1
  O  O349  1  0.69097298  0.08382757  0.31212772  1
  O  O350  1  0.69335902  0.08404973  0.56112205  1
  O  O351  1  0.69031585  0.08320860  0.81305710  1
  O  O352  1  0.69336134  0.41692969  0.06167762  1
  O  O353  1  0.69138653  0.41616337  0.31296416  1
  O  O354  1  0.69090856  0.41650717  0.56245670  1
  O  O355  1  0.69336453  0.41695613  0.81093247  1
  O  O356  1  0.69368611  0.74985220  0.06169599  1
  O  O357  1  0.69229678  0.75011769  0.31265716  1
  O  O358  1  0.69119702  0.74939457  0.56235873  1
  O  O359  1  0.69228945  0.74949926  0.81141868  1
  O  O360  1  0.30663896  0.24981224  0.18920454  1
  O  O361  1  0.30991494  0.25045943  0.43761625  1
  O  O362  1  0.30943126  0.25073399  0.68688978  1
  O  O363  1  0.30562262  0.24975475  0.93796718  1
  O  O364  1  0.30519511  0.58350533  0.18845565  1
  O  O365  1  0.30719485  0.58334749  0.43882829  1
  O  O366  1  0.30950323  0.58345614  0.68748967  1
  O  O367  1  0.30736017  0.58361931  0.93683735  1
  O  O368  1  0.30525267  0.91624334  0.18884261  1
  O  O369  1  0.30728104  0.91625591  0.43802846  1
  O  O370  1  0.30789463  0.91610252  0.68834019  1
  O  O371  1  0.30777450  0.91655983  0.93706629  1
  O  O372  1  0.80681282  0.25019256  0.18876552  1
  O  O373  1  0.80716740  0.24976189  0.43669016  1
  O  O374  1  0.80658475  0.24992653  0.68862032  1
  O  O375  1  0.80924387  0.25066143  0.93743291  1
  O  O376  1  0.80642061  0.58345103  0.18842714  1
  O  O377  1  0.80559137  0.58365145  0.43778560  1
  O  O378  1  0.80708376  0.58370718  0.68859529  1
  O  O379  1  0.80986370  0.58338663  0.93759338  1
  O  O380  1  0.80831429  0.91648345  0.18694032  1
  O  O381  1  0.80513905  0.91666662  0.43780533  1
  O  O382  1  0.80579743  0.91653614  0.68847266  1
  O  O383  1  0.80752135  0.91640863  0.93922665  1
  O  O384  1  0.23340789  0.24936834  0.04044824  1
  O  O385  1  0.23496855  0.25004115  0.29178053  1
  O  O386  1  0.23503089  0.25052306  0.53818209  1
  O  O387  1  0.23443649  0.24979347  0.78737365  1
  O  O388  1  0.23232322  0.58403391  0.03721470  1
  O  O389  1  0.23218751  0.58336129  0.29009351  1
  O  O390  1  0.23321120  0.58274141  0.53977703  1
  O  O391  1  0.23365941  0.58354212  0.78716494  1
  O  O392  1  0.23320529  0.91593449  0.03803675  1
  O  O393  1  0.23242603  0.91675907  0.29088234  1
  O  O394  1  0.23407917  0.91681585  0.53958551  1
  O  O395  1  0.23422986  0.91643462  0.78923758  1
  O  O396  1  0.73444658  0.25003744  0.03810911  1
  O  O397  1  0.73422653  0.25004878  0.29051407  1
  O  O398  1  0.73228650  0.25000580  0.53738497  1
  O  O399  1  0.73441120  0.25052194  0.79086357  1
  O  O400  1  0.73386898  0.58353864  0.03757969  1
  O  O401  1  0.73243150  0.58400410  0.28965717  1
  O  O402  1  0.73171777  0.58323547  0.53893577  1
  O  O403  1  0.73458424  0.58300298  0.79037672  1
  O  O404  1  0.73433534  0.91618014  0.04061574  1
  O  O405  1  0.73326033  0.91647591  0.28738149  1
  O  O406  1  0.73152655  0.91685700  0.53910877  1
  O  O407  1  0.73323307  0.91628736  0.79065102  1
  O  O408  1  0.26855567  0.08272488  0.21127105  1
  O  O409  1  0.26751512  0.08423155  0.46283701  1
  O  O410  1  0.26584279  0.08340498  0.70905920  1
  O  O411  1  0.26811493  0.08240638  0.96029230  1
  O  O412  1  0.26764241  0.41689885  0.21035320  1
  O  O413  1  0.26867773  0.41683018  0.46116192  1
  O  O414  1  0.26511764  0.41724703  0.71201950  1
  O  O415  1  0.26406733  0.41688715  0.96015969  1
  O  O416  1  0.26647899  0.74973083  0.21231278  1
  O  O417  1  0.26483511  0.74935006  0.46163054  1
  O  O418  1  0.26478167  0.74976758  0.71080478  1
  O  O419  1  0.26662421  0.75010939  0.95945821  1
  O  O420  1  0.76605332  0.08319672  0.21192865  1
  O  O421  1  0.76654620  0.08308399  0.45949216  1
  O  O422  1  0.76504446  0.08375810  0.71230514  1
  O  O423  1  0.76461254  0.08299495  0.96181866  1
  O  O424  1  0.76556541  0.41688379  0.21173832  1
  O  O425  1  0.76543975  0.41685837  0.46183666  1
  O  O426  1  0.76744327  0.41692239  0.70997346  1
  O  O427  1  0.76664876  0.41755388  0.96021710  1
  O  O428  1  0.76684970  0.74991369  0.21189163  1
  O  O429  1  0.76593230  0.75016307  0.46170063  1
  O  O430  1  0.76556937  0.74951263  0.70988130  1
  O  O431  1  0.76655570  0.74952987  0.95974673  1
  O  O432  1  0.01557027  0.08343260  0.16649871  1
  O  O433  1  0.01426293  0.08291295  0.41283030  1
  O  O434  1  0.01673748  0.08370766  0.66142362  1
  O  O435  1  0.01640647  0.08374139  0.91595526  1
  O  O436  1  0.01896012  0.41656087  0.16548415  1
  O  O437  1  0.01558761  0.41659490  0.41623323  1
  O  O438  1  0.01452903  0.41642363  0.66167835  1
  O  O439  1  0.01699251  0.41781642  0.91227305  1
  O  O440  1  0.01606368  0.75006378  0.16606705  1
  O  O441  1  0.01627444  0.75002480  0.41233807  1
  O  O442  1  0.01707588  0.74987201  0.66130832  1
  O  O443  1  0.01890103  0.74943107  0.91488306  1
  O  O444  1  0.51612742  0.08348184  0.16356947  1
  O  O445  1  0.51671703  0.08348760  0.41238400  1
  O  O446  1  0.51558202  0.08344806  0.66242605  1
  O  O447  1  0.51660337  0.08295462  0.91563778  1
  O  O448  1  0.51539443  0.41654938  0.16566216  1
  O  O449  1  0.51645349  0.41694224  0.41190191  1
  O  O450  1  0.51715549  0.41719986  0.66238451  1
  O  O451  1  0.51585853  0.41720567  0.91594589  1
  O  O452  1  0.51444676  0.74989748  0.16339678  1
  O  O453  1  0.51784710  0.74975728  0.41045491  1
  O  O454  1  0.51830142  0.74900902  0.66434925  1
  O  O455  1  0.51456556  0.75014612  0.91701005  1
  O  O456  1  0.48327215  0.24955174  0.08528777  1
  O  O457  1  0.48332324  0.24991500  0.33782285  1
  O  O458  1  0.48321218  0.25098342  0.58441459  1
  O  O459  1  0.48318105  0.24956873  0.83412659  1
  O  O460  1  0.48468000  0.58350102  0.08744247  1
  O  O461  1  0.48581762  0.58323074  0.33631192  1
  O  O462  1  0.48330584  0.58305594  0.58379207  1
  O  O463  1  0.48215935  0.58396126  0.83780963  1
  O  O464  1  0.48414187  0.91703576  0.08821789  1
  O  O465  1  0.48628003  0.91679746  0.33600318  1
  O  O466  1  0.48480016  0.91614118  0.58270813  1
  O  O467  1  0.48109699  0.91653259  0.83559969  1
  O  O468  1  0.98397635  0.25086203  0.08530974  1
  O  O469  1  0.98276737  0.25027956  0.33882718  1
  O  O470  1  0.98410523  0.24942218  0.58367292  1
  O  O471  1  0.98197805  0.25051242  0.83443811  1
  O  O472  1  0.98625331  0.58384907  0.08683610  1
  O  O473  1  0.98570703  0.58303075  0.33714386  1
  O  O474  1  0.98525209  0.58379935  0.58586610  1
  O  O475  1  0.98458239  0.58299165  0.83578656  1
  O  O476  1  0.98389224  0.91654149  0.08788971  1
  O  O477  1  0.98395753  0.91645717  0.33498692  1
  O  O478  1  0.98375477  0.91633577  0.58350327  1
  O  O479  1  0.98520356  0.91631880  0.83649056  1
  O  O480  1  0.08795082  0.31554159  0.07864615  1
  O  O481  1  0.08651623  0.31506120  0.32817439  1
  O  O482  1  0.08831344  0.31405307  0.57558592  1
  O  O483  1  0.08561618  0.31594001  0.82689797  1
  O  O484  1  0.09051630  0.64723082  0.07782254  1
  O  O485  1  0.08893222  0.64925506  0.32857996  1
  O  O486  1  0.08914803  0.64884637  0.57756687  1
  O  O487  1  0.08813554  0.64878304  0.82713978  1
  O  O488  1  0.08765230  0.98184522  0.07770010  1
  O  O489  1  0.08817225  0.98082711  0.32656343  1
  O  O490  1  0.08713557  0.98224257  0.57685646  1
  O  O491  1  0.08881803  0.98091994  0.82816911  1
  O  O492  1  0.58700043  0.31424453  0.07772105  1
  O  O493  1  0.58681122  0.31513273  0.32802524  1
  O  O494  1  0.58721965  0.31615626  0.57659804  1
  O  O495  1  0.58704166  0.31408004  0.82734764  1
  O  O496  1  0.58833934  0.64848756  0.07721023  1
  O  O497  1  0.58959109  0.64823055  0.32713067  1
  O  O498  1  0.58739570  0.64811779  0.57683773  1
  O  O499  1  0.58589910  0.64864251  0.82816207  1
  O  O500  1  0.58751884  0.98254673  0.07898772  1
  O  O501  1  0.58992198  0.98207524  0.32759632  1
  O  O502  1  0.58905707  0.98039179  0.57639211  1
  O  O503  1  0.58456513  0.98259913  0.82807191  1
  O  O504  1  0.41262874  0.01816383  0.17408136  1
  O  O505  1  0.41288607  0.01868649  0.42278573  1
  O  O506  1  0.41175729  0.01938156  0.67101697  1
  O  O507  1  0.41296384  0.01706672  0.92330244  1
  O  O508  1  0.41114964  0.35231812  0.17356706  1
  O  O509  1  0.41290891  0.35143933  0.42244566  1
  O  O510  1  0.41342907  0.35215684  0.67115452  1
  O  O511  1  0.41192092  0.35263598  0.92233300  1
  O  O512  1  0.41074945  0.68489094  0.17349110  1
  O  O513  1  0.41426799  0.68485021  0.42213849  1
  O  O514  1  0.41460876  0.68333774  0.67160916  1
  O  O515  1  0.41058973  0.68500017  0.92324577  1
  O  O516  1  0.91212281  0.01698616  0.17330718  1
  O  O517  1  0.91012780  0.01899021  0.42286509  1
  O  O518  1  0.91357707  0.01796142  0.67211212  1
  O  O519  1  0.91247610  0.01922616  0.92242098  1
  O  O520  1  0.91441968  0.35265332  0.17280885  1
  O  O521  1  0.91133929  0.35125093  0.42307958  1
  O  O522  1  0.91075184  0.35177855  0.67194066  1
  O  O523  1  0.91370132  0.35216816  0.92161609  1
  O  O524  1  0.91200187  0.68567487  0.17381365  1
  O  O525  1  0.91263283  0.68485165  0.42328775  1
  O  O526  1  0.91358088  0.68507735  0.67212016  1
  O  O527  1  0.91561850  0.68323708  0.92246437  1
  O  O528  1  0.16460604  0.01765626  0.20320881  1
  O  O529  1  0.16359943  0.01991742  0.45241390  1
  O  O530  1  0.16186268  0.01835958  0.70100399  1
  O  O531  1  0.16423605  0.01727711  0.95266029  1
  O  O532  1  0.16366630  0.35199157  0.20235229  1
  O  O533  1  0.16512384  0.35116984  0.45253732  1
  O  O534  1  0.16158543  0.35252418  0.70230090  1
  O  O535  1  0.15998943  0.35252226  0.95186622  1
  O  O536  1  0.16266612  0.68534457  0.20376115  1
  O  O537  1  0.16135234  0.68344632  0.45351551  1
  O  O538  1  0.16133084  0.68379950  0.70262124  1
  O  O539  1  0.16247521  0.68526425  0.95178618  1
  O  O540  1  0.66237095  0.01765244  0.20247680  1
  O  O541  1  0.66236250  0.01857634  0.45194848  1
  O  O542  1  0.66155189  0.01844047  0.70310017  1
  O  O543  1  0.66079686  0.01811414  0.95254025  1
  O  O544  1  0.66192720  0.35231475  0.20292567  1
  O  O545  1  0.66172349  0.35157521  0.45221261  1
  O  O546  1  0.66339070  0.35192726  0.70139292  1
  O  O547  1  0.66281778  0.35292644  0.95206650  1
  O  O548  1  0.66315272  0.68485689  0.20297966  1
  O  O549  1  0.66223933  0.68478671  0.45221663  1
  O  O550  1  0.66165581  0.68449912  0.70203875  1
  O  O551  1  0.66292059  0.68385852  0.95277181  1
  O  O552  1  0.33710283  0.31423080  0.04711092  1
  O  O553  1  0.33903329  0.31503947  0.29800290  1
  O  O554  1  0.33871964  0.31573398  0.54755350  1
  O  O555  1  0.33757862  0.31545734  0.79701361  1
  O  O556  1  0.33570434  0.64953781  0.04675901  1
  O  O557  1  0.33603282  0.64843173  0.29797998  1
  O  O558  1  0.33718362  0.64754197  0.54866659  1
  O  O559  1  0.33737163  0.64853197  0.79757158  1
  O  O560  1  0.33687420  0.98104059  0.04726062  1
  O  O561  1  0.33680423  0.98118212  0.29772283  1
  O  O562  1  0.33785120  0.98206208  0.54682205  1
  O  O563  1  0.33816629  0.98122060  0.79784224  1
  O  O564  1  0.83780130  0.31549647  0.04748548  1
  O  O565  1  0.83867074  0.31408791  0.29829399  1
  O  O566  1  0.83617153  0.31460504  0.54639923  1
  O  O567  1  0.83799141  0.31656314  0.79721136  1
  O  O568  1  0.83752153  0.64849787  0.04761800  1
  O  O569  1  0.83623211  0.64917414  0.29775803  1
  O  O570  1  0.83540059  0.64876602  0.54726640  1
  O  O571  1  0.83896009  0.64723213  0.79830137  1
  O  O572  1  0.83822546  0.98130653  0.04869917  1
  O  O573  1  0.83657852  0.98162063  0.29699769  1
  O  O574  1  0.83527262  0.98202529  0.54706870  1
  O  O575  1  0.83696936  0.98149508  0.79757510  1
  O  O576  1  0.41215539  0.14803017  0.17340044  1
  O  O577  1  0.41280487  0.14868878  0.42226499  1
  O  O578  1  0.41262487  0.14974292  0.67063600  1
  O  O579  1  0.41231404  0.14702920  0.92345810  1
  O  O580  1  0.41190867  0.48227206  0.17414086  1
  O  O581  1  0.41263258  0.48144143  0.42303751  1
  O  O582  1  0.41344351  0.48232094  0.67108924  1
  O  O583  1  0.41215602  0.48280620  0.92249481  1
  O  O584  1  0.41071829  0.81482647  0.17352985  1
  O  O585  1  0.41446346  0.81484086  0.42215081  1
  O  O586  1  0.41421409  0.81335108  0.67198538  1
  O  O587  1  0.41060391  0.81508626  0.92295394  1
  O  O588  1  0.91093304  0.14703732  0.17348813  1
  O  O589  1  0.91085245  0.14901110  0.42248456  1
  O  O590  1  0.91283141  0.14802725  0.67161086  1
  O  O591  1  0.91285341  0.14954435  0.92196335  1
  O  O592  1  0.91565983  0.48261256  0.17362662  1
  O  O593  1  0.91138973  0.48117505  0.42370481  1
  O  O594  1  0.91120289  0.48178966  0.67233561  1
  O  O595  1  0.91347010  0.48247153  0.92157575  1
  O  O596  1  0.91228208  0.81575685  0.17315011  1
  O  O597  1  0.91233803  0.81481614  0.42300892  1
  O  O598  1  0.91374114  0.81510697  0.67217767  1
  O  O599  1  0.91463352  0.81337679  0.92250417  1
  O  O600  1  0.08728698  0.18530888  0.07782259  1
  O  O601  1  0.08612620  0.18497014  0.32779011  1
  O  O602  1  0.08816348  0.18407012  0.57619558  1
  O  O603  1  0.08594448  0.18580030  0.82684048  1
  O  O604  1  0.08930829  0.51715853  0.07834025  1
  O  O605  1  0.08995819  0.51913798  0.32800515  1
  O  O606  1  0.08896534  0.51887089  0.57672308  1
  O  O607  1  0.08867750  0.51874541  0.82716212  1
  O  O608  1  0.08776465  0.85187153  0.07778178  1
  O  O609  1  0.08771424  0.85074651  0.32715706  1
  O  O610  1  0.08788925  0.85196514  0.57736732  1
  O  O611  1  0.08849747  0.85067042  0.82859655  1
  O  O612  1  0.58694534  0.18409237  0.07832115  1
  O  O613  1  0.58686818  0.18491749  0.32792469  1
  O  O614  1  0.58722080  0.18612884  0.57600151  1
  O  O615  1  0.58660225  0.18374204  0.82810262  1
  O  O616  1  0.58842970  0.51852297  0.07749151  1
  O  O617  1  0.58951340  0.51800915  0.32772928  1
  O  O618  1  0.58743968  0.51818316  0.57673512  1
  O  O619  1  0.58563123  0.51867672  0.82773695  1
  O  O620  1  0.58748412  0.85235142  0.07795401  1
  O  O621  1  0.59008097  0.85179926  0.32720675  1
  O  O622  1  0.58836726  0.85021029  0.57728784  1
  O  O623  1  0.58524622  0.85249305  0.82795172  1
  O  O624  1  0.33716308  0.18398451  0.04671630  1
  O  O625  1  0.33894743  0.18484976  0.29819540  1
  O  O626  1  0.33895312  0.18559054  0.54746697  1
  O  O627  1  0.33816560  0.18527912  0.79647849  1
  O  O628  1  0.33596153  0.51946313  0.04719957  1
  O  O629  1  0.33613191  0.51837649  0.29755909  1
  O  O630  1  0.33725888  0.51756829  0.54818786  1
  O  O631  1  0.33733627  0.51858928  0.79786874  1
  O  O632  1  0.33674974  0.85093449  0.04680429  1
  O  O633  1  0.33611102  0.85106433  0.29801354  1
  O  O634  1  0.33760116  0.85168006  0.54740551  1
  O  O635  1  0.33793911  0.85122094  0.79785149  1
  O  O636  1  0.83806357  0.18531871  0.04712102  1
  O  O637  1  0.83775539  0.18399428  0.29761914  1
  O  O638  1  0.83560603  0.18435064  0.54661674  1
  O  O639  1  0.83872539  0.18644205  0.79819651  1
  O  O640  1  0.83741731  0.51850347  0.04798798  1
  O  O641  1  0.83614777  0.51908195  0.29808633  1
  O  O642  1  0.83577691  0.51860157  0.54698563  1
  O  O643  1  0.83831518  0.51722975  0.79730299  1
  O  O644  1  0.83860930  0.85140804  0.04837237  1
  O  O645  1  0.83675213  0.85146086  0.29715099  1
  O  O646  1  0.83538007  0.85168790  0.54714320  1
  O  O647  1  0.83717778  0.85134568  0.79740319  1
  O  O648  1  0.16483826  0.14778599  0.20279512  1
  O  O649  1  0.16421204  0.15001039  0.45283115  1
  O  O650  1  0.16179006  0.14826030  0.70087178  1
  O  O651  1  0.16437942  0.14740959  0.95194295  1
  O  O652  1  0.16360132  0.48204339  0.20278023  1
  O  O653  1  0.16446649  0.48122532  0.45309870  1
  O  O654  1  0.16170184  0.48259479  0.70307957  1
  O  O655  1  0.16059698  0.48268357  0.95276180  1
  O  O656  1  0.16336031  0.81549126  0.20349223  1
  O  O657  1  0.16063522  0.81348142  0.45225814  1
  O  O658  1  0.16060946  0.81379171  0.70197951  1
  O  O659  1  0.16262516  0.81534044  0.95195701  1
  O  O660  1  0.66214100  0.14771609  0.20184481  1
  O  O661  1  0.66269138  0.14855310  0.45133492  1
  O  O662  1  0.66151046  0.14851108  0.70309444  1
  O  O663  1  0.66088681  0.14805612  0.95228760  1
  O  O664  1  0.66221709  0.48261627  0.20380150  1
  O  O665  1  0.66149034  0.48162969  0.45272786  1
  O  O666  1  0.66328351  0.48182604  0.70150437  1
  O  O667  1  0.66304146  0.48313933  0.95258754  1
  O  O668  1  0.66315855  0.81495924  0.20269584  1
  O  O669  1  0.66205954  0.81488486  0.45245073  1
  O  O670  1  0.66143173  0.81442646  0.70216686  1
  O  O671  1  0.66262540  0.81403808  0.95243784  1
