# generated using pymatgen
data_Na2MnFe(PO4)2
_symmetry_space_group_name_H-M   'P 1'
_cell_length_a   21.08912584
_cell_length_b   18.94260491
_cell_length_c   20.04771599
_cell_angle_alpha   89.99977935
_cell_angle_beta   90.00349238
_cell_angle_gamma   89.99967916
_symmetry_Int_Tables_number   1
_chemical_formula_structural   Na2MnFe(PO4)2
_chemical_formula_sum   'Na96 Mn48 Fe48 P96 O384'
_cell_volume   8008.72128359
_cell_formula_units_Z   48
loop_
 _symmetry_equiv_pos_site_id
 _symmetry_equiv_pos_as_xyz
  1  'x, y, z'
loop_
 _atom_site_type_symbol
 _atom_site_label
 _atom_site_symmetry_multiplicity
 _atom_site_fract_x
 _atom_site_fract_y
 _atom_site_fract_z
 _atom_site_occupancy
  Na  Na0  1  0.00053386  -0.00007327  -0.00098284  1
  Na  Na1  1  -0.00067071  -0.00096706  0.25186157  1
  Na  Na2  1  0.00000192  0.00027646  0.49933017  1
  Na  Na3  1  -0.00027612  -0.00002765  0.74961047  1
  Na  Na4  1  -0.00189805  0.33263999  0.00096508  1
  Na  Na5  1  -0.00094604  0.33331100  0.25067088  1
  Na  Na6  1  -0.00024336  0.33374796  0.49824323  1
  Na  Na7  1  0.00017968  0.33361802  0.74959232  1
  Na  Na8  1  0.00019711  0.66690602  0.00131522  1
  Na  Na9  1  -0.00053968  0.66712355  0.24993974  1
  Na  Na10  1  -0.00065382  0.66687058  0.49976161  1
  Na  Na11  1  -0.00073302  0.66641319  0.74942525  1
  Na  Na12  1  0.50050622  -0.00019937  0.00108433  1
  Na  Na13  1  0.49953440  0.00007680  0.25032338  1
  Na  Na14  1  0.49836453  -0.00069945  0.50005538  1
  Na  Na15  1  0.49980953  -0.00064590  0.74935163  1
  Na  Na16  1  0.49941849  0.33275240  0.00064815  1
  Na  Na17  1  0.50076992  0.33370320  0.24986778  1
  Na  Na18  1  0.49957313  0.33258636  0.50133579  1
  Na  Na19  1  0.50121534  0.33349608  0.74896933  1
  Na  Na20  1  0.49876375  0.66692758  -0.00006371  1
  Na  Na21  1  0.49639492  0.66572957  0.24961003  1
  Na  Na22  1  0.49829510  0.66696914  0.50040700  1
  Na  Na23  1  0.50173005  0.66822666  0.74917791  1
  Na  Na24  1  0.24899834  -0.00056970  0.12351131  1
  Na  Na25  1  0.25233776  0.00083316  0.37524079  1
  Na  Na26  1  0.25077736  -0.00018401  0.62588777  1
  Na  Na27  1  0.24939257  -0.00016118  0.87473297  1
  Na  Na28  1  0.25162785  0.33396731  0.12535793  1
  Na  Na29  1  0.25015163  0.33291586  0.37459961  1
  Na  Na30  1  0.24864964  0.33326345  0.62605037  1
  Na  Na31  1  0.24997343  0.33412285  0.87485346  1
  Na  Na32  1  0.25265772  0.66778644  0.12547236  1
  Na  Na33  1  0.25128672  0.66714693  0.37482920  1
  Na  Na34  1  0.25169064  0.66786810  0.62466264  1
  Na  Na35  1  0.25035215  0.66693063  0.87534618  1
  Na  Na36  1  0.74935868  -0.00077777  0.12425742  1
  Na  Na37  1  0.75150850  0.00083749  0.37479645  1
  Na  Na38  1  0.75063673  0.00008328  0.62509004  1
  Na  Na39  1  0.75110549  0.00018137  0.87632854  1
  Na  Na40  1  0.75022695  0.33377031  0.12402772  1
  Na  Na41  1  0.75044130  0.33362587  0.37445119  1
  Na  Na42  1  0.75157448  0.33360700  0.62555625  1
  Na  Na43  1  0.75075633  0.33310679  0.87503369  1
  Na  Na44  1  0.75091405  0.66724994  0.12415642  1
  Na  Na45  1  0.75225239  0.66779307  0.37580062  1
  Na  Na46  1  0.74886791  0.66706084  0.62502592  1
  Na  Na47  1  0.74829312  0.66653716  0.87473406  1
  Na  Na48  1  0.00119685  0.16491312  -0.00045074  1
  Na  Na49  1  -0.00033176  0.16606547  0.25156641  1
  Na  Na50  1  -0.00158602  0.16673080  0.49905377  1
  Na  Na51  1  -0.00245162  0.16730260  0.74939220  1
  Na  Na52  1  -0.00134108  0.50067119  0.00163261  1
  Na  Na53  1  -0.00095320  0.50031854  0.24964626  1
  Na  Na54  1  -0.00131531  0.50044718  0.49854168  1
  Na  Na55  1  0.00135830  0.49873357  0.74950317  1
  Na  Na56  1  -0.00018543  0.83359555  0.00028763  1
  Na  Na57  1  -0.00036833  0.83381936  0.25118130  1
  Na  Na58  1  0.00105292  0.83273738  0.49938272  1
  Na  Na59  1  0.00045174  0.83332254  0.74957852  1
  Na  Na60  1  0.49975360  0.16705351  0.00063393  1
  Na  Na61  1  0.49980501  0.16681456  0.25075434  1
  Na  Na62  1  0.50024214  0.16624823  0.49996466  1
  Na  Na63  1  0.50249318  0.16531467  0.74895903  1
  Na  Na64  1  0.49873045  0.50036564  -0.00013889  1
  Na  Na65  1  0.49914432  0.49957964  0.24997027  1
  Na  Na66  1  0.49768064  0.50118375  0.50156904  1
  Na  Na67  1  0.50096640  0.49960429  0.74919835  1
  Na  Na68  1  0.49969317  0.83347124  0.00080909  1
  Na  Na69  1  0.49837666  0.83323742  0.24929471  1
  Na  Na70  1  0.49772911  0.83392616  0.50004764  1
  Na  Na71  1  0.50009774  0.83311249  0.74932338  1
  Na  Na72  1  0.25108620  0.16590116  0.12423297  1
  Na  Na73  1  0.25083341  0.16634175  0.37436298  1
  Na  Na74  1  0.24963097  0.16607866  0.62605402  1
  Na  Na75  1  0.24787783  0.16714216  0.87623150  1
  Na  Na76  1  0.25024692  0.50041366  0.12491933  1
  Na  Na77  1  0.25102846  0.49960942  0.37550663  1
  Na  Na78  1  0.24896349  0.49996524  0.62494990  1
  Na  Na79  1  0.25001839  0.49955961  0.87459146  1
  Na  Na80  1  0.25102043  0.83297660  0.12527346  1
  Na  Na81  1  0.25128379  0.83340061  0.37491747  1
  Na  Na82  1  0.25178921  0.83328834  0.62552542  1
  Na  Na83  1  0.25098212  0.83303309  0.87419182  1
  Na  Na84  1  0.74874826  0.16703214  0.12373507  1
  Na  Na85  1  0.75031014  0.16630064  0.37554195  1
  Na  Na86  1  0.75122623  0.16611373  0.62527062  1
  Na  Na87  1  0.75075675  0.16614748  0.87520049  1
  Na  Na88  1  0.75035548  0.50023149  0.12452055  1
  Na  Na89  1  0.75348686  0.49889136  0.37473496  1
  Na  Na90  1  0.75005463  0.50112968  0.62466377  1
  Na  Na91  1  0.75080125  0.49995226  0.87576878  1
  Na  Na92  1  0.75108999  0.83328946  0.12433497  1
  Na  Na93  1  0.75005605  0.83329821  0.37454158  1
  Na  Na94  1  0.74862851  0.83350730  0.62604274  1
  Na  Na95  1  0.74899214  0.83389259  0.87503912  1
  Mn  Mn96  1  0.10752685  0.41589268  0.12289894  1
  Mn  Mn97  1  0.10825010  0.08282657  0.37297624  1
  Mn  Mn98  1  0.64229419  0.91639171  0.99781349  1
  Mn  Mn99  1  0.89142931  0.25039004  0.37691908  1
  Mn  Mn100  1  0.14254716  0.58369332  0.99773565  1
  Mn  Mn101  1  0.14051818  0.24996589  0.74784022  1
  Mn  Mn102  1  0.39220487  0.58383053  0.62777027  1
  Mn  Mn103  1  0.64169203  0.58339454  0.99800096  1
  Mn  Mn104  1  0.64267368  0.58318468  0.49695414  1
  Mn  Mn105  1  0.60843011  0.41670455  0.62238386  1
  Mn  Mn106  1  0.85829141  0.74970698  0.00136530  1
  Mn  Mn107  1  0.39250672  0.24937168  0.87687690  1
  Mn  Mn108  1  0.60723819  0.74942467  0.12346107  1
  Mn  Mn109  1  0.64327756  0.25044383  0.49808206  1
  Mn  Mn110  1  0.35859677  0.41663617  0.25276346  1
  Mn  Mn111  1  0.39255224  0.58358132  0.87702946  1
  Mn  Mn112  1  0.85829165  0.41669815  0.75278695  1
  Mn  Mn113  1  0.64207740  0.25027418  0.99762475  1
  Mn  Mn114  1  0.60771120  0.08288700  0.37259975  1
  Mn  Mn115  1  0.10713666  0.08387174  0.62227371  1
  Mn  Mn116  1  0.89191379  0.91572570  0.37757044  1
  Mn  Mn117  1  0.64200588  0.91664729  0.49744552  1
  Mn  Mn118  1  0.14274134  0.24995196  0.24714865  1
  Mn  Mn119  1  0.35813533  0.08354589  0.75286263  1
  Mn  Mn120  1  0.89224707  0.91693711  0.62722132  1
  Mn  Mn121  1  0.85877161  0.08350983  0.00287102  1
  Mn  Mn122  1  0.85689968  0.75062156  0.75270172  1
  Mn  Mn123  1  0.89216268  0.58298414  0.62740417  1
  Mn  Mn124  1  0.35715005  0.08341402  0.00215223  1
  Mn  Mn125  1  0.39193024  0.91726240  0.12724391  1
  Mn  Mn126  1  0.10752591  0.41767014  0.37265310  1
  Mn  Mn127  1  0.35710129  0.41671909  0.75244020  1
  Mn  Mn128  1  0.89192950  0.24846139  0.12805374  1
  Mn  Mn129  1  0.14294018  0.91667516  0.24772383  1
  Mn  Mn130  1  0.60810460  0.08263571  0.87230849  1
  Mn  Mn131  1  0.14140829  0.58396508  0.74831068  1
  Mn  Mn132  1  0.64217961  0.58354345  0.24825579  1
  Mn  Mn133  1  0.14213100  0.25030800  0.99812231  1
  Mn  Mn134  1  0.60803797  0.41713930  0.87260605  1
  Mn  Mn135  1  0.14266833  0.58367669  0.49705825  1
  Mn  Mn136  1  0.14252913  0.91629328  0.74801823  1
  Mn  Mn137  1  0.10836584  0.74961311  0.62231280  1
  Mn  Mn138  1  0.89199312  0.58433715  0.12824020  1
  Mn  Mn139  1  0.60694375  0.74962417  0.37271426  1
  Mn  Mn140  1  0.60779347  0.41736458  0.37342511  1
  Mn  Mn141  1  0.10819116  0.75101241  0.12324684  1
  Mn  Mn142  1  0.39225085  0.25005601  0.37808559  1
  Mn  Mn143  1  0.39205251  0.24931093  0.62762716  1
  Fe  Fe144  1  0.10754486  0.74969843  0.87354726  1
  Fe  Fe145  1  0.64271909  0.58348166  0.74851888  1
  Fe  Fe146  1  0.85738282  0.08323617  0.50217202  1
  Fe  Fe147  1  0.39237118  0.91640739  0.37699466  1
  Fe  Fe148  1  0.60735638  0.08375770  0.12447575  1
  Fe  Fe149  1  0.39307186  0.91680364  0.87670425  1
  Fe  Fe150  1  0.85678489  0.08276101  0.75144212  1
  Fe  Fe151  1  0.64232798  0.91700931  0.74846272  1
  Fe  Fe152  1  0.39296553  0.91694560  0.62681370  1
  Fe  Fe153  1  0.60731756  0.41660563  0.12335091  1
  Fe  Fe154  1  0.14343425  0.58359108  0.24890169  1
  Fe  Fe155  1  0.89284533  0.58396663  0.37593589  1
  Fe  Fe156  1  0.89279450  0.25023872  0.62638730  1
  Fe  Fe157  1  0.64269236  0.91682402  0.24854719  1
  Fe  Fe158  1  0.89248996  0.58350817  0.87624269  1
  Fe  Fe159  1  0.14215643  0.91606043  0.99791562  1
  Fe  Fe160  1  0.60671747  0.75038482  0.87340911  1
  Fe  Fe161  1  0.35797572  0.08305742  0.25126127  1
  Fe  Fe162  1  0.39169380  0.58320256  0.37723482  1
  Fe  Fe163  1  0.35728960  0.74976528  0.00102184  1
  Fe  Fe164  1  0.10768402  0.74963295  0.37350141  1
  Fe  Fe165  1  0.85801892  0.41666710  0.50220351  1
  Fe  Fe166  1  0.85747202  0.75044711  0.25208253  1
  Fe  Fe167  1  0.14409939  0.91710655  0.49882172  1
  Fe  Fe168  1  0.85752581  0.75039164  0.50219408  1
  Fe  Fe169  1  0.35693029  0.75031794  0.50177074  1
  Fe  Fe170  1  0.35665766  0.41586144  0.50207546  1
  Fe  Fe171  1  0.10693665  0.41618401  0.62235791  1
  Fe  Fe172  1  0.10756163  0.08288973  0.12431513  1
  Fe  Fe173  1  0.60654919  0.75076067  0.62273158  1
  Fe  Fe174  1  0.35771016  0.41695089  0.00146484  1
  Fe  Fe175  1  0.39226552  0.58228383  0.12681626  1
  Fe  Fe176  1  0.35802112  0.74986222  0.75255567  1
  Fe  Fe177  1  0.10615267  0.08330101  0.87303749  1
  Fe  Fe178  1  0.85778363  0.41691093  0.00159966  1
  Fe  Fe179  1  0.64260957  0.24977271  0.24843939  1
  Fe  Fe180  1  0.89297311  0.91610228  0.87631180  1
  Fe  Fe181  1  0.85657672  0.41674989  0.25103208  1
  Fe  Fe182  1  0.35722330  0.75046639  0.25231316  1
  Fe  Fe183  1  0.85676179  0.08326160  0.25074811  1
  Fe  Fe184  1  0.64371696  0.24963845  0.74840953  1
  Fe  Fe185  1  0.39330307  0.25002221  0.12666737  1
  Fe  Fe186  1  0.14254592  0.24932246  0.49879535  1
  Fe  Fe187  1  0.10670708  0.41679020  0.87452880  1
  Fe  Fe188  1  0.89302370  0.91708036  0.12685249  1
  Fe  Fe189  1  0.35726497  0.08364796  0.50206908  1
  Fe  Fe190  1  0.60786570  0.08246724  0.62319808  1
  Fe  Fe191  1  0.89260504  0.25031405  0.87645076  1
  P  P192  1  0.05297768  0.24856144  0.11040272  1
  P  P193  1  0.05471434  0.24989586  0.36096959  1
  P  P194  1  0.05217286  0.25044599  0.60869440  1
  P  P195  1  0.05167622  0.25018229  0.86054038  1
  P  P196  1  0.05474791  0.58372072  0.11150667  1
  P  P197  1  0.05300303  0.58451496  0.35925326  1
  P  P198  1  0.05337577  0.58248943  0.60938457  1
  P  P199  1  0.05183761  0.58328483  0.86071461  1
  P  P200  1  0.05309633  0.91754931  0.10986735  1
  P  P201  1  0.05534925  0.91563955  0.36177838  1
  P  P202  1  0.05421266  0.91672910  0.60886957  1
  P  P203  1  0.05351798  0.91618902  0.86100618  1
  P  P204  1  0.55417598  0.24986104  0.11176830  1
  P  P205  1  0.55418634  0.25019790  0.35973352  1
  P  P206  1  0.55534229  0.24863472  0.61110585  1
  P  P207  1  0.55415732  0.24991971  0.85887977  1
  P  P208  1  0.55189735  0.58264243  0.11038316  1
  P  P209  1  0.55108589  0.58353025  0.36011299  1
  P  P210  1  0.55504381  0.58454876  0.61096582  1
  P  P211  1  0.55368650  0.58438428  0.85925771  1
  P  P212  1  0.55475150  0.91729389  0.11176356  1
  P  P213  1  0.55224824  0.91609482  0.35941235  1
  P  P214  1  0.55367909  0.91669756  0.61097737  1
  P  P215  1  0.55273699  0.91579923  0.85952969  1
  P  P216  1  0.44719791  0.08410224  0.14048480  1
  P  P217  1  0.44497377  0.08237007  0.38966720  1
  P  P218  1  0.44651402  0.08249652  0.63876619  1
  P  P219  1  0.44718646  0.08225701  0.89026844  1
  P  P220  1  0.44652834  0.41641961  0.13872655  1
  P  P221  1  0.44610420  0.41719398  0.39145115  1
  P  P222  1  0.44533663  0.41636939  0.63920358  1
  P  P223  1  0.44644914  0.41638385  0.89044378  1
  P  P224  1  0.44395135  0.74922338  0.13911868  1
  P  P225  1  0.44418949  0.75015229  0.38934987  1
  P  P226  1  0.44530616  0.75113976  0.63925138  1
  P  P227  1  0.44618546  0.75106603  0.88929853  1
  P  P228  1  0.94789634  0.08185429  0.14115719  1
  P  P229  1  0.94430751  0.08304424  0.38930890  1
  P  P230  1  0.94451097  0.08408987  0.63923524  1
  P  P231  1  0.94575413  0.08293579  0.88808377  1
  P  P232  1  0.94465478  0.41647441  0.14005101  1
  P  P233  1  0.94422890  0.41772287  0.38858350  1
  P  P234  1  0.94665417  0.41573961  0.63861015  1
  P  P235  1  0.94704651  0.41688824  0.89052328  1
  P  P236  1  0.94616267  0.75150718  0.14091112  1
  P  P237  1  0.94599253  0.74924764  0.38945723  1
  P  P238  1  0.94569993  0.75027374  0.63923739  1
  P  P239  1  0.94810629  0.74988107  0.88956300  1
  P  P240  1  0.19801152  0.08296771  0.23423379  1
  P  P241  1  0.19800524  0.08319708  0.48553812  1
  P  P242  1  0.19493238  0.08314011  0.73624741  1
  P  P243  1  0.19400904  0.08226428  0.98556422  1
  P  P244  1  0.19700125  0.41775467  0.23512890  1
  P  P245  1  0.19637094  0.41553704  0.48607290  1
  P  P246  1  0.19358889  0.41691907  0.73557486  1
  P  P247  1  0.19752818  0.41679036  0.98479374  1
  P  P248  1  0.19710641  0.74931579  0.23660546  1
  P  P249  1  0.19764674  0.75113980  0.48451472  1
  P  P250  1  0.19693957  0.75004992  0.73600208  1
  P  P251  1  0.19726701  0.75084662  0.98462942  1
  P  P252  1  0.69717277  0.08319334  0.23461598  1
  P  P253  1  0.69692177  0.08315517  0.48616010  1
  P  P254  1  0.69717003  0.08280775  0.73489392  1
  P  P255  1  0.69565988  0.08335451  0.98620673  1
  P  P256  1  0.69695552  0.41641677  0.23454174  1
  P  P257  1  0.69887207  0.41686763  0.48486212  1
  P  P258  1  0.69707205  0.41683758  0.73515570  1
  P  P259  1  0.69669793  0.41684810  0.98599139  1
  P  P260  1  0.69791402  0.75052927  0.23518147  1
  P  P261  1  0.69657120  0.75035078  0.48589761  1
  P  P262  1  0.69398076  0.75048019  0.73594730  1
  P  P263  1  0.69577282  0.74997892  0.98431697  1
  P  P264  1  0.30420763  0.25088901  0.01551581  1
  P  P265  1  0.30522833  0.24906655  0.26370974  1
  P  P266  1  0.30205431  0.24974128  0.51539409  1
  P  P267  1  0.30227335  0.24978084  0.76570024  1
  P  P268  1  0.30430695  0.58340589  0.01521792  1
  P  P269  1  0.30437117  0.58368039  0.26466695  1
  P  P270  1  0.30459683  0.58334353  0.51395292  1
  P  P271  1  0.30309075  0.58411401  0.76511912  1
  P  P272  1  0.30324594  0.91590120  0.01331538  1
  P  P273  1  0.30435134  0.91722232  0.26527650  1
  P  P274  1  0.30455714  0.91681958  0.51453119  1
  P  P275  1  0.30579929  0.91606971  0.76461266  1
  P  P276  1  0.80512920  0.25078057  0.01369288  1
  P  P277  1  0.80184229  0.24955813  0.26432009  1
  P  P278  1  0.80453998  0.25013522  0.51563625  1
  P  P279  1  0.80432376  0.24898406  0.76423152  1
  P  P280  1  0.80496750  0.58298053  0.01384157  1
  P  P281  1  0.80379226  0.58391445  0.26519863  1
  P  P282  1  0.80521873  0.58388838  0.51374088  1
  P  P283  1  0.80256066  0.58374408  0.76556361  1
  P  P284  1  0.80572970  0.91640754  0.01449686  1
  P  P285  1  0.80358099  0.91700300  0.26344737  1
  P  P286  1  0.80330617  0.91624960  0.51515905  1
  P  P287  1  0.80247090  0.91746373  0.76558800  1
  O  O288  1  0.05608553  0.24964714  0.18719838  1
  O  O289  1  0.05930992  0.24957295  0.43767247  1
  O  O290  1  0.05540139  0.24967018  0.68544110  1
  O  O291  1  0.05539001  0.24990304  0.93720543  1
  O  O292  1  0.05954075  0.58377053  0.18846509  1
  O  O293  1  0.05680459  0.58380609  0.43600496  1
  O  O294  1  0.05622936  0.58340511  0.68613256  1
  O  O295  1  0.05531165  0.58362514  0.93744662  1
  O  O296  1  0.05681130  0.91662301  0.18661177  1
  O  O297  1  0.06020110  0.91663207  0.43839668  1
  O  O298  1  0.05723657  0.91661753  0.68569006  1
  O  O299  1  0.05787080  0.91599040  0.93770007  1
  O  O300  1  0.55890552  0.24998392  0.18841507  1
  O  O301  1  0.55764593  0.24996556  0.43653820  1
  O  O302  1  0.56021777  0.24942155  0.68780108  1
  O  O303  1  0.55677712  0.24996375  0.93575161  1
  O  O304  1  0.55577099  0.58321389  0.18703616  1
  O  O305  1  0.55560579  0.58376357  0.43679909  1
  O  O306  1  0.55945920  0.58351483  0.68766950  1
  O  O307  1  0.55615681  0.58357919  0.93608767  1
  O  O308  1  0.55898742  0.91655928  0.18848183  1
  O  O309  1  0.55613679  0.91616918  0.43616072  1
  O  O310  1  0.55838694  0.91700963  0.68759133  1
  O  O311  1  0.55633874  0.91650081  0.93626860  1
  O  O312  1  0.44330874  0.08333995  0.06379556  1
  O  O313  1  0.44119219  0.08332228  0.31294886  1
  O  O314  1  0.44123415  0.08354813  0.56212040  1
  O  O315  1  0.44439478  0.08296728  0.81348810  1
  O  O316  1  0.44188373  0.41647803  0.06202535  1
  O  O317  1  0.44361535  0.41627404  0.31474366  1
  O  O318  1  0.44023074  0.41604844  0.56248001  1
  O  O319  1  0.44329055  0.41647879  0.81367336  1
  O  O320  1  0.44031916  0.75040141  0.06232294  1
  O  O321  1  0.44052728  0.75010389  0.31250253  1
  O  O322  1  0.44039871  0.75036168  0.56255436  1
  O  O323  1  0.44211300  0.75009694  0.81256040  1
  O  O324  1  0.94462191  0.08279822  0.06429902  1
  O  O325  1  0.93962053  0.08301973  0.31261443  1
  O  O326  1  0.94067540  0.08287096  0.56243671  1
  O  O327  1  0.94104733  0.08284661  0.81146394  1
  O  O328  1  0.94078101  0.41660762  0.06315893  1
  O  O329  1  0.93975540  0.41646021  0.31188458  1
  O  O330  1  0.94201018  0.41660097  0.56188934  1
  O  O331  1  0.94402320  0.41682562  0.81378906  1
  O  O332  1  0.94329984  0.75030331  0.06407832  1
  O  O333  1  0.94106003  0.75053748  0.31280909  1
  O  O334  1  0.94132616  0.75052603  0.56247751  1
  O  O335  1  0.94428892  0.75005063  0.81289138  1
  O  O336  1  0.19033549  0.08287682  0.06231671  1
  O  O337  1  0.19403258  0.08306271  0.31093866  1
  O  O338  1  0.19412088  0.08307365  0.56220904  1
  O  O339  1  0.18979498  0.08341463  0.81297761  1
  O  O340  1  0.19344705  0.41657646  0.06147557  1
  O  O341  1  0.19357900  0.41706886  0.31192714  1
  O  O342  1  0.19147747  0.41622765  0.56274713  1
  O  O343  1  0.18892089  0.41678127  0.81235032  1
  O  O344  1  0.19377837  0.75057621  0.06136905  1
  O  O345  1  0.19216110  0.74970985  0.31316213  1
  O  O346  1  0.19424817  0.75034474  0.56127404  1
  O  O347  1  0.19118887  0.74979924  0.81261723  1
  O  O348  1  0.69080356  0.08338161  0.06282697  1
  O  O349  1  0.69399859  0.08313636  0.31142681  1
  O  O350  1  0.69185004  0.08262357  0.56275580  1
  O  O351  1  0.69404404  0.08270522  0.81167201  1
  O  O352  1  0.69124546  0.41699684  0.06259167  1
  O  O353  1  0.69345958  0.41713261  0.31130505  1
  O  O354  1  0.69455797  0.41720781  0.56144284  1
  O  O355  1  0.69431823  0.41671010  0.81202298  1
  O  O356  1  0.69253889  0.75003128  0.06103982  1
  O  O357  1  0.69381455  0.74987608  0.31190763  1
  O  O358  1  0.69116513  0.75055392  0.56247801  1
  O  O359  1  0.69023943  0.75064047  0.81274446  1
  O  O360  1  0.30965853  0.24973914  0.18697754  1
  O  O361  1  0.30575095  0.24983618  0.43867487  1
  O  O362  1  0.30595325  0.24939429  0.68894450  1
  O  O363  1  0.30689425  0.25004113  0.93876234  1
  O  O364  1  0.30873033  0.58269968  0.18793461  1
  O  O365  1  0.30805306  0.58316060  0.43716509  1
  O  O366  1  0.30613755  0.58364667  0.68831034  1
  O  O367  1  0.30702335  0.58316747  0.93846050  1
  O  O368  1  0.30663897  0.91720015  0.18840773  1
  O  O369  1  0.30854180  0.91692108  0.43782584  1
  O  O370  1  0.30979962  0.91692105  0.68782402  1
  O  O371  1  0.30813465  0.91673793  0.93672133  1
  O  O372  1  0.80515273  0.24939902  0.18763428  1
  O  O373  1  0.80657070  0.25021080  0.43872283  1
  O  O374  1  0.80888659  0.25005853  0.68760991  1
  O  O375  1  0.80952013  0.24988712  0.93691371  1
  O  O376  1  0.80598381  0.58413720  0.18868230  1
  O  O377  1  0.80921349  0.58394832  0.43699321  1
  O  O378  1  0.80654273  0.58395767  0.68890305  1
  O  O379  1  0.80928789  0.58374640  0.93692952  1
  O  O380  1  0.80810171  0.91690852  0.18683004  1
  O  O381  1  0.80610631  0.91606966  0.43831267  1
  O  O382  1  0.80637243  0.91648350  0.68895605  1
  O  O383  1  0.81030318  0.91644290  0.93774689  1
  O  O384  1  0.23446801  0.25011687  0.04064008  1
  O  O385  1  0.23521017  0.24973253  0.28787258  1
  O  O386  1  0.23207966  0.24941728  0.54030960  1
  O  O387  1  0.23251156  0.25030050  0.79040295  1
  O  O388  1  0.23463625  0.58399606  0.04055333  1
  O  O389  1  0.23409646  0.58333227  0.28881871  1
  O  O390  1  0.23472283  0.58387263  0.53871623  1
  O  O391  1  0.23353517  0.58371806  0.79044819  1
  O  O392  1  0.23298739  0.91603962  0.03731610  1
  O  O393  1  0.23477315  0.91706831  0.29072220  1
  O  O394  1  0.23431689  0.91669900  0.53893785  1
  O  O395  1  0.23567944  0.91642849  0.78849759  1
  O  O396  1  0.73512362  0.25047862  0.03765800  1
  O  O397  1  0.73196331  0.24968537  0.28954767  1
  O  O398  1  0.73505939  0.25000630  0.54133591  1
  O  O399  1  0.73394995  0.24933640  0.78810939  1
  O  O400  1  0.73494664  0.58360745  0.03801599  1
  O  O401  1  0.73420003  0.58359040  0.29127859  1
  O  O402  1  0.73532042  0.58404398  0.53828997  1
  O  O403  1  0.73238341  0.58345114  0.78964827  1
  O  O404  1  0.73552160  0.91627339  0.03787989  1
  O  O405  1  0.73337257  0.91714701  0.28787202  1
  O  O406  1  0.73374919  0.91645072  0.54054802  1
  O  O407  1  0.73227365  0.91712876  0.78982010  1
  O  O408  1  0.26809138  0.08247076  0.20988700  1
  O  O409  1  0.26810829  0.08336031  0.46104592  1
  O  O410  1  0.26510525  0.08279925  0.71280685  1
  O  O411  1  0.26410678  0.08337708  0.96136121  1
  O  O412  1  0.26669691  0.41731781  0.21043438  1
  O  O413  1  0.26668245  0.41614465  0.46222339  1
  O  O414  1  0.26380787  0.41673881  0.71204999  1
  O  O415  1  0.26770519  0.41687587  0.96069109  1
  O  O416  1  0.26745762  0.75035511  0.21293695  1
  O  O417  1  0.26782065  0.75045520  0.46032858  1
  O  O418  1  0.26737096  0.75047322  0.71286860  1
  O  O419  1  0.26739966  0.75003474  0.96021722  1
  O  O420  1  0.76717226  0.08304978  0.20956349  1
  O  O421  1  0.76730474  0.08354471  0.46270825  1
  O  O422  1  0.76725987  0.08285959  0.71029928  1
  O  O423  1  0.76588630  0.08326198  0.96264549  1
  O  O424  1  0.76713977  0.41698085  0.21018770  1
  O  O425  1  0.76898455  0.41635913  0.46079289  1
  O  O426  1  0.76674207  0.41728324  0.70989889  1
  O  O427  1  0.76702814  0.41667678  0.96242144  1
  O  O428  1  0.76797618  0.75023922  0.21073807  1
  O  O429  1  0.76699446  0.75036544  0.46260636  1
  O  O430  1  0.76410002  0.75044008  0.71174192  1
  O  O431  1  0.76557096  0.75008827  0.95952967  1
  O  O432  1  0.01773180  0.08245354  0.16621421  1
  O  O433  1  0.01456999  0.08314519  0.41278400  1
  O  O434  1  0.01449518  0.08339314  0.66347651  1
  O  O435  1  0.01609140  0.08272921  0.91200227  1
  O  O436  1  0.01472706  0.41646467  0.16414295  1
  O  O437  1  0.01445321  0.41733227  0.41231733  1
  O  O438  1  0.01686749  0.41580738  0.66249997  1
  O  O439  1  0.01696593  0.41677599  0.91588425  1
  O  O440  1  0.01596579  0.75092193  0.16583499  1
  O  O441  1  0.01642757  0.74968305  0.41296574  1
  O  O442  1  0.01577109  0.75009587  0.66311549  1
  O  O443  1  0.01800761  0.75008825  0.91473644  1
  O  O444  1  0.51726325  0.08359807  0.16502565  1
  O  O445  1  0.51503906  0.08285808  0.41394612  1
  O  O446  1  0.51689084  0.08224553  0.66223500  1
  O  O447  1  0.51670331  0.08281069  0.91579218  1
  O  O448  1  0.51678034  0.41649247  0.16288758  1
  O  O449  1  0.51572325  0.41692298  0.41710653  1
  O  O450  1  0.51555434  0.41654237  0.66246574  1
  O  O451  1  0.51621167  0.41667645  0.91538981  1
  O  O452  1  0.51392884  0.74963493  0.16363232  1
  O  O453  1  0.51410254  0.75035938  0.41405389  1
  O  O454  1  0.51577216  0.75066236  0.66242038  1
  O  O455  1  0.51638557  0.75041748  0.91351357  1
  O  O456  1  0.48386562  0.24983721  0.08779027  1
  O  O457  1  0.48429646  0.25020811  0.33540294  1
  O  O458  1  0.48517679  0.24901702  0.58731869  1
  O  O459  1  0.48459316  0.24957824  0.83345504  1
  O  O460  1  0.48189045  0.58318539  0.08574037  1
  O  O461  1  0.48097033  0.58316665  0.33609174  1
  O  O462  1  0.48483404  0.58446062  0.58733688  1
  O  O463  1  0.48414667  0.58381169  0.83365121  1
  O  O464  1  0.48466686  0.91684179  0.08756388  1
  O  O465  1  0.48207593  0.91628701  0.33541704  1
  O  O466  1  0.48337179  0.91661921  0.58705733  1
  O  O467  1  0.48276464  0.91623220  0.83488059  1
  O  O468  1  0.98337007  0.24848642  0.08518745  1
  O  O469  1  0.98450539  0.24994969  0.33727917  1
  O  O470  1  0.98224827  0.25023969  0.58388814  1
  O  O471  1  0.98166888  0.25039380  0.83558769  1
  O  O472  1  0.98472865  0.58394468  0.08816494  1
  O  O473  1  0.98290145  0.58389401  0.33501449  1
  O  O474  1  0.98377079  0.58308761  0.58415494  1
  O  O475  1  0.98198996  0.58294205  0.83529624  1
  O  O476  1  0.98307132  0.91683450  0.08530731  1
  O  O477  1  0.98510365  0.91594319  0.33820234  1
  O  O478  1  0.98443643  0.91672074  0.58408620  1
  O  O479  1  0.98328688  0.91646112  0.83663441  1
  O  O480  1  0.08692147  0.31361065  0.07757390  1
  O  O481  1  0.08798765  0.31503744  0.32789635  1
  O  O482  1  0.08647715  0.31534365  0.57632088  1
  O  O483  1  0.08542128  0.31543098  0.82823303  1
  O  O484  1  0.08818043  0.64878021  0.07843986  1
  O  O485  1  0.08683172  0.64973850  0.32688815  1
  O  O486  1  0.08779333  0.64740595  0.57687296  1
  O  O487  1  0.08573852  0.64838095  0.82793003  1
  O  O488  1  0.08677598  0.98274548  0.07745820  1
  O  O489  1  0.08855469  0.98054986  0.32803158  1
  O  O490  1  0.08839515  0.98177256  0.57644693  1
  O  O491  1  0.08698722  0.98123610  0.82791512  1
  O  O492  1  0.58739240  0.31493110  0.07828493  1
  O  O493  1  0.58825355  0.31520617  0.32723265  1
  O  O494  1  0.58875075  0.31367473  0.57767628  1
  O  O495  1  0.58855189  0.31493681  0.82671728  1
  O  O496  1  0.58582663  0.64765165  0.07759082  1
  O  O497  1  0.58448259  0.64857191  0.32689685  1
  O  O498  1  0.58811675  0.64993739  0.57811016  1
  O  O499  1  0.58770843  0.64970657  0.82745720  1
  O  O500  1  0.58793504  0.98261553  0.07900647  1
  O  O501  1  0.58640365  0.98104260  0.32683401  1
  O  O502  1  0.58697062  0.98167208  0.57742533  1
  O  O503  1  0.58697351  0.98056673  0.82645087  1
  O  O504  1  0.41302380  0.01919131  0.17332496  1
  O  O505  1  0.41156494  0.01698658  0.42221319  1
  O  O506  1  0.41313997  0.01736854  0.67170496  1
  O  O507  1  0.41321415  0.01693979  0.92234168  1
  O  O508  1  0.41330046  0.35141077  0.17210173  1
  O  O509  1  0.41161105  0.35220499  0.42401546  1
  O  O510  1  0.41212566  0.35139275  0.67263058  1
  O  O511  1  0.41241302  0.35139881  0.92302095  1
  O  O512  1  0.41037424  0.68394103  0.17153112  1
  O  O513  1  0.41045501  0.68512250  0.42224697  1
  O  O514  1  0.41185431  0.68641463  0.67319526  1
  O  O515  1  0.41217465  0.68636577  0.92263183  1
  O  O516  1  0.91392608  0.01660814  0.17318210  1
  O  O517  1  0.91091608  0.01804618  0.42269113  1
  O  O518  1  0.91037788  0.01954275  0.67283946  1
  O  O519  1  0.91256872  0.01791201  0.92155111  1
  O  O520  1  0.91099368  0.35138679  0.17293135  1
  O  O521  1  0.91063690  0.35291758  0.42227861  1
  O  O522  1  0.91331200  0.35059446  0.67158632  1
  O  O523  1  0.91273330  0.35184874  0.92281575  1
  O  O524  1  0.91153496  0.68703169  0.17371799  1
  O  O525  1  0.91286072  0.68393082  0.42227088  1
  O  O526  1  0.91204195  0.68530156  0.67221774  1
  O  O527  1  0.91434526  0.68471155  0.92218774  1
  O  O528  1  0.16374041  0.01811823  0.20154802  1
  O  O529  1  0.16457720  0.01799513  0.45259452  1
  O  O530  1  0.16161707  0.01817730  0.70297257  1
  O  O531  1  0.16092874  0.01683072  0.95270912  1
  O  O532  1  0.16287169  0.35279347  0.20240102  1
  O  O533  1  0.16326021  0.35039075  0.45301708  1
  O  O534  1  0.15992704  0.35201464  0.70220006  1
  O  O535  1  0.16357669  0.35186460  0.95186622  1
  O  O536  1  0.16443638  0.68406712  0.20311675  1
  O  O537  1  0.16343210  0.68639988  0.45140778  1
  O  O538  1  0.16400369  0.68500113  0.70228551  1
  O  O539  1  0.16305046  0.68595127  0.95184189  1
  O  O540  1  0.66294601  0.01825496  0.20214982  1
  O  O541  1  0.66390694  0.01818559  0.45233642  1
  O  O542  1  0.66318277  0.01769286  0.70224367  1
  O  O543  1  0.66245359  0.01825562  0.95289646  1
  O  O544  1  0.66341477  0.35117503  0.20198417  1
  O  O545  1  0.66496896  0.35189348  0.45224290  1
  O  O546  1  0.66337484  0.35149463  0.70284748  1
  O  O547  1  0.66342181  0.35192047  0.95251862  1
  O  O548  1  0.66405186  0.68546571  0.20233302  1
  O  O549  1  0.66342262  0.68537015  0.45221823  1
  O  O550  1  0.66042084  0.68542433  0.70293638  1
  O  O551  1  0.66148770  0.68508150  0.95188502  1
  O  O552  1  0.33813269  0.31619826  0.04762842  1
  O  O553  1  0.33890119  0.31385610  0.29712823  1
  O  O554  1  0.33577922  0.31485130  0.54810796  1
  O  O555  1  0.33658661  0.31473911  0.79783289  1
  O  O556  1  0.33881520  0.64841510  0.04725505  1
  O  O557  1  0.33769953  0.64896514  0.29740635  1
  O  O558  1  0.33845497  0.64863396  0.54635939  1
  O  O559  1  0.33722805  0.64928341  0.79719202  1
  O  O560  1  0.33661010  0.98086844  0.04701534  1
  O  O561  1  0.33867999  0.98226340  0.29739276  1
  O  O562  1  0.33811968  0.98179139  0.54783072  1
  O  O563  1  0.33955337  0.98079634  0.79815310  1
  O  O564  1  0.83853640  0.31588275  0.04640150  1
  O  O565  1  0.83592885  0.31463454  0.29669025  1
  O  O566  1  0.83892569  0.31520911  0.54775943  1
  O  O567  1  0.83793037  0.31382347  0.79787950  1
  O  O568  1  0.83869269  0.64788198  0.04691223  1
  O  O569  1  0.83819371  0.64898297  0.29762600  1
  O  O570  1  0.83876907  0.64897123  0.54679836  1
  O  O571  1  0.83625722  0.64871839  0.79861086  1
  O  O572  1  0.83913657  0.98140844  0.04798408  1
  O  O573  1  0.83714841  0.98197833  0.29657379  1
  O  O574  1  0.83750338  0.98144891  0.54713892  1
  O  O575  1  0.83634349  0.98258524  0.79802035  1
  O  O576  1  0.41345267  0.14912865  0.17313999  1
  O  O577  1  0.41104698  0.14709404  0.42323737  1
  O  O578  1  0.41345194  0.14732950  0.67280918  1
  O  O579  1  0.41267667  0.14712105  0.92260749  1
  O  O580  1  0.41311173  0.48153011  0.17189555  1
  O  O581  1  0.41159813  0.48230753  0.42318358  1
  O  O582  1  0.41211619  0.48157101  0.67230504  1
  O  O583  1  0.41207178  0.48132023  0.92291315  1
  O  O584  1  0.40999913  0.81404459  0.17242424  1
  O  O585  1  0.41042255  0.81535705  0.42207204  1
  O  O586  1  0.41231600  0.81634215  0.67239014  1
  O  O587  1  0.41285871  0.81630315  0.92221736  1
  O  O588  1  0.91319538  0.14645740  0.17395412  1
  O  O589  1  0.91075668  0.14805579  0.42243945  1
  O  O590  1  0.91120315  0.14957809  0.67160456  1
  O  O591  1  0.91283534  0.14813706  0.92157199  1
  O  O592  1  0.91088193  0.48130103  0.17290471  1
  O  O593  1  0.91122444  0.48312582  0.42137030  1
  O  O594  1  0.91335288  0.48060101  0.67235546  1
  O  O595  1  0.91288393  0.48196078  0.92292366  1
  O  O596  1  0.91250271  0.81699403  0.17293031  1
  O  O597  1  0.91231091  0.81392975  0.42334727  1
  O  O598  1  0.91232790  0.81529746  0.67252818  1
  O  O599  1  0.91403431  0.81489147  0.92210952  1
  O  O600  1  0.08713971  0.18338019  0.07863078  1
  O  O601  1  0.08804929  0.18481769  0.32780547  1
  O  O602  1  0.08626523  0.18541816  0.57592081  1
  O  O603  1  0.08520510  0.18512807  0.82744613  1
  O  O604  1  0.08793157  0.51864882  0.07825141  1
  O  O605  1  0.08723788  0.51973400  0.32635289  1
  O  O606  1  0.08713663  0.51718507  0.57717882  1
  O  O607  1  0.08589882  0.51812125  0.82860658  1
  O  O608  1  0.08749006  0.85279819  0.07680362  1
  O  O609  1  0.08836545  0.85032551  0.32868597  1
  O  O610  1  0.08867296  0.85188423  0.57648926  1
  O  O611  1  0.08687993  0.85103868  0.82787413  1
  O  O612  1  0.58739413  0.18467672  0.07860497  1
  O  O613  1  0.58821991  0.18519632  0.32703873  1
  O  O614  1  0.58842157  0.18326397  0.57820937  1
  O  O615  1  0.58884638  0.18500999  0.82678166  1
  O  O616  1  0.58565517  0.51755850  0.07769784  1
  O  O617  1  0.58502872  0.51852435  0.32752081  1
  O  O618  1  0.58836174  0.51959331  0.57735100  1
  O  O619  1  0.58845517  0.51964300  0.82680241  1
  O  O620  1  0.58820664  0.85232327  0.07845009  1
  O  O621  1  0.58607232  0.85117764  0.32651117  1
  O  O622  1  0.58674327  0.85142282  0.57770303  1
  O  O623  1  0.58657023  0.85075336  0.82696540  1
  O  O624  1  0.33890296  0.18611459  0.04808497  1
  O  O625  1  0.33825169  0.18363802  0.29653340  1
  O  O626  1  0.33616790  0.18469035  0.54794646  1
  O  O627  1  0.33595940  0.18463000  0.79841403  1
  O  O628  1  0.33825261  0.51820280  0.04780997  1
  O  O629  1  0.33814054  0.51902084  0.29822939  1
  O  O630  1  0.33800404  0.51820376  0.54689077  1
  O  O631  1  0.33734548  0.51917606  0.79747526  1
  O  O632  1  0.33672945  0.85088124  0.04635508  1
  O  O633  1  0.33875125  0.85224957  0.29755369  1
  O  O634  1  0.33810051  0.85162762  0.54746220  1
  O  O635  1  0.33929019  0.85084845  0.79733786  1
  O  O636  1  0.83853424  0.18570987  0.04716266  1
  O  O637  1  0.83585376  0.18453894  0.29684627  1
  O  O638  1  0.83897425  0.18510816  0.54763932  1
  O  O639  1  0.83751134  0.18369560  0.79715263  1
  O  O640  1  0.83825280  0.51778159  0.04653584  1
  O  O641  1  0.83846958  0.51885984  0.29713630  1
  O  O642  1  0.83859065  0.51849397  0.54662011  1
  O  O643  1  0.83672682  0.51884479  0.79820068  1
  O  O644  1  0.83927235  0.85151370  0.04763634  1
  O  O645  1  0.83699979  0.85191877  0.29686791  1
  O  O646  1  0.83738260  0.85122134  0.54759829  1
  O  O647  1  0.83653359  0.85265226  0.79881134  1
  O  O648  1  0.16420192  0.14790867  0.20131590  1
  O  O649  1  0.16406964  0.14814715  0.45275661  1
  O  O650  1  0.16168550  0.14820452  0.70285765  1
  O  O651  1  0.15966888  0.14698013  0.95247427  1
  O  O652  1  0.16316011  0.48302059  0.20298366  1
  O  O653  1  0.16298839  0.48060540  0.45257098  1
  O  O654  1  0.16030728  0.48197372  0.70227643  1
  O  O655  1  0.16362826  0.48179789  0.95202737  1
  O  O656  1  0.16361400  0.81417991  0.20300674  1
  O  O657  1  0.16412786  0.81635093  0.45206766  1
  O  O658  1  0.16373907  0.81500059  0.70247018  1
  O  O659  1  0.16355721  0.81584124  0.95174267  1
  O  O660  1  0.66318485  0.14829307  0.20211488  1
  O  O661  1  0.66356140  0.14812264  0.45293075  1
  O  O662  1  0.66327923  0.14779595  0.70222900  1
  O  O663  1  0.66247046  0.14832102  0.95280099  1
  O  O664  1  0.66283533  0.48131868  0.20165453  1
  O  O665  1  0.66546179  0.48189979  0.45155997  1
  O  O666  1  0.66275544  0.48188302  0.70299473  1
  O  O667  1  0.66355007  0.48193363  0.95260289  1
  O  O668  1  0.66419505  0.81565189  0.20265248  1
  O  O669  1  0.66331637  0.81527644  0.45228250  1
  O  O670  1  0.66044793  0.81570457  0.70292340  1
  O  O671  1  0.66153347  0.81488303  0.95169073  1
