# generated using pymatgen
data_Na2MnFe(PO4)2
_symmetry_space_group_name_H-M   'P 1'
_cell_length_a   21.07592815
_cell_length_b   18.92728451
_cell_length_c   20.03601006
_cell_angle_alpha   89.99999345
_cell_angle_beta   90.00050681
_cell_angle_gamma   89.99993735
_symmetry_Int_Tables_number   1
_chemical_formula_structural   Na2MnFe(PO4)2
_chemical_formula_sum   'Na96 Mn48 Fe48 P96 O384'
_cell_volume   7992.56654448
_cell_formula_units_Z   48
loop_
 _symmetry_equiv_pos_site_id
 _symmetry_equiv_pos_as_xyz
  1  'x, y, z'
loop_
 _atom_site_type_symbol
 _atom_site_label
 _atom_site_symmetry_multiplicity
 _atom_site_fract_x
 _atom_site_fract_y
 _atom_site_fract_z
 _atom_site_occupancy
  Na  Na0  1  0.00079296  -0.00050215  0.00104277  1
  Na  Na1  1  0.00084768  -0.00039328  0.24835892  1
  Na  Na2  1  0.00225618  0.00024361  0.50061968  1
  Na  Na3  1  0.00218071  -0.00002808  0.75046450  1
  Na  Na4  1  -0.00134327  0.33291831  -0.00015488  1
  Na  Na5  1  -0.00113060  0.33301153  0.25071346  1
  Na  Na6  1  -0.00243153  0.33259976  0.49983367  1
  Na  Na7  1  -0.00258638  0.33241584  0.74943376  1
  Na  Na8  1  0.00090110  0.66746171  -0.00004431  1
  Na  Na9  1  -0.00015458  0.66693917  0.25062722  1
  Na  Na10  1  -0.00184977  0.66585801  0.50042450  1
  Na  Na11  1  0.00021365  0.66682965  0.74869936  1
  Na  Na12  1  0.49897974  -0.00061606  0.00125296  1
  Na  Na13  1  0.50077749  -0.00013699  0.24967336  1
  Na  Na14  1  0.50094860  -0.00040053  0.49934380  1
  Na  Na15  1  0.49913584  -0.00088975  0.75062747  1
  Na  Na16  1  0.49860535  0.33305409  -0.00081725  1
  Na  Na17  1  0.49821346  0.33266909  0.25048911  1
  Na  Na18  1  0.49992442  0.33390635  0.49974179  1
  Na  Na19  1  0.49850862  0.33308160  0.75036283  1
  Na  Na20  1  0.49768111  0.66664592  0.00024832  1
  Na  Na21  1  0.49929500  0.66641773  0.25072365  1
  Na  Na22  1  0.50176118  0.66771674  0.49900994  1
  Na  Na23  1  0.49928667  0.66709291  0.74942407  1
  Na  Na24  1  0.25019990  -0.00009287  0.12512829  1
  Na  Na25  1  0.24904964  -0.00084996  0.37556150  1
  Na  Na26  1  0.24933170  -0.00013143  0.62547444  1
  Na  Na27  1  0.24911350  -0.00066747  0.87394449  1
  Na  Na28  1  0.25323501  0.33389554  0.12556863  1
  Na  Na29  1  0.25186057  0.33392496  0.37454762  1
  Na  Na30  1  0.25228225  0.33483899  0.62507348  1
  Na  Na31  1  0.25194272  0.33371706  0.87512330  1
  Na  Na32  1  0.25049890  0.66746243  0.12488208  1
  Na  Na33  1  0.25116399  0.66695466  0.37413659  1
  Na  Na34  1  0.25117078  0.66756732  0.62597208  1
  Na  Na35  1  0.24830140  0.66639081  0.87511373  1
  Na  Na36  1  0.75007487  -0.00023514  0.12455536  1
  Na  Na37  1  0.74743419  -0.00127267  0.37511358  1
  Na  Na38  1  0.74923434  -0.00049363  0.62509820  1
  Na  Na39  1  0.75007905  -0.00045506  0.87543399  1
  Na  Na40  1  0.74986027  0.33274287  0.12421022  1
  Na  Na41  1  0.75112984  0.33374301  0.37444361  1
  Na  Na42  1  0.75095794  0.33315141  0.62583322  1
  Na  Na43  1  0.75048075  0.33256867  0.87487350  1
  Na  Na44  1  0.75062817  0.66747640  0.12474976  1
  Na  Na45  1  0.74870422  0.66649194  0.37611179  1
  Na  Na46  1  0.75002123  0.66666028  0.62465105  1
  Na  Na47  1  0.75102373  0.66709901  0.87460985  1
  Na  Na48  1  -0.00166843  0.16691041  0.00031120  1
  Na  Na49  1  -0.00018739  0.16591989  0.24922934  1
  Na  Na50  1  0.00058296  0.16585971  0.49937315  1
  Na  Na51  1  0.00001889  0.16608392  0.75047561  1
  Na  Na52  1  -0.00060311  0.50107662  -0.00000086  1
  Na  Na53  1  -0.00113294  0.50090156  0.25106104  1
  Na  Na54  1  -0.00084740  0.50093268  0.50044275  1
  Na  Na55  1  0.00028219  0.50050708  0.74853528  1
  Na  Na56  1  0.00192494  0.83321634  0.00035155  1
  Na  Na57  1  0.00150866  0.83277603  0.24935198  1
  Na  Na58  1  -0.00235088  0.83479556  0.50072409  1
  Na  Na59  1  0.00056631  0.83304477  0.74973355  1
  Na  Na60  1  0.49880155  0.16644948  0.00031191  1
  Na  Na61  1  0.49859619  0.16685437  0.24997516  1
  Na  Na62  1  0.50266035  0.16559721  0.49917390  1
  Na  Na63  1  0.50091220  0.16600821  0.75046186  1
  Na  Na64  1  0.49752861  0.50044909  0.00032006  1
  Na  Na65  1  0.49967685  0.50021440  0.25037309  1
  Na  Na66  1  0.49929150  0.50068439  0.49945648  1
  Na  Na67  1  0.49827743  0.50018850  0.74961485  1
  Na  Na68  1  0.49839153  0.83429139  0.00014063  1
  Na  Na69  1  0.50049105  0.83339373  0.25062479  1
  Na  Na70  1  0.50073866  0.83258560  0.49933475  1
  Na  Na71  1  0.49840076  0.83393201  0.75035518  1
  Na  Na72  1  0.25271624  0.16487149  0.12600122  1
  Na  Na73  1  0.24909059  0.16633489  0.37486193  1
  Na  Na74  1  0.24830066  0.16641128  0.62545758  1
  Na  Na75  1  0.24938345  0.16623355  0.87430382  1
  Na  Na76  1  0.25258358  0.49918130  0.12545330  1
  Na  Na77  1  0.25192481  0.50036226  0.37443750  1
  Na  Na78  1  0.25110011  0.50052665  0.62512531  1
  Na  Na79  1  0.25155483  0.49969716  0.87448470  1
  Na  Na80  1  0.24881227  0.83435472  0.12413351  1
  Na  Na81  1  0.25143831  0.83282474  0.37465881  1
  Na  Na82  1  0.25187542  0.83287218  0.62616761  1
  Na  Na83  1  0.24997100  0.83359529  0.87525744  1
  Na  Na84  1  0.75049439  0.16589681  0.12501414  1
  Na  Na85  1  0.74755516  0.16769281  0.37419856  1
  Na  Na86  1  0.74993385  0.16646179  0.62610380  1
  Na  Na87  1  0.74997018  0.16655383  0.87455336  1
  Na  Na88  1  0.74987067  0.50123581  0.12360994  1
  Na  Na89  1  0.74995699  0.50071558  0.37552252  1
  Na  Na90  1  0.75141283  0.50035850  0.62509295  1
  Na  Na91  1  0.75121591  0.50032700  0.87522927  1
  Na  Na92  1  0.74898470  0.83430578  0.12519413  1
  Na  Na93  1  0.74955688  0.83281511  0.37595598  1
  Na  Na94  1  0.74857257  0.83383100  0.62428591  1
  Na  Na95  1  0.75122416  0.83282991  0.87493503  1
  Mn  Mn96  1  0.60747191  0.75043978  0.87300455  1
  Mn  Mn97  1  0.10792307  0.41677089  0.87280016  1
  Mn  Mn98  1  0.39247094  0.24946403  0.37804903  1
  Mn  Mn99  1  0.35730224  0.08333474  0.75234034  1
  Mn  Mn100  1  0.14189359  0.25132933  0.49764239  1
  Mn  Mn101  1  0.10849750  0.41668525  0.12303739  1
  Mn  Mn102  1  0.85846683  0.41693461  0.75253247  1
  Mn  Mn103  1  0.60711208  0.41664198  0.87286127  1
  Mn  Mn104  1  0.89197757  0.91719632  0.62718769  1
  Mn  Mn105  1  0.89184883  0.24915741  0.37769475  1
  Mn  Mn106  1  0.89267342  0.91664529  0.12696906  1
  Mn  Mn107  1  0.39280567  0.91664252  0.37689320  1
  Mn  Mn108  1  0.14261319  0.91534141  0.49761655  1
  Mn  Mn109  1  0.85737060  0.08249503  0.25268290  1
  Mn  Mn110  1  0.14262302  0.58299404  0.99766485  1
  Mn  Mn111  1  0.60845477  0.41674237  0.37279103  1
  Mn  Mn112  1  0.89223284  0.58325635  0.12743166  1
  Mn  Mn113  1  0.10754837  0.41646525  0.37327659  1
  Mn  Mn114  1  0.60680208  0.08343779  0.12228050  1
  Mn  Mn115  1  0.14258686  0.58356755  0.24825937  1
  Mn  Mn116  1  0.64181896  0.25051510  0.24659642  1
  Mn  Mn117  1  0.39108036  0.58396060  0.87709448  1
  Mn  Mn118  1  0.39284476  0.58380481  0.37759832  1
  Mn  Mn119  1  0.10825684  0.08366365  0.12231250  1
  Mn  Mn120  1  0.39181581  0.24876531  0.87746712  1
  Mn  Mn121  1  0.85762732  0.41748193  0.25203702  1
  Mn  Mn122  1  0.64168664  0.91612257  0.74840437  1
  Mn  Mn123  1  0.10776226  0.41600399  0.62226614  1
  Mn  Mn124  1  0.64207782  0.58339284  0.74769826  1
  Mn  Mn125  1  0.85795865  0.75037943  0.75205317  1
  Mn  Mn126  1  0.85863957  0.08262937  0.75270883  1
  Mn  Mn127  1  0.39241039  0.24955895  0.62696381  1
  Mn  Mn128  1  0.64183876  0.58373729  0.99744247  1
  Mn  Mn129  1  0.14286436  0.25000234  0.24741933  1
  Mn  Mn130  1  0.10827194  0.75004393  0.62204559  1
  Mn  Mn131  1  0.85773575  0.75026006  0.25246067  1
  Mn  Mn132  1  0.64245699  0.25030231  0.74790167  1
  Mn  Mn133  1  0.35686289  0.75031248  0.00268165  1
  Mn  Mn134  1  0.10763883  0.75051889  0.37382145  1
  Mn  Mn135  1  0.60709547  0.74983037  0.12264341  1
  Mn  Mn136  1  0.60740949  0.41740524  0.62259590  1
  Mn  Mn137  1  0.35778419  0.08320018  0.50246803  1
  Mn  Mn138  1  0.85739925  0.08329004  0.50163359  1
  Mn  Mn139  1  0.85806768  0.41642038  0.00240790  1
  Mn  Mn140  1  0.60810627  0.08268746  0.62261907  1
  Mn  Mn141  1  0.14138060  0.25057647  0.74765823  1
  Mn  Mn142  1  0.14260276  0.24978018  0.99823961  1
  Mn  Mn143  1  0.60663171  0.41653466  0.12259661  1
  Fe  Fe144  1  0.85714905  0.41699750  0.50147754  1
  Fe  Fe145  1  0.39296652  0.91638940  0.62639583  1
  Fe  Fe146  1  0.10751010  0.08284164  0.37328600  1
  Fe  Fe147  1  0.10811283  0.74954958  0.12351776  1
  Fe  Fe148  1  0.35738423  0.08344570  0.00131516  1
  Fe  Fe149  1  0.60774462  0.08294903  0.37285046  1
  Fe  Fe150  1  0.35710877  0.75057323  0.25132277  1
  Fe  Fe151  1  0.85820582  0.75079803  0.00133613  1
  Fe  Fe152  1  0.35704942  0.41720786  0.75134181  1
  Fe  Fe153  1  0.64291571  0.58299561  0.49883242  1
  Fe  Fe154  1  0.85601664  0.74991345  0.50146360  1
  Fe  Fe155  1  0.89371395  0.91644621  0.87716404  1
  Fe  Fe156  1  0.35770232  0.41734424  0.50196537  1
  Fe  Fe157  1  0.89262962  0.24945238  0.87742444  1
  Fe  Fe158  1  0.39201149  0.91734915  0.87712820  1
  Fe  Fe159  1  0.35865518  0.74956810  0.50188770  1
  Fe  Fe160  1  0.85719116  0.08260092  0.00084536  1
  Fe  Fe161  1  0.64276603  0.58370824  0.24794587  1
  Fe  Fe162  1  0.35714544  0.08266791  0.25241810  1
  Fe  Fe163  1  0.14317585  0.91733149  0.99772425  1
  Fe  Fe164  1  0.64246075  0.24934613  0.99822492  1
  Fe  Fe165  1  0.10711793  0.08371957  0.62336634  1
  Fe  Fe166  1  0.39201476  0.91658685  0.12730201  1
  Fe  Fe167  1  0.14292468  0.91631125  0.24896988  1
  Fe  Fe168  1  0.64250261  0.91693268  0.99820061  1
  Fe  Fe169  1  0.89270280  0.58318914  0.62659047  1
  Fe  Fe170  1  0.89207010  0.24964221  0.62600945  1
  Fe  Fe171  1  0.89172192  0.58415777  0.37770000  1
  Fe  Fe172  1  0.60774430  0.75031838  0.37285901  1
  Fe  Fe173  1  0.39251635  0.58422310  0.62621135  1
  Fe  Fe174  1  0.14345191  0.58360457  0.49862398  1
  Fe  Fe175  1  0.89206859  0.25013736  0.12628153  1
  Fe  Fe176  1  0.14278906  0.58355948  0.74804007  1
  Fe  Fe177  1  0.39216161  0.58376296  0.12746253  1
  Fe  Fe178  1  0.10712461  0.08318183  0.87427665  1
  Fe  Fe179  1  0.64205404  0.91658884  0.49811689  1
  Fe  Fe180  1  0.60645869  0.74978259  0.62343048  1
  Fe  Fe181  1  0.64299886  0.25041313  0.49884752  1
  Fe  Fe182  1  0.60725067  0.08294831  0.87453422  1
  Fe  Fe183  1  0.35783630  0.41592027  0.00238397  1
  Fe  Fe184  1  0.35713396  0.75003992  0.75174698  1
  Fe  Fe185  1  0.39239250  0.24949004  0.12675944  1
  Fe  Fe186  1  0.10700744  0.75024669  0.87317080  1
  Fe  Fe187  1  0.35801700  0.41666835  0.25218374  1
  Fe  Fe188  1  0.64262991  0.91600991  0.24801634  1
  Fe  Fe189  1  0.14303704  0.91598022  0.74870106  1
  Fe  Fe190  1  0.89347495  0.58401515  0.87612566  1
  Fe  Fe191  1  0.89245194  0.91646215  0.37636813  1
  P  P192  1  0.05205843  0.25013003  0.10985218  1
  P  P193  1  0.05328660  0.24916938  0.35972788  1
  P  P194  1  0.05167572  0.24943445  0.60982982  1
  P  P195  1  0.05197400  0.24932605  0.86050365  1
  P  P196  1  0.05372581  0.58406681  0.11026114  1
  P  P197  1  0.05308962  0.58384865  0.36181816  1
  P  P198  1  0.05446732  0.58331230  0.61004333  1
  P  P199  1  0.05316234  0.58431278  0.85918877  1
  P  P200  1  0.05619568  0.91574514  0.11053155  1
  P  P201  1  0.05279973  0.91679178  0.35938866  1
  P  P202  1  0.05485406  0.91708915  0.61137661  1
  P  P203  1  0.05448533  0.91658518  0.86111788  1
  P  P204  1  0.55189146  0.25001292  0.10921135  1
  P  P205  1  0.55509950  0.24954145  0.36095568  1
  P  P206  1  0.55386642  0.25033261  0.60925299  1
  P  P207  1  0.55442412  0.24871943  0.86137775  1
  P  P208  1  0.55237364  0.58350955  0.11105457  1
  P  P209  1  0.55586820  0.58401902  0.36066717  1
  P  P210  1  0.55235950  0.58427232  0.60938880  1
  P  P211  1  0.55236096  0.58362525  0.85964308  1
  P  P212  1  0.55336687  0.91634165  0.11060447  1
  P  P213  1  0.55573879  0.91647780  0.36046383  1
  P  P214  1  0.55267705  0.91536496  0.60961395  1
  P  P215  1  0.55302475  0.91759369  0.86168522  1
  P  P216  1  0.44415617  0.08282041  0.13951506  1
  P  P217  1  0.44710358  0.08264831  0.38900675  1
  P  P218  1  0.44696262  0.08220360  0.64006052  1
  P  P219  1  0.44688869  0.08217818  0.89089648  1
  P  P220  1  0.44453598  0.41632523  0.13972417  1
  P  P221  1  0.44534020  0.41688029  0.38984653  1
  P  P222  1  0.44462852  0.41790456  0.63926576  1
  P  P223  1  0.44413689  0.41667367  0.88947410  1
  P  P224  1  0.44544804  0.75066832  0.14081360  1
  P  P225  1  0.44647764  0.75035018  0.38925362  1
  P  P226  1  0.44571518  0.74999071  0.63908981  1
  P  P227  1  0.44480246  0.75114130  0.88907612  1
  P  P228  1  0.94503679  0.08369272  0.13855382  1
  P  P229  1  0.94793195  0.08140209  0.38972798  1
  P  P230  1  0.94756705  0.08368576  0.63988405  1
  P  P231  1  0.94751127  0.08233253  0.89076583  1
  P  P232  1  0.94692017  0.41607181  0.14037109  1
  P  P233  1  0.94549347  0.41767400  0.39095339  1
  P  P234  1  0.94493382  0.41685949  0.63821484  1
  P  P235  1  0.94692422  0.41724167  0.88981430  1
  P  P236  1  0.94711601  0.75036439  0.13909207  1
  P  P237  1  0.94557186  0.75065736  0.39083567  1
  P  P238  1  0.94517316  0.74944430  0.63834529  1
  P  P239  1  0.94762242  0.75035831  0.89004198  1
  P  P240  1  0.19653008  0.08221151  0.23632740  1
  P  P241  1  0.19482218  0.08323879  0.48548480  1
  P  P242  1  0.19403116  0.08232205  0.73594228  1
  P  P243  1  0.19763955  0.08281275  0.98448925  1
  P  P244  1  0.19847682  0.41683882  0.23532886  1
  P  P245  1  0.19829547  0.41823307  0.48495227  1
  P  P246  1  0.19748466  0.41755604  0.73495503  1
  P  P247  1  0.19872680  0.41629704  0.98505408  1
  P  P248  1  0.19713342  0.75080796  0.23476837  1
  P  P249  1  0.19901531  0.74896113  0.48510397  1
  P  P250  1  0.19604423  0.75029491  0.73658605  1
  P  P251  1  0.19465422  0.75095406  0.98540796  1
  P  P252  1  0.69505794  0.08214876  0.23548774  1
  P  P253  1  0.69585095  0.08349791  0.48450640  1
  P  P254  1  0.69575976  0.08277177  0.73641381  1
  P  P255  1  0.69690058  0.08306728  0.98477507  1
  P  P256  1  0.69663416  0.41812755  0.23417493  1
  P  P257  1  0.69793753  0.41675091  0.48558047  1
  P  P258  1  0.69686281  0.41697757  0.73487210  1
  P  P259  1  0.69643178  0.41583212  0.98486486  1
  P  P260  1  0.69540896  0.74994367  0.23611017  1
  P  P261  1  0.69487180  0.74970574  0.48627804  1
  P  P262  1  0.69584734  0.75004212  0.73395817  1
  P  P263  1  0.69780975  0.75104772  0.98499346  1
  P  P264  1  0.30398457  0.24909681  0.01566178  1
  P  P265  1  0.30533089  0.24934399  0.26417110  1
  P  P266  1  0.30297331  0.25033398  0.51522360  1
  P  P267  1  0.30307483  0.25042468  0.76477229  1
  P  P268  1  0.30393966  0.58285686  0.01578067  1
  P  P269  1  0.30526259  0.58403532  0.26389251  1
  P  P270  1  0.30353710  0.58400779  0.51536897  1
  P  P271  1  0.30340337  0.58411960  0.76346540  1
  P  P272  1  0.30390765  0.91789591  0.01430799  1
  P  P273  1  0.30356288  0.91650477  0.26387496  1
  P  P274  1  0.30440656  0.91575144  0.51573644  1
  P  P275  1  0.30437623  0.91589448  0.76434010  1
  P  P276  1  0.80390088  0.24844377  0.01412620  1
  P  P277  1  0.80414162  0.24994739  0.26376059  1
  P  P278  1  0.80249578  0.25014935  0.51543896  1
  P  P279  1  0.80569368  0.24959204  0.76490706  1
  P  P280  1  0.80502896  0.58489197  0.01351145  1
  P  P281  1  0.80255846  0.58402766  0.26588707  1
  P  P282  1  0.80386333  0.58385419  0.51446513  1
  P  P283  1  0.80508366  0.58377022  0.76468120  1
  P  P284  1  0.80384627  0.91651784  0.01356721  1
  P  P285  1  0.80252089  0.91633951  0.26580447  1
  P  P286  1  0.80277440  0.91620332  0.51358979  1
  P  P287  1  0.80407037  0.91650912  0.76614721  1
  O  O288  1  0.05635513  0.24992963  0.18656203  1
  O  O289  1  0.05638135  0.25016513  0.43655462  1
  O  O290  1  0.05530356  0.25052666  0.68657507  1
  O  O291  1  0.05599998  0.25005002  0.93717984  1
  O  O292  1  0.05675301  0.58357575  0.18711833  1
  O  O293  1  0.05869144  0.58378532  0.43844869  1
  O  O294  1  0.05975137  0.58358980  0.68675675  1
  O  O295  1  0.05686445  0.58347015  0.93593779  1
  O  O296  1  0.06024196  0.91645888  0.18732022  1
  O  O297  1  0.05647602  0.91595214  0.43617200  1
  O  O298  1  0.05898429  0.91560782  0.68811631  1
  O  O299  1  0.05883135  0.91681827  0.93787981  1
  O  O300  1  0.55577919  0.24998487  0.18600575  1
  O  O301  1  0.55963085  0.25061901  0.43770710  1
  O  O302  1  0.55669076  0.25058062  0.68612504  1
  O  O303  1  0.55852221  0.24946788  0.93816240  1
  O  O304  1  0.55773725  0.58357853  0.18768730  1
  O  O305  1  0.56010121  0.58305562  0.43747876  1
  O  O306  1  0.55584654  0.58336131  0.68611137  1
  O  O307  1  0.55556577  0.58367515  0.93650444  1
  O  O308  1  0.55848519  0.91625865  0.18727107  1
  O  O309  1  0.55934902  0.91634063  0.43732398  1
  O  O310  1  0.55584411  0.91606114  0.68638254  1
  O  O311  1  0.55812941  0.91672045  0.93837828  1
  O  O312  1  0.44053009  0.08273824  0.06272455  1
  O  O313  1  0.44178363  0.08258625  0.31233115  1
  O  O314  1  0.44413517  0.08296808  0.56325575  1
  O  O315  1  0.44323446  0.08277450  0.81416090  1
  O  O316  1  0.44120156  0.41638266  0.06281155  1
  O  O317  1  0.44107072  0.41687053  0.31302308  1
  O  O318  1  0.44086910  0.41725404  0.56239817  1
  O  O319  1  0.43990127  0.41679828  0.81261622  1
  O  O320  1  0.44248663  0.75078084  0.06396813  1
  O  O321  1  0.44115679  0.75046846  0.31265153  1
  O  O322  1  0.44200972  0.74971825  0.56226932  1
  O  O323  1  0.44093933  0.75032346  0.81224764  1
  O  O324  1  0.94061173  0.08270603  0.06182833  1
  O  O325  1  0.94409544  0.08187366  0.31300177  1
  O  O326  1  0.94374524  0.08284272  0.56317052  1
  O  O327  1  0.94450121  0.08212253  0.81401880  1
  O  O328  1  0.94380663  0.41690815  0.06354339  1
  O  O329  1  0.94281826  0.41740179  0.31413248  1
  O  O330  1  0.94068881  0.41700004  0.56144980  1
  O  O331  1  0.94452597  0.41727023  0.81298049  1
  O  O332  1  0.94220159  0.75080905  0.06242746  1
  O  O333  1  0.94338587  0.75037792  0.31395629  1
  O  O334  1  0.94023212  0.75019043  0.56166151  1
  O  O335  1  0.94421112  0.75048445  0.81328924  1
  O  O336  1  0.19431564  0.08339213  0.06127197  1
  O  O337  1  0.19154151  0.08263752  0.31302517  1
  O  O338  1  0.19056274  0.08350743  0.56231275  1
  O  O339  1  0.18985672  0.08330051  0.81274561  1
  O  O340  1  0.19486376  0.41630996  0.06177009  1
  O  O341  1  0.19401850  0.41692193  0.31200630  1
  O  O342  1  0.19423036  0.41728497  0.56167618  1
  O  O343  1  0.19377181  0.41681415  0.81169137  1
  O  O344  1  0.19126160  0.75005017  0.06220578  1
  O  O345  1  0.19348823  0.75019000  0.31150483  1
  O  O346  1  0.19504761  0.74991026  0.56181710  1
  O  O347  1  0.19126570  0.75025995  0.81326633  1
  O  O348  1  0.69320662  0.08305427  0.06153172  1
  O  O349  1  0.69118530  0.08307196  0.31225870  1
  O  O350  1  0.69368014  0.08314790  0.56141694  1
  O  O351  1  0.69133187  0.08261939  0.81311533  1
  O  O352  1  0.69302352  0.41656960  0.06166405  1
  O  O353  1  0.69408341  0.41712595  0.31102405  1
  O  O354  1  0.69436540  0.41685898  0.56225045  1
  O  O355  1  0.69330406  0.41702397  0.81163826  1
  O  O356  1  0.69362984  0.75054780  0.06172474  1
  O  O357  1  0.69190572  0.74991855  0.31291115  1
  O  O358  1  0.69045255  0.74987620  0.56297747  1
  O  O359  1  0.69275115  0.74998228  0.81078264  1
  O  O360  1  0.30895604  0.24913200  0.18738094  1
  O  O361  1  0.30602498  0.24921997  0.43839361  1
  O  O362  1  0.30631529  0.24936417  0.68802859  1
  O  O363  1  0.30616481  0.24881781  0.93880971  1
  O  O364  1  0.30869504  0.58403343  0.18707360  1
  O  O365  1  0.30692028  0.58425421  0.43869289  1
  O  O366  1  0.30798975  0.58448193  0.68681641  1
  O  O367  1  0.30607335  0.58402544  0.93890635  1
  O  O368  1  0.30756746  0.91671306  0.18715099  1
  O  O369  1  0.30743999  0.91650735  0.43888940  1
  O  O370  1  0.30912963  0.91669657  0.68767450  1
  O  O371  1  0.30822014  0.91724880  0.93755171  1
  O  O372  1  0.80845677  0.24969541  0.18697387  1
  O  O373  1  0.80595274  0.24934401  0.43861927  1
  O  O374  1  0.80992267  0.24924480  0.68808637  1
  O  O375  1  0.80891527  0.24923859  0.93735209  1
  O  O376  1  0.80653563  0.58419883  0.18909907  1
  O  O377  1  0.80802084  0.58395155  0.43770672  1
  O  O378  1  0.80918658  0.58372481  0.68787729  1
  O  O379  1  0.80971488  0.58436530  0.93676888  1
  O  O380  1  0.80688055  0.91651039  0.18906704  1
  O  O381  1  0.80775615  0.91682718  0.43699361  1
  O  O382  1  0.80706058  0.91685130  0.68928337  1
  O  O383  1  0.80904088  0.91628349  0.93694072  1
  O  O384  1  0.23454091  0.24924956  0.04177584  1
  O  O385  1  0.23543243  0.24982765  0.28891276  1
  O  O386  1  0.23336836  0.25083033  0.54069610  1
  O  O387  1  0.23336073  0.25019114  0.78997168  1
  O  O388  1  0.23435399  0.58327687  0.04133647  1
  O  O389  1  0.23542047  0.58385225  0.28880790  1
  O  O390  1  0.23354421  0.58402985  0.54041344  1
  O  O391  1  0.23316979  0.58362948  0.78779968  1
  O  O392  1  0.23350825  0.91727894  0.03794580  1
  O  O393  1  0.23344317  0.91613139  0.28850580  1
  O  O394  1  0.23463258  0.91617102  0.54068723  1
  O  O395  1  0.23390514  0.91621199  0.78788588  1
  O  O396  1  0.73339936  0.24894087  0.03763051  1
  O  O397  1  0.73406452  0.25051917  0.28767066  1
  O  O398  1  0.73246913  0.24974442  0.54022379  1
  O  O399  1  0.73552720  0.24986374  0.78860612  1
  O  O400  1  0.73489618  0.58447291  0.03755548  1
  O  O401  1  0.73246289  0.58390008  0.29014578  1
  O  O402  1  0.73339079  0.58375412  0.53833556  1
  O  O403  1  0.73502348  0.58384398  0.78877255  1
  O  O404  1  0.73342216  0.91698198  0.03736416  1
  O  O405  1  0.73229919  0.91579740  0.28959465  1
  O  O406  1  0.73229679  0.91650962  0.53727924  1
  O  O407  1  0.73427920  0.91609830  0.79090446  1
  O  O408  1  0.26690424  0.08238283  0.21274133  1
  O  O409  1  0.26496880  0.08260979  0.46154267  1
  O  O410  1  0.26422564  0.08297093  0.71204302  1
  O  O411  1  0.26762670  0.08289423  0.95965724  1
  O  O412  1  0.26875664  0.41679549  0.21156946  1
  O  O413  1  0.26842311  0.41775978  0.46057424  1
  O  O414  1  0.26759280  0.41759333  0.71050501  1
  O  O415  1  0.26881589  0.41638794  0.96064448  1
  O  O416  1  0.26720586  0.75070304  0.21014523  1
  O  O417  1  0.26903915  0.74944666  0.46050020  1
  O  O418  1  0.26643119  0.75050993  0.71281662  1
  O  O419  1  0.26467872  0.75014230  0.96103901  1
  O  O420  1  0.76498591  0.08246282  0.21100631  1
  O  O421  1  0.76541005  0.08331560  0.45864490  1
  O  O422  1  0.76578559  0.08274267  0.71218602  1
  O  O423  1  0.76705207  0.08283219  0.96023861  1
  O  O424  1  0.76608750  0.41757853  0.20839522  1
  O  O425  1  0.76796739  0.41720547  0.46063414  1
  O  O426  1  0.76665505  0.41685140  0.71024591  1
  O  O427  1  0.76624227  0.41605208  0.95995256  1
  O  O428  1  0.76523581  0.75053092  0.21115928  1
  O  O429  1  0.76532976  0.74956436  0.46246013  1
  O  O430  1  0.76561298  0.75037763  0.70913596  1
  O  O431  1  0.76789397  0.75057283  0.96052048  1
  O  O432  1  0.01521960  0.08298737  0.16238094  1
  O  O433  1  0.01794118  0.08237642  0.41435871  1
  O  O434  1  0.01752861  0.08323233  0.66472829  1
  O  O435  1  0.01760357  0.08269350  0.91571642  1
  O  O436  1  0.01642000  0.41661430  0.16608015  1
  O  O437  1  0.01521723  0.41685680  0.41625501  1
  O  O438  1  0.01491829  0.41679228  0.66271980  1
  O  O439  1  0.01647120  0.41708855  0.91569297  1
  O  O440  1  0.01740916  0.75008294  0.16295089  1
  O  O441  1  0.01515775  0.75058080  0.41664343  1
  O  O442  1  0.01535025  0.74969897  0.66207142  1
  O  O443  1  0.01782376  0.75052490  0.91445879  1
  O  O444  1  0.51426222  0.08299512  0.16378041  1
  O  O445  1  0.51751181  0.08231713  0.41227693  1
  O  O446  1  0.51655170  0.08244206  0.66553289  1
  O  O447  1  0.51681728  0.08269632  0.91580236  1
  O  O448  1  0.51442794  0.41628710  0.16465300  1
  O  O449  1  0.51552201  0.41721821  0.41352671  1
  O  O450  1  0.51460540  0.41687859  0.66373072  1
  O  O451  1  0.51418943  0.41678301  0.91355223  1
  O  O452  1  0.51516278  0.75032438  0.16590806  1
  O  O453  1  0.51703897  0.75047207  0.41221031  1
  O  O454  1  0.51596058  0.75009553  0.66343099  1
  O  O455  1  0.51462037  0.75093184  0.91395176  1
  O  O456  1  0.48166620  0.24963964  0.08529256  1
  O  O457  1  0.48498958  0.24970388  0.33700901  1
  O  O458  1  0.48418425  0.24983187  0.58402270  1
  O  O459  1  0.48441774  0.24907561  0.83696605  1
  O  O460  1  0.48185159  0.58377435  0.08783687  1
  O  O461  1  0.48565145  0.58342492  0.33702158  1
  O  O462  1  0.48232008  0.58435781  0.58462481  1
  O  O463  1  0.48269518  0.58372474  0.83457433  1
  O  O464  1  0.48275564  0.91666854  0.08767865  1
  O  O465  1  0.48567163  0.91651986  0.33617141  1
  O  O466  1  0.48269670  0.91578531  0.58467165  1
  O  O467  1  0.48271309  0.91721864  0.83788462  1
  O  O468  1  0.98197603  0.24985807  0.08550906  1
  O  O469  1  0.98348948  0.24920773  0.33482622  1
  O  O470  1  0.98169895  0.24951033  0.58492969  1
  O  O471  1  0.98178231  0.24910566  0.83614194  1
  O  O472  1  0.98409326  0.58421438  0.08501226  1
  O  O473  1  0.98252932  0.58423920  0.33864938  1
  O  O474  1  0.98382747  0.58334643  0.58729295  1
  O  O475  1  0.98300900  0.58403514  0.83472209  1
  O  O476  1  0.98599309  0.91656755  0.08671155  1
  O  O477  1  0.98281692  0.91600335  0.33452877  1
  O  O478  1  0.98484430  0.91724605  0.58706877  1
  O  O479  1  0.98408408  0.91639162  0.83714318  1
  O  O480  1  0.08576816  0.31523482  0.07709843  1
  O  O481  1  0.08729074  0.31436758  0.32721943  1
  O  O482  1  0.08548375  0.31449963  0.57674483  1
  O  O483  1  0.08539376  0.31447786  0.82720925  1
  O  O484  1  0.08800894  0.64915367  0.07811878  1
  O  O485  1  0.08641400  0.64890721  0.32838321  1
  O  O486  1  0.08772691  0.64823443  0.57626327  1
  O  O487  1  0.08689062  0.64961037  0.82667703  1
  O  O488  1  0.09014164  0.98055561  0.07704867  1
  O  O489  1  0.08676864  0.98193629  0.32685912  1
  O  O490  1  0.08852728  0.98236058  0.57906995  1
  O  O491  1  0.08798906  0.98165638  0.82804491  1
  O  O492  1  0.58563014  0.31496724  0.07632165  1
  O  O493  1  0.58835166  0.31467910  0.32741407  1
  O  O494  1  0.58790586  0.31542892  0.57661753  1
  O  O495  1  0.58801017  0.31366597  0.82795102  1
  O  O496  1  0.58555992  0.64852400  0.07736354  1
  O  O497  1  0.58887689  0.64950003  0.32778643  1
  O  O498  1  0.58658006  0.64932511  0.57710132  1
  O  O499  1  0.58647698  0.64876557  0.82736098  1
  O  O500  1  0.58682513  0.98126016  0.07704852  1
  O  O501  1  0.58943668  0.98145019  0.32740114  1
  O  O502  1  0.58715944  0.98012366  0.57676774  1
  O  O503  1  0.58619100  0.98287233  0.82865677  1
  O  O504  1  0.41064650  0.01758121  0.17266733  1
  O  O505  1  0.41369317  0.01771958  0.42239202  1
  O  O506  1  0.41289058  0.01686600  0.67205517  1
  O  O507  1  0.41281540  0.01718624  0.92356998  1
  O  O508  1  0.41079420  0.35104148  0.17231135  1
  O  O509  1  0.41179002  0.35195783  0.42310915  1
  O  O510  1  0.41022110  0.35328288  0.67246720  1
  O  O511  1  0.41059211  0.35151988  0.92250299  1
  O  O512  1  0.41104837  0.68574795  0.17324225  1
  O  O513  1  0.41346142  0.68531724  0.42307141  1
  O  O514  1  0.41202321  0.68494362  0.67229717  1
  O  O515  1  0.41094711  0.68620832  0.92214325  1
  O  O516  1  0.91149212  0.01873128  0.17206267  1
  O  O517  1  0.91455343  0.01608575  0.42250189  1
  O  O518  1  0.91362249  0.01877109  0.67299962  1
  O  O519  1  0.91369374  0.01717227  0.92354581  1
  O  O520  1  0.91271438  0.35074901  0.17208141  1
  O  O521  1  0.91067566  0.35271392  0.42309671  1
  O  O522  1  0.91134404  0.35164925  0.67095697  1
  O  O523  1  0.91249884  0.35205085  0.92182387  1
  O  O524  1  0.91350030  0.68544217  0.17239411  1
  O  O525  1  0.91083413  0.68578065  0.42309963  1
  O  O526  1  0.91205034  0.68408013  0.67133798  1
  O  O527  1  0.91386778  0.68522005  0.92274586  1
  O  O528  1  0.16331932  0.01714498  0.20306794  1
  O  O529  1  0.16094650  0.01821386  0.45246923  1
  O  O530  1  0.16099204  0.01680685  0.70324008  1
  O  O531  1  0.16340946  0.01779567  0.95203283  1
  O  O532  1  0.16507640  0.35175477  0.20216794  1
  O  O533  1  0.16429971  0.35331379  0.45193723  1
  O  O534  1  0.16384333  0.35239137  0.70195652  1
  O  O535  1  0.16496265  0.35120827  0.95227340  1
  O  O536  1  0.16313667  0.68578169  0.20183400  1
  O  O537  1  0.16514839  0.68384050  0.45264722  1
  O  O538  1  0.16297242  0.68519631  0.70302909  1
  O  O539  1  0.16041091  0.68630849  0.95211276  1
  O  O540  1  0.66164339  0.01668931  0.20296393  1
  O  O541  1  0.66115991  0.01846804  0.45245544  1
  O  O542  1  0.66225660  0.01767366  0.70318973  1
  O  O543  1  0.66276770  0.01804315  0.95207079  1
  O  O544  1  0.66197030  0.35326631  0.20173806  1
  O  O545  1  0.66443478  0.35152829  0.45270520  1
  O  O546  1  0.66283921  0.35195235  0.70231490  1
  O  O547  1  0.66260639  0.35043111  0.95279555  1
  O  O548  1  0.66199249  0.68458094  0.20315968  1
  O  O549  1  0.66151498  0.68460335  0.45300700  1
  O  O550  1  0.66166564  0.68506659  0.70133151  1
  O  O551  1  0.66367966  0.68617752  0.95207029  1
  O  O552  1  0.33868859  0.31418056  0.04753814  1
  O  O553  1  0.33935499  0.31447073  0.29667076  1
  O  O554  1  0.33756483  0.31548933  0.54673630  1
  O  O555  1  0.33719408  0.31564462  0.79666018  1
  O  O556  1  0.33853515  0.64773701  0.04829995  1
  O  O557  1  0.33877938  0.64938563  0.29661441  1
  O  O558  1  0.33772229  0.64898517  0.54819220  1
  O  O559  1  0.33642206  0.64933289  0.79702146  1
  O  O560  1  0.33714952  0.98298011  0.04750083  1
  O  O561  1  0.33702216  0.98150272  0.29734283  1
  O  O562  1  0.33880315  0.98058098  0.54854956  1
  O  O563  1  0.33776511  0.98083356  0.79814655  1
  O  O564  1  0.83753244  0.31335234  0.04771996  1
  O  O565  1  0.83794834  0.31487708  0.29669188  1
  O  O566  1  0.83646362  0.31529412  0.54774664  1
  O  O567  1  0.83942562  0.31457511  0.79798575  1
  O  O568  1  0.83828315  0.65016812  0.04659062  1
  O  O569  1  0.83639890  0.64902996  0.29886654  1
  O  O570  1  0.83722898  0.64899316  0.54767386  1
  O  O571  1  0.83885874  0.64879557  0.79771368  1
  O  O572  1  0.83716580  0.98167400  0.04684191  1
  O  O573  1  0.83600253  0.98139925  0.29907971  1
  O  O574  1  0.83601369  0.98123764  0.54729227  1
  O  O575  1  0.83831233  0.98134216  0.79892005  1
  O  O576  1  0.41047927  0.14789860  0.17249815  1
  O  O577  1  0.41410823  0.14766148  0.42274335  1
  O  O578  1  0.41266905  0.14715336  0.67272429  1
  O  O579  1  0.41245065  0.14699400  0.92367066  1
  O  O580  1  0.41076763  0.48146055  0.17259231  1
  O  O581  1  0.41161044  0.48187623  0.42289693  1
  O  O582  1  0.41149206  0.48360872  0.67177104  1
  O  O583  1  0.41032654  0.48154361  0.92262529  1
  O  O584  1  0.41144870  0.81597635  0.17322524  1
  O  O585  1  0.41310493  0.81513765  0.42299696  1
  O  O586  1  0.41199156  0.81505930  0.67211411  1
  O  O587  1  0.41100899  0.81631109  0.92168136  1
  O  O588  1  0.91184646  0.14900764  0.17141623  1
  O  O589  1  0.91356533  0.14626919  0.42249450  1
  O  O590  1  0.91386749  0.14893674  0.67225796  1
  O  O591  1  0.91301522  0.14723153  0.92313006  1
  O  O592  1  0.91250256  0.48115003  0.17276963  1
  O  O593  1  0.91148896  0.48288967  0.42326954  1
  O  O594  1  0.91157259  0.48217733  0.67123360  1
  O  O595  1  0.91282278  0.48250855  0.92186285  1
  O  O596  1  0.91388778  0.81542982  0.17260161  1
  O  O597  1  0.91106713  0.81590406  0.42272233  1
  O  O598  1  0.91183694  0.81440025  0.67196423  1
  O  O599  1  0.91372815  0.81533715  0.92317394  1
  O  O600  1  0.08592183  0.18507811  0.07698614  1
  O  O601  1  0.08730335  0.18388957  0.32766096  1
  O  O602  1  0.08573611  0.18428999  0.57780223  1
  O  O603  1  0.08582301  0.18413905  0.82817563  1
  O  O604  1  0.08763431  0.51888515  0.07761820  1
  O  O605  1  0.08609281  0.51874425  0.32812989  1
  O  O606  1  0.08767006  0.51829405  0.57651438  1
  O  O607  1  0.08727416  0.51939169  0.82619072  1
  O  O608  1  0.08938838  0.85046408  0.07764481  1
  O  O609  1  0.08740925  0.85191683  0.32676972  1
  O  O610  1  0.08819084  0.85218289  0.57744458  1
  O  O611  1  0.08800914  0.85152836  0.82770667  1
  O  O612  1  0.58596287  0.18502452  0.07650432  1
  O  O613  1  0.58830655  0.18418872  0.32806089  1
  O  O614  1  0.58853161  0.18540047  0.57719269  1
  O  O615  1  0.58776997  0.18320892  0.82892712  1
  O  O616  1  0.58531891  0.51844663  0.07737312  1
  O  O617  1  0.58962345  0.51927555  0.32707959  1
  O  O618  1  0.58645730  0.51936141  0.57627154  1
  O  O619  1  0.58637428  0.51852579  0.82717093  1
  O  O620  1  0.58648413  0.85135973  0.07687901  1
  O  O621  1  0.58929938  0.85125682  0.32751699  1
  O  O622  1  0.58659669  0.85021735  0.57711878  1
  O  O623  1  0.58630482  0.85269843  0.82783487  1
  O  O624  1  0.33842942  0.18396380  0.04776361  1
  O  O625  1  0.33863423  0.18394416  0.29719029  1
  O  O626  1  0.33673957  0.18509344  0.54791278  1
  O  O627  1  0.33719543  0.18540236  0.79760248  1
  O  O628  1  0.33830545  0.51762939  0.04741639  1
  O  O629  1  0.33925456  0.51906310  0.29663994  1
  O  O630  1  0.33766393  0.51894982  0.54792387  1
  O  O631  1  0.33712152  0.51904484  0.79632157  1
  O  O632  1  0.33753138  0.85303444  0.04796119  1
  O  O633  1  0.33738416  0.85138730  0.29668086  1
  O  O634  1  0.33842687  0.85045276  0.54784838  1
  O  O635  1  0.33764790  0.85078756  0.79759422  1
  O  O636  1  0.83700660  0.18315872  0.04714231  1
  O  O637  1  0.83715824  0.18470191  0.29722085  1
  O  O638  1  0.83665590  0.18513738  0.54827825  1
  O  O639  1  0.83913250  0.18458699  0.79831763  1
  O  O640  1  0.83841996  0.51969211  0.04682475  1
  O  O641  1  0.83663715  0.51906065  0.29857756  1
  O  O642  1  0.83741523  0.51887600  0.54768611  1
  O  O643  1  0.83892670  0.51891555  0.79787342  1
  O  O644  1  0.83693683  0.85136387  0.04723128  1
  O  O645  1  0.83663322  0.85155302  0.29874244  1
  O  O646  1  0.83585628  0.85101731  0.54689601  1
  O  O647  1  0.83856566  0.85154623  0.79839649  1
  O  O648  1  0.16341305  0.14729052  0.20257863  1
  O  O649  1  0.16140649  0.14830691  0.45219592  1
  O  O650  1  0.16001168  0.14704790  0.70241848  1
  O  O651  1  0.16338101  0.14774282  0.95178188  1
  O  O652  1  0.16502189  0.48199150  0.20239062  1
  O  O653  1  0.16484788  0.48364173  0.45250776  1
  O  O654  1  0.16364279  0.48258795  0.70238336  1
  O  O655  1  0.16496136  0.48139527  0.95223700  1
  O  O656  1  0.16310694  0.81580653  0.20221027  1
  O  O657  1  0.16498052  0.81390169  0.45212484  1
  O  O658  1  0.16280102  0.81538096  0.70313727  1
  O  O659  1  0.16150320  0.81645496  0.95271458  1
  O  O660  1  0.66121752  0.14702909  0.20214772  1
  O  O661  1  0.66155368  0.14871108  0.45252080  1
  O  O662  1  0.66221037  0.14782056  0.70330104  1
  O  O663  1  0.66298304  0.14809019  0.95200719  1
  O  O664  1  0.66262264  0.48365213  0.20246162  1
  O  O665  1  0.66378657  0.48176197  0.45299297  1
  O  O666  1  0.66300316  0.48208016  0.70212150  1
  O  O667  1  0.66240838  0.48096618  0.95228841  1
  O  O668  1  0.66131553  0.81494604  0.20332578  1
  O  O669  1  0.66160371  0.81474464  0.45267621  1
  O  O670  1  0.66138300  0.81500529  0.70164831  1
  O  O671  1  0.66416877  0.81633405  0.95236294  1
