# generated using pymatgen
data_Na2MnFe(PO4)2
_symmetry_space_group_name_H-M   'P 1'
_cell_length_a   21.08008489
_cell_length_b   18.93153841
_cell_length_c   20.03979590
_cell_angle_alpha   89.99973791
_cell_angle_beta   90.00066055
_cell_angle_gamma   90.00043962
_symmetry_Int_Tables_number   1
_chemical_formula_structural   Na2MnFe(PO4)2
_chemical_formula_sum   'Na96 Mn48 Fe48 P96 O384'
_cell_volume   7997.45041772
_cell_formula_units_Z   48
loop_
 _symmetry_equiv_pos_site_id
 _symmetry_equiv_pos_as_xyz
  1  'x, y, z'
loop_
 _atom_site_type_symbol
 _atom_site_label
 _atom_site_symmetry_multiplicity
 _atom_site_fract_x
 _atom_site_fract_y
 _atom_site_fract_z
 _atom_site_occupancy
  Na  Na0  1  0.00159665  0.00065490  -0.00132366  1
  Na  Na1  1  0.00197768  0.00078731  0.25006932  1
  Na  Na2  1  0.00089003  0.00005579  0.50157379  1
  Na  Na3  1  -0.00009388  -0.00045193  0.74970026  1
  Na  Na4  1  0.00151689  0.33405931  -0.00013262  1
  Na  Na5  1  -0.00176201  0.33255782  0.25005085  1
  Na  Na6  1  -0.00027376  0.33306968  0.49972377  1
  Na  Na7  1  0.00234833  0.33379035  0.75117931  1
  Na  Na8  1  0.00069612  0.66710703  -0.00006129  1
  Na  Na9  1  -0.00000974  0.66643832  0.25020894  1
  Na  Na10  1  0.00129090  0.66713937  0.49984793  1
  Na  Na11  1  0.00008961  0.66612815  0.75017549  1
  Na  Na12  1  0.49815055  -0.00013739  0.00050009  1
  Na  Na13  1  0.49896195  0.00017313  0.24944825  1
  Na  Na14  1  0.50092829  0.00054926  0.49927936  1
  Na  Na15  1  0.49975652  -0.00016273  0.75095311  1
  Na  Na16  1  0.49840606  0.33388749  -0.00032100  1
  Na  Na17  1  0.49896984  0.33367194  0.25001215  1
  Na  Na18  1  0.50126620  0.33434547  0.49959674  1
  Na  Na19  1  0.49867002  0.33322156  0.75011428  1
  Na  Na20  1  0.50047176  0.66725098  -0.00068323  1
  Na  Na21  1  0.50113328  0.66704329  0.24962745  1
  Na  Na22  1  0.49932353  0.66645387  0.50138122  1
  Na  Na23  1  0.49959240  0.66735825  0.74956404  1
  Na  Na24  1  0.25114154  0.00078709  0.12432571  1
  Na  Na25  1  0.24908371  0.00035058  0.37478969  1
  Na  Na26  1  0.24845866  -0.00037147  0.62536949  1
  Na  Na27  1  0.25058393  -0.00009893  0.87577055  1
  Na  Na28  1  0.25010939  0.33362458  0.12410266  1
  Na  Na29  1  0.25085600  0.33429094  0.37567955  1
  Na  Na30  1  0.25011818  0.33386759  0.62600965  1
  Na  Na31  1  0.24899902  0.33316170  0.87461746  1
  Na  Na32  1  0.24778841  0.66578558  0.12456993  1
  Na  Na33  1  0.24819800  0.66651279  0.37513154  1
  Na  Na34  1  0.24930668  0.66716103  0.62558900  1
  Na  Na35  1  0.25056479  0.66719209  0.87424298  1
  Na  Na36  1  0.74875621  -0.00076443  0.12371691  1
  Na  Na37  1  0.75021801  -0.00008182  0.37585402  1
  Na  Na38  1  0.75092742  0.00033696  0.62499516  1
  Na  Na39  1  0.75110830  0.00044512  0.87484909  1
  Na  Na40  1  0.75173986  0.33388675  0.12616407  1
  Na  Na41  1  0.75060409  0.33365573  0.37603392  1
  Na  Na42  1  0.74857103  0.33299682  0.62457640  1
  Na  Na43  1  0.75039113  0.33326258  0.87342923  1
  Na  Na44  1  0.75024993  0.66627657  0.12335926  1
  Na  Na45  1  0.75269518  0.66756853  0.37569326  1
  Na  Na46  1  0.75018665  0.66703631  0.62514276  1
  Na  Na47  1  0.74867816  0.66651618  0.87537952  1
  Na  Na48  1  0.00339922  0.16545621  -0.00165562  1
  Na  Na49  1  0.00109098  0.16698881  0.25018076  1
  Na  Na50  1  0.00116256  0.16715890  0.50115742  1
  Na  Na51  1  0.00096221  0.16752355  0.75088733  1
  Na  Na52  1  -0.00019630  0.50044372  0.00089184  1
  Na  Na53  1  -0.00067441  0.50077357  0.24964033  1
  Na  Na54  1  0.00144211  0.49967068  0.49927105  1
  Na  Na55  1  0.00140700  0.49973405  0.75072941  1
  Na  Na56  1  -0.00035758  0.83313128  -0.00093062  1
  Na  Na57  1  -0.00090051  0.83308162  0.25028953  1
  Na  Na58  1  -0.00027675  0.83258170  0.50072392  1
  Na  Na59  1  0.00107224  0.83180305  0.74959149  1
  Na  Na60  1  0.49893359  0.16709038  0.00032448  1
  Na  Na61  1  0.49945114  0.16721406  0.25015979  1
  Na  Na62  1  0.50261772  0.16591821  0.49893751  1
  Na  Na63  1  0.49963329  0.16724693  0.75091970  1
  Na  Na64  1  0.49705840  0.50047665  -0.00044310  1
  Na  Na65  1  0.49935333  0.49923749  0.24954680  1
  Na  Na66  1  0.50034368  0.49935266  0.50088655  1
  Na  Na67  1  0.49927515  0.49966413  0.74949390  1
  Na  Na68  1  0.50062771  0.83224100  -0.00061369  1
  Na  Na69  1  0.50059880  0.83254157  0.24946108  1
  Na  Na70  1  0.49895861  0.83306623  0.50062561  1
  Na  Na71  1  0.49897699  0.83306031  0.75033294  1
  Na  Na72  1  0.24886378  0.16695639  0.12441692  1
  Na  Na73  1  0.24894134  0.16672751  0.37450604  1
  Na  Na74  1  0.24759204  0.16758556  0.62589144  1
  Na  Na75  1  0.24923650  0.16659407  0.87506238  1
  Na  Na76  1  0.24999786  0.50034996  0.12367215  1
  Na  Na77  1  0.24944156  0.49992320  0.37597311  1
  Na  Na78  1  0.24979792  0.49969191  0.62576681  1
  Na  Na79  1  0.25160791  0.49944812  0.87462429  1
  Na  Na80  1  0.25026402  0.83269882  0.12494086  1
  Na  Na81  1  0.24961481  0.83263300  0.37515465  1
  Na  Na82  1  0.24987575  0.83248792  0.62537041  1
  Na  Na83  1  0.25029526  0.83254724  0.87469615  1
  Na  Na84  1  0.74961446  0.16739601  0.12490060  1
  Na  Na85  1  0.75122688  0.16691668  0.37605278  1
  Na  Na86  1  0.75077750  0.16705956  0.62488730  1
  Na  Na87  1  0.74952198  0.16731540  0.87388608  1
  Na  Na88  1  0.75220695  0.49914349  0.12496535  1
  Na  Na89  1  0.75119804  0.49935717  0.37607040  1
  Na  Na90  1  0.74772826  0.50132812  0.62420253  1
  Na  Na91  1  0.75069880  0.49962199  0.87464230  1
  Na  Na92  1  0.74892876  0.83349727  0.12333606  1
  Na  Na93  1  0.75158869  0.83183854  0.37530042  1
  Na  Na94  1  0.74980089  0.83260867  0.62616748  1
  Na  Na95  1  0.74983658  0.83262793  0.87504091  1
  Mn  Mn96  1  0.64318863  0.58342295  0.24812503  1
  Mn  Mn97  1  0.14201005  0.25089581  0.24774172  1
  Mn  Mn98  1  0.10752463  0.08356526  0.62311447  1
  Mn  Mn99  1  0.39197947  0.58337455  0.62711236  1
  Mn  Mn100  1  0.60824928  0.74928508  0.37288108  1
  Mn  Mn101  1  0.85787726  0.41708973  0.50291882  1
  Mn  Mn102  1  0.85808686  0.41724620  0.75176995  1
  Mn  Mn103  1  0.89252899  0.91692765  0.37740873  1
  Mn  Mn104  1  0.89185854  0.91726430  0.12675403  1
  Mn  Mn105  1  0.85821621  0.08420773  0.00185712  1
  Mn  Mn106  1  0.64194312  0.58220481  0.99712730  1
  Mn  Mn107  1  0.39206068  0.91739264  0.62722891  1
  Mn  Mn108  1  0.39240465  0.24926397  0.62632704  1
  Mn  Mn109  1  0.60810739  0.41694654  0.12261836  1
  Mn  Mn110  1  0.35772304  0.74946855  0.25248300  1
  Mn  Mn111  1  0.39193036  0.25019659  0.37777681  1
  Mn  Mn112  1  0.64228051  0.91646902  0.74818163  1
  Mn  Mn113  1  0.14193162  0.91676411  0.49745973  1
  Mn  Mn114  1  0.60819390  0.08349058  0.37185075  1
  Mn  Mn115  1  0.60697858  0.41722451  0.87305075  1
  Mn  Mn116  1  0.64215287  0.58322512  0.49727119  1
  Mn  Mn117  1  0.85719482  0.74976394  0.00134136  1
  Mn  Mn118  1  0.39164531  0.91623903  0.37723354  1
  Mn  Mn119  1  0.89276946  0.24924030  0.12626621  1
  Mn  Mn120  1  0.64230857  0.91664412  0.49792532  1
  Mn  Mn121  1  0.89264269  0.91675851  0.62820440  1
  Mn  Mn122  1  0.35741230  0.08366252  0.50277092  1
  Mn  Mn123  1  0.39249875  0.91638648  0.12701010  1
  Mn  Mn124  1  0.10787315  0.41670497  0.37228109  1
  Mn  Mn125  1  0.89237975  0.58359602  0.12716596  1
  Mn  Mn126  1  0.64314129  0.25014457  0.24794946  1
  Mn  Mn127  1  0.85899368  0.08310340  0.25234276  1
  Mn  Mn128  1  0.60686830  0.08312985  0.87310386  1
  Mn  Mn129  1  0.14251287  0.58345601  0.74803273  1
  Mn  Mn130  1  0.60749138  0.08337326  0.12266601  1
  Mn  Mn131  1  0.39133722  0.58355468  0.37727999  1
  Mn  Mn132  1  0.39140360  0.25015083  0.12696342  1
  Mn  Mn133  1  0.14249283  0.91607615  0.99700559  1
  Mn  Mn134  1  0.89339000  0.25020196  0.87751693  1
  Mn  Mn135  1  0.35769697  0.08319755  0.75216751  1
  Mn  Mn136  1  0.85842779  0.08305664  0.50249416  1
  Mn  Mn137  1  0.10770828  0.75075323  0.12258126  1
  Mn  Mn138  1  0.89290345  0.58231930  0.62759440  1
  Mn  Mn139  1  0.10792969  0.41622178  0.12280900  1
  Mn  Mn140  1  0.64184995  0.25032212  0.74741426  1
  Mn  Mn141  1  0.39148615  0.58378224  0.12725712  1
  Mn  Mn142  1  0.14186776  0.91638661  0.24740232  1
  Mn  Mn143  1  0.64244624  0.91615463  0.24771751  1
  Fe  Fe144  1  0.10850143  0.08304737  0.12303963  1
  Fe  Fe145  1  0.35698046  0.41691916  0.50182278  1
  Fe  Fe146  1  0.85752401  0.74965823  0.25162681  1
  Fe  Fe147  1  0.10786427  0.41727873  0.87362650  1
  Fe  Fe148  1  0.35710104  0.74966224  0.00145471  1
  Fe  Fe149  1  0.60694562  0.41703667  0.37302879  1
  Fe  Fe150  1  0.14222221  0.25077507  0.49850133  1
  Fe  Fe151  1  0.35651861  0.08395021  0.25165588  1
  Fe  Fe152  1  0.14323483  0.24986818  0.74838910  1
  Fe  Fe153  1  0.85792684  0.41705095  0.25263122  1
  Fe  Fe154  1  0.14282475  0.58315021  0.99761111  1
  Fe  Fe155  1  0.89320589  0.24998385  0.37727964  1
  Fe  Fe156  1  0.60665477  0.41642411  0.62331645  1
  Fe  Fe157  1  0.39190305  0.91642828  0.87708361  1
  Fe  Fe158  1  0.35640613  0.74955953  0.50157293  1
  Fe  Fe159  1  0.39147238  0.24992945  0.87721348  1
  Fe  Fe160  1  0.14273363  0.91648193  0.74925612  1
  Fe  Fe161  1  0.60605277  0.74972807  0.87285129  1
  Fe  Fe162  1  0.10831120  0.41697794  0.62337427  1
  Fe  Fe163  1  0.64210154  0.91749864  0.99725022  1
  Fe  Fe164  1  0.85768778  0.08303618  0.75194356  1
  Fe  Fe165  1  0.10805010  0.08251961  0.87256062  1
  Fe  Fe166  1  0.10750582  0.74919404  0.62318101  1
  Fe  Fe167  1  0.14279862  0.58304218  0.49836063  1
  Fe  Fe168  1  0.64238487  0.25015132  0.99837507  1
  Fe  Fe169  1  0.85801841  0.41602413  0.00086134  1
  Fe  Fe170  1  0.10748651  0.74997048  0.87309374  1
  Fe  Fe171  1  0.14227482  0.58294975  0.24854603  1
  Fe  Fe172  1  0.35711011  0.41673126  0.25187032  1
  Fe  Fe173  1  0.85816517  0.74991574  0.50233286  1
  Fe  Fe174  1  0.89359942  0.58337433  0.37671566  1
  Fe  Fe175  1  0.14314769  0.25068211  0.99794953  1
  Fe  Fe176  1  0.35708540  0.74997599  0.75186275  1
  Fe  Fe177  1  0.89345178  0.25063853  0.62679189  1
  Fe  Fe178  1  0.10687592  0.75031243  0.37355369  1
  Fe  Fe179  1  0.60797753  0.74976466  0.12301897  1
  Fe  Fe180  1  0.60847762  0.08339818  0.62377261  1
  Fe  Fe181  1  0.39235535  0.58373381  0.87651835  1
  Fe  Fe182  1  0.10747639  0.08314138  0.37339316  1
  Fe  Fe183  1  0.35633009  0.08347924  0.00156254  1
  Fe  Fe184  1  0.60709183  0.75024048  0.62337410  1
  Fe  Fe185  1  0.64323510  0.25006447  0.49845881  1
  Fe  Fe186  1  0.85726386  0.74991631  0.75210203  1
  Fe  Fe187  1  0.89341583  0.91619115  0.87588726  1
  Fe  Fe188  1  0.35707623  0.41672273  0.75192994  1
  Fe  Fe189  1  0.89282812  0.58342222  0.87618310  1
  Fe  Fe190  1  0.64215812  0.58343385  0.74895010  1
  Fe  Fe191  1  0.35616924  0.41684771  0.00121765  1
  P  P192  1  0.05452184  0.24929980  0.10887560  1
  P  P193  1  0.05355880  0.24967036  0.36134745  1
  P  P194  1  0.05462577  0.25125997  0.61107191  1
  P  P195  1  0.05651613  0.25040356  0.86097282  1
  P  P196  1  0.05540105  0.58331032  0.11021733  1
  P  P197  1  0.05432520  0.58402718  0.36067503  1
  P  P198  1  0.05461857  0.58311535  0.60967953  1
  P  P199  1  0.05385121  0.58336435  0.86146959  1
  P  P200  1  0.05321820  0.91726384  0.10919224  1
  P  P201  1  0.05344933  0.91642968  0.36041590  1
  P  P202  1  0.05488566  0.91538302  0.61175562  1
  P  P203  1  0.05331820  0.91606743  0.85919436  1
  P  P204  1  0.55367564  0.25058194  0.10925419  1
  P  P205  1  0.55461006  0.25140427  0.36087159  1
  P  P206  1  0.55405418  0.25016514  0.60944296  1
  P  P207  1  0.55249840  0.25042723  0.86134175  1
  P  P208  1  0.55328936  0.58352688  0.10968646  1
  P  P209  1  0.55288824  0.58231881  0.35986012  1
  P  P210  1  0.55478026  0.58352107  0.61173129  1
  P  P211  1  0.55206516  0.58375610  0.85930656  1
  P  P212  1  0.55425385  0.91598650  0.10899752  1
  P  P213  1  0.55302499  0.91618602  0.35953961  1
  P  P214  1  0.55360125  0.91647565  0.61049446  1
  P  P215  1  0.55254261  0.91607007  0.86131638  1
  P  P216  1  0.44434454  0.08371118  0.13956381  1
  P  P217  1  0.44532951  0.08352446  0.38901170  1
  P  P218  1  0.44870408  0.08369814  0.64015015  1
  P  P219  1  0.44501695  0.08345539  0.89075019  1
  P  P220  1  0.44431390  0.41680980  0.13936578  1
  P  P221  1  0.44552319  0.41706292  0.38997288  1
  P  P222  1  0.44537896  0.41634924  0.63929340  1
  P  P223  1  0.44380900  0.41684120  0.88901586  1
  P  P224  1  0.44684265  0.74981298  0.13874029  1
  P  P225  1  0.44611205  0.74940887  0.39126794  1
  P  P226  1  0.44540554  0.75007592  0.63958890  1
  P  P227  1  0.44507139  0.74969792  0.88897549  1
  P  P228  1  0.94892166  0.08352636  0.13957361  1
  P  P229  1  0.94853638  0.08400308  0.39056592  1
  P  P230  1  0.94621338  0.08471605  0.64113084  1
  P  P231  1  0.94722687  0.08242052  0.88823344  1
  P  P232  1  0.94521098  0.41634257  0.13949904  1
  P  P233  1  0.94564634  0.41697184  0.38895340  1
  P  P234  1  0.94890193  0.41602080  0.64020244  1
  P  P235  1  0.94778231  0.41753828  0.89035603  1
  P  P236  1  0.94596020  0.75014658  0.14032075  1
  P  P237  1  0.94616508  0.74909016  0.38960767  1
  P  P238  1  0.94640846  0.74917266  0.63992910  1
  P  P239  1  0.94655159  0.74975033  0.88827241  1
  P  P240  1  0.19589021  0.08355716  0.23522610  1
  P  P241  1  0.19557950  0.08458183  0.48461911  1
  P  P242  1  0.19542449  0.08281729  0.73662435  1
  P  P243  1  0.19583420  0.08370247  0.98535694  1
  P  P244  1  0.19782381  0.41755953  0.23481752  1
  P  P245  1  0.19618578  0.41680788  0.48663405  1
  P  P246  1  0.19606430  0.41626008  0.73614686  1
  P  P247  1  0.19688504  0.41711936  0.98440410  1
  P  P248  1  0.19523834  0.74906606  0.23610074  1
  P  P249  1  0.19549997  0.74897775  0.48584492  1
  P  P250  1  0.19574735  0.75073244  0.73590789  1
  P  P251  1  0.19701908  0.74919526  0.98409195  1
  P  P252  1  0.69769984  0.08333004  0.23460143  1
  P  P253  1  0.69570213  0.08418905  0.48629365  1
  P  P254  1  0.69751939  0.08323282  0.73475764  1
  P  P255  1  0.69638504  0.08401675  0.98455901  1
  P  P256  1  0.69746810  0.41706984  0.23643902  1
  P  P257  1  0.69458310  0.41581537  0.48579690  1
  P  P258  1  0.69574933  0.41785087  0.73434511  1
  P  P259  1  0.69807286  0.41539340  0.98459904  1
  P  P260  1  0.69797361  0.74933970  0.23402563  1
  P  P261  1  0.69711536  0.74993993  0.48625784  1
  P  P262  1  0.69547276  0.74903210  0.73615587  1
  P  P263  1  0.69391098  0.75045938  0.98482639  1
  P  P264  1  0.30303432  0.25009512  0.01329902  1
  P  P265  1  0.30311867  0.25043792  0.26485969  1
  P  P266  1  0.30153549  0.25069907  0.51532367  1
  P  P267  1  0.30300750  0.25040041  0.76523758  1
  P  P268  1  0.30338392  0.58384986  0.01304083  1
  P  P269  1  0.30159690  0.58248468  0.26503564  1
  P  P270  1  0.30191417  0.58346559  0.51520463  1
  P  P271  1  0.30408623  0.58349280  0.76518527  1
  P  P272  1  0.30465751  0.91599581  0.01360607  1
  P  P273  1  0.30305658  0.91728763  0.26480012  1
  P  P274  1  0.30278592  0.91585485  0.51523036  1
  P  P275  1  0.30279163  0.91595846  0.76548262  1
  P  P276  1  0.80241065  0.25086842  0.01451446  1
  P  P277  1  0.80499278  0.25049572  0.26604632  1
  P  P278  1  0.80474420  0.25023591  0.51501854  1
  P  P279  1  0.80507734  0.24982749  0.76352279  1
  P  P280  1  0.80489349  0.58223822  0.01313362  1
  P  P281  1  0.80467007  0.58356316  0.26573627  1
  P  P282  1  0.80505472  0.58407001  0.51423382  1
  P  P283  1  0.80276503  0.58418808  0.76533596  1
  P  P284  1  0.80338252  0.91671009  0.01292712  1
  P  P285  1  0.80344565  0.91568225  0.26490935  1
  P  P286  1  0.80398008  0.91554247  0.51563529  1
  P  P287  1  0.80420222  0.91630991  0.76569367  1
  O  O288  1  0.05687771  0.25052838  0.18574990  1
  O  O289  1  0.05822299  0.25078250  0.43803632  1
  O  O290  1  0.05940299  0.25074081  0.68779752  1
  O  O291  1  0.06042381  0.25042714  0.93779683  1
  O  O292  1  0.05936684  0.58292612  0.18703227  1
  O  O293  1  0.05907518  0.58306451  0.43737575  1
  O  O294  1  0.05729192  0.58313565  0.68651869  1
  O  O295  1  0.05839012  0.58351073  0.93817395  1
  O  O296  1  0.05621912  0.91640766  0.18597649  1
  O  O297  1  0.05592961  0.91612004  0.43725136  1
  O  O298  1  0.05893479  0.91583984  0.68845683  1
  O  O299  1  0.05672300  0.91614888  0.93593956  1
  O  O300  1  0.55726205  0.25071424  0.18606228  1
  O  O301  1  0.55901164  0.25054909  0.43756520  1
  O  O302  1  0.55602813  0.25024238  0.68638593  1
  O  O303  1  0.55778971  0.25071203  0.93793540  1
  O  O304  1  0.55684659  0.58272054  0.18643649  1
  O  O305  1  0.55594693  0.58294379  0.43669478  1
  O  O306  1  0.55826633  0.58364952  0.68846053  1
  O  O307  1  0.55581381  0.58276300  0.93602742  1
  O  O308  1  0.55699028  0.91671255  0.18583981  1
  O  O309  1  0.55635530  0.91628653  0.43635205  1
  O  O310  1  0.55622366  0.91628334  0.68733956  1
  O  O311  1  0.55748619  0.91694883  0.93793500  1
  O  O312  1  0.43959775  0.08398982  0.06279880  1
  O  O313  1  0.44031084  0.08388843  0.31225946  1
  O  O314  1  0.44450406  0.08375882  0.56346217  1
  O  O315  1  0.44271626  0.08351922  0.81387687  1
  O  O316  1  0.43926081  0.41688458  0.06259204  1
  O  O317  1  0.44055919  0.41700804  0.31323838  1
  O  O318  1  0.44034539  0.41664149  0.56256891  1
  O  O319  1  0.44031362  0.41642850  0.81213808  1
  O  O320  1  0.44151242  0.74941623  0.06210449  1
  O  O321  1  0.44304914  0.74920426  0.31439754  1
  O  O322  1  0.44013590  0.74968166  0.56295844  1
  O  O323  1  0.44058657  0.75002674  0.81222814  1
  O  O324  1  0.94478665  0.08361410  0.06282533  1
  O  O325  1  0.94516534  0.08357525  0.31381926  1
  O  O326  1  0.94357375  0.08379582  0.56430356  1
  O  O327  1  0.94205010  0.08330905  0.81164210  1
  O  O328  1  0.94132197  0.41632430  0.06270030  1
  O  O329  1  0.94196068  0.41710537  0.31215159  1
  O  O330  1  0.94466803  0.41662983  0.56352474  1
  O  O331  1  0.94401676  0.41687864  0.81365161  1
  O  O332  1  0.94260180  0.74992771  0.06348526  1
  O  O333  1  0.94166506  0.74964800  0.31292698  1
  O  O334  1  0.94180322  0.74950909  0.56319872  1
  O  O335  1  0.94191090  0.74931780  0.81159700  1
  O  O336  1  0.19173318  0.08288737  0.06212280  1
  O  O337  1  0.19087879  0.08335626  0.31191877  1
  O  O338  1  0.19254687  0.08369116  0.56148116  1
  O  O339  1  0.19202240  0.08244991  0.81344581  1
  O  O340  1  0.19364750  0.41702756  0.06110840  1
  O  O341  1  0.19410057  0.41689818  0.31158185  1
  O  O342  1  0.19202896  0.41661115  0.56336633  1
  O  O343  1  0.19145868  0.41731202  0.81279289  1
  O  O344  1  0.19333479  0.75012761  0.06081133  1
  O  O345  1  0.19092392  0.75005742  0.31285263  1
  O  O346  1  0.19133979  0.74970539  0.56261349  1
  O  O347  1  0.19089231  0.74992375  0.81259785  1
  O  O348  1  0.69340733  0.08366031  0.06131326  1
  O  O349  1  0.69466826  0.08343773  0.31145069  1
  O  O350  1  0.69167770  0.08356287  0.56307948  1
  O  O351  1  0.69303885  0.08333639  0.81143094  1
  O  O352  1  0.69465176  0.41630174  0.06133452  1
  O  O353  1  0.69213637  0.41716905  0.31303409  1
  O  O354  1  0.69020369  0.41676341  0.56254737  1
  O  O355  1  0.69270854  0.41692362  0.81114423  1
  O  O356  1  0.69045068  0.74958219  0.06164874  1
  O  O357  1  0.69439014  0.74923467  0.31081396  1
  O  O358  1  0.69172800  0.74979536  0.56290510  1
  O  O359  1  0.69011805  0.74970876  0.81284258  1
  O  O360  1  0.30555513  0.25014438  0.18804354  1
  O  O361  1  0.30543865  0.25005696  0.43864712  1
  O  O362  1  0.30666437  0.24975492  0.68854103  1
  O  O363  1  0.30719402  0.24981312  0.93660761  1
  O  O364  1  0.30514669  0.58344504  0.18828256  1
  O  O365  1  0.30509022  0.58351103  0.43852535  1
  O  O366  1  0.30656408  0.58358611  0.68835589  1
  O  O367  1  0.30803559  0.58415312  0.93640549  1
  O  O368  1  0.30622933  0.91655999  0.18796764  1
  O  O369  1  0.30569186  0.91648549  0.43846459  1
  O  O370  1  0.30625642  0.91666579  0.68873564  1
  O  O371  1  0.30837045  0.91588054  0.93679674  1
  O  O372  1  0.80768692  0.24957487  0.18921459  1
  O  O373  1  0.80984363  0.25016923  0.43831750  1
  O  O374  1  0.80937387  0.25081754  0.68679917  1
  O  O375  1  0.80649733  0.25003546  0.93777682  1
  O  O376  1  0.80681130  0.58335936  0.18884791  1
  O  O377  1  0.80977169  0.58333552  0.43756117  1
  O  O378  1  0.80656569  0.58354252  0.68859861  1
  O  O379  1  0.80917531  0.58325994  0.93638402  1
  O  O380  1  0.80587763  0.91667959  0.18805502  1
  O  O381  1  0.80707962  0.91608687  0.43881998  1
  O  O382  1  0.80696572  0.91617550  0.68888351  1
  O  O383  1  0.80912606  0.91657029  0.93632815  1
  O  O384  1  0.23277691  0.25049483  0.03757781  1
  O  O385  1  0.23357644  0.25073468  0.29056317  1
  O  O386  1  0.23155708  0.25074156  0.54005210  1
  O  O387  1  0.23280166  0.24989624  0.78947364  1
  O  O388  1  0.23306258  0.58344709  0.03697805  1
  O  O389  1  0.23173771  0.58284598  0.29012556  1
  O  O390  1  0.23205536  0.58327252  0.54046076  1
  O  O391  1  0.23431442  0.58330421  0.79027685  1
  O  O392  1  0.23474838  0.91627519  0.03824724  1
  O  O393  1  0.23340735  0.91669070  0.29002057  1
  O  O394  1  0.23312274  0.91612503  0.54047984  1
  O  O395  1  0.23273589  0.91629176  0.79015386  1
  O  O396  1  0.73256984  0.25061043  0.03948708  1
  O  O397  1  0.73531275  0.25027621  0.29132682  1
  O  O398  1  0.73424768  0.25033626  0.53814214  1
  O  O399  1  0.73487373  0.25029437  0.78745150  1
  O  O400  1  0.73489407  0.58253530  0.03739813  1
  O  O401  1  0.73520670  0.58338615  0.29174429  1
  O  O402  1  0.73489847  0.58366294  0.53792879  1
  O  O403  1  0.73261071  0.58342294  0.78972667  1
  O  O404  1  0.73285789  0.91665561  0.03591413  1
  O  O405  1  0.73409698  0.91583553  0.29105546  1
  O  O406  1  0.73438993  0.91620600  0.54096152  1
  O  O407  1  0.73438324  0.91631699  0.79068408  1
  O  O408  1  0.26625962  0.08396051  0.21165079  1
  O  O409  1  0.26528773  0.08364604  0.45962626  1
  O  O410  1  0.26522321  0.08338863  0.71150277  1
  O  O411  1  0.26624498  0.08309917  0.96163749  1
  O  O412  1  0.26762319  0.41700795  0.20971948  1
  O  O413  1  0.26640461  0.41706061  0.46238581  1
  O  O414  1  0.26657219  0.41699103  0.71266683  1
  O  O415  1  0.26700528  0.41682077  0.95980641  1
  O  O416  1  0.26516176  0.74923325  0.21155829  1
  O  O417  1  0.26579010  0.74936173  0.46176807  1
  O  O418  1  0.26629245  0.74981540  0.71262278  1
  O  O419  1  0.26716334  0.74966049  0.95982519  1
  O  O420  1  0.76728011  0.08329052  0.20915739  1
  O  O421  1  0.76575152  0.08365429  0.46205788  1
  O  O422  1  0.76777981  0.08325947  0.71088225  1
  O  O423  1  0.76606644  0.08395256  0.95919018  1
  O  O424  1  0.76795829  0.41698714  0.21319331  1
  O  O425  1  0.76488346  0.41651437  0.46238329  1
  O  O426  1  0.76552494  0.41733584  0.70920355  1
  O  O427  1  0.76794635  0.41604915  0.95939880  1
  O  O428  1  0.76793249  0.74957098  0.20920326  1
  O  O429  1  0.76752154  0.74971385  0.46287111  1
  O  O430  1  0.76612817  0.74988863  0.71321395  1
  O  O431  1  0.76406707  0.74969292  0.96075425  1
  O  O432  1  0.01893455  0.08377892  0.16408264  1
  O  O433  1  0.01838904  0.08348851  0.41578793  1
  O  O434  1  0.01600957  0.08392898  0.66603987  1
  O  O435  1  0.01783449  0.08286574  0.91134194  1
  O  O436  1  0.01525650  0.41646939  0.16380005  1
  O  O437  1  0.01564503  0.41676955  0.41339053  1
  O  O438  1  0.01897058  0.41678278  0.66463261  1
  O  O439  1  0.01799148  0.41714390  0.91463198  1
  O  O440  1  0.01577603  0.74977716  0.16495309  1
  O  O441  1  0.01658028  0.74975768  0.41340901  1
  O  O442  1  0.01691233  0.74867672  0.66324657  1
  O  O443  1  0.01689892  0.75009611  0.91232854  1
  O  O444  1  0.51456143  0.08375329  0.16315283  1
  O  O445  1  0.51556753  0.08350668  0.41235044  1
  O  O446  1  0.51868101  0.08369402  0.66485932  1
  O  O447  1  0.51465549  0.08345422  0.91619250  1
  O  O448  1  0.51457998  0.41649718  0.16271681  1
  O  O449  1  0.51587727  0.41701332  0.41343280  1
  O  O450  1  0.51586643  0.41645210  0.66255696  1
  O  O451  1  0.51380344  0.41716734  0.91359734  1
  O  O452  1  0.51725338  0.74999795  0.16220757  1
  O  O453  1  0.51583593  0.74944571  0.41624842  1
  O  O454  1  0.51589384  0.75008849  0.66285982  1
  O  O455  1  0.51555004  0.74956522  0.91252823  1
  O  O456  1  0.48367587  0.25055661  0.08500011  1
  O  O457  1  0.48455761  0.25090702  0.33668302  1
  O  O458  1  0.48456017  0.25009362  0.58342253  1
  O  O459  1  0.48200954  0.25020117  0.83800254  1
  O  O460  1  0.48350869  0.58356857  0.08475503  1
  O  O461  1  0.48334524  0.58292525  0.33439644  1
  O  O462  1  0.48482346  0.58314729  0.58693679  1
  O  O463  1  0.48191425  0.58357006  0.83500619  1
  O  O464  1  0.48446361  0.91607830  0.08401877  1
  O  O465  1  0.48339568  0.91605995  0.33432163  1
  O  O466  1  0.48405937  0.91662535  0.58479062  1
  O  O467  1  0.48211153  0.91639891  0.83770991  1
  O  O468  1  0.98503141  0.24953482  0.08308308  1
  O  O469  1  0.98335947  0.25001886  0.33728236  1
  O  O470  1  0.98425941  0.25031714  0.58736702  1
  O  O471  1  0.98634385  0.25041251  0.83705173  1
  O  O472  1  0.98527823  0.58379384  0.08638021  1
  O  O473  1  0.98395567  0.58345106  0.33703027  1
  O  O474  1  0.98500241  0.58321687  0.58431174  1
  O  O475  1  0.98363262  0.58311412  0.83715774  1
  O  O476  1  0.98372220  0.91703603  0.08353855  1
  O  O477  1  0.98398732  0.91671319  0.33458312  1
  O  O478  1  0.98491429  0.91630196  0.58734002  1
  O  O479  1  0.98328127  0.91584874  0.83447483  1
  O  O480  1  0.08914226  0.31426859  0.07648027  1
  O  O481  1  0.08694836  0.31456895  0.32751947  1
  O  O482  1  0.08761227  0.31643597  0.57757631  1
  O  O483  1  0.08996995  0.31560745  0.82801611  1
  O  O484  1  0.08932914  0.64812091  0.07707780  1
  O  O485  1  0.08743968  0.64932959  0.32773281  1
  O  O486  1  0.08898645  0.64822088  0.57747650  1
  O  O487  1  0.08714001  0.64839082  0.82799831  1
  O  O488  1  0.08760535  0.98237830  0.07728224  1
  O  O489  1  0.08783885  0.98164613  0.32856106  1
  O  O490  1  0.08875136  0.98035947  0.57877556  1
  O  O491  1  0.08741828  0.98109518  0.82657063  1
  O  O492  1  0.58765572  0.31551602  0.07632938  1
  O  O493  1  0.58772757  0.31694126  0.32805938  1
  O  O494  1  0.58841979  0.31541362  0.57754110  1
  O  O495  1  0.58561920  0.31540132  0.82758046  1
  O  O496  1  0.58741597  0.64860343  0.07746734  1
  O  O497  1  0.58744505  0.64728539  0.32760044  1
  O  O498  1  0.58818437  0.64883776  0.57875386  1
  O  O499  1  0.58603797  0.64888917  0.82684890  1
  O  O500  1  0.58833901  0.98110570  0.07629903  1
  O  O501  1  0.58709504  0.98123706  0.32702945  1
  O  O502  1  0.58788482  0.98165417  0.57850585  1
  O  O503  1  0.58600608  0.98095388  0.82772699  1
  O  O504  1  0.41086865  0.01861149  0.17263535  1
  O  O505  1  0.41209512  0.01840140  0.42230718  1
  O  O506  1  0.41461534  0.01873530  0.67290655  1
  O  O507  1  0.41063155  0.01831614  0.92277230  1
  O  O508  1  0.41069403  0.35192058  0.17274298  1
  O  O509  1  0.41194083  0.35217581  0.42353567  1
  O  O510  1  0.41206855  0.35130099  0.67259208  1
  O  O511  1  0.41009278  0.35186164  0.92217300  1
  O  O512  1  0.41364299  0.68488001  0.17252140  1
  O  O513  1  0.41180290  0.68441671  0.42385762  1
  O  O514  1  0.41206625  0.68508173  0.67318066  1
  O  O515  1  0.41188987  0.68443409  0.92223961  1
  O  O516  1  0.91520948  0.01843557  0.17238945  1
  O  O517  1  0.91437247  0.01893420  0.42312717  1
  O  O518  1  0.91161548  0.01990547  0.67368705  1
  O  O519  1  0.91437319  0.01713532  0.92142699  1
  O  O520  1  0.91158364  0.35128280  0.17238419  1
  O  O521  1  0.91198504  0.35189694  0.42188823  1
  O  O522  1  0.91535929  0.35093884  0.67298751  1
  O  O523  1  0.91385109  0.35253050  0.92341548  1
  O  O524  1  0.91179115  0.68524939  0.17307002  1
  O  O525  1  0.91317155  0.68380439  0.42291403  1
  O  O526  1  0.91279880  0.68429074  0.67322641  1
  O  O527  1  0.91338677  0.68468291  0.92179109  1
  O  O528  1  0.16272771  0.01851619  0.20155313  1
  O  O529  1  0.16085487  0.01986949  0.45191801  1
  O  O530  1  0.16194903  0.01762982  0.70383818  1
  O  O531  1  0.16213908  0.01887434  0.95176337  1
  O  O532  1  0.16364906  0.35256324  0.20217554  1
  O  O533  1  0.16281607  0.35181836  0.45317331  1
  O  O534  1  0.16320049  0.35090107  0.70302516  1
  O  O535  1  0.16281554  0.35222993  0.95172964  1
  O  O536  1  0.16171321  0.68376412  0.20358854  1
  O  O537  1  0.16203593  0.68373511  0.45303162  1
  O  O538  1  0.16206327  0.68586609  0.70235817  1
  O  O539  1  0.16318635  0.68410785  0.95143026  1
  O  O540  1  0.66326480  0.01832430  0.20245220  1
  O  O541  1  0.66197048  0.01926422  0.45306198  1
  O  O542  1  0.66382470  0.01811343  0.70193567  1
  O  O543  1  0.66216712  0.01892419  0.95198485  1
  O  O544  1  0.66429205  0.35208240  0.20281977  1
  O  O545  1  0.66159234  0.35042380  0.45284567  1
  O  O546  1  0.66112559  0.35300535  0.70177997  1
  O  O547  1  0.66412452  0.35027551  0.95214723  1
  O  O548  1  0.66403373  0.68423642  0.20132435  1
  O  O549  1  0.66386828  0.68501800  0.45249489  1
  O  O550  1  0.66266839  0.68379299  0.70271883  1
  O  O551  1  0.65986387  0.68562351  0.95161521  1
  O  O552  1  0.33652682  0.31525302  0.04617051  1
  O  O553  1  0.33742288  0.31567301  0.29684871  1
  O  O554  1  0.33556287  0.31576092  0.54771429  1
  O  O555  1  0.33658446  0.31562264  0.79785179  1
  O  O556  1  0.33639097  0.64900617  0.04674053  1
  O  O557  1  0.33569974  0.64734098  0.29794173  1
  O  O558  1  0.33585673  0.64860114  0.54776533  1
  O  O559  1  0.33813515  0.64860397  0.79758052  1
  O  O560  1  0.33838286  0.98119916  0.04615620  1
  O  O561  1  0.33674505  0.98266744  0.29694078  1
  O  O562  1  0.33687435  0.98094712  0.54789977  1
  O  O563  1  0.33705576  0.98081705  0.79829213  1
  O  O564  1  0.83649018  0.31597459  0.04677338  1
  O  O565  1  0.83913218  0.31570557  0.29817970  1
  O  O566  1  0.83813260  0.31523906  0.54859419  1
  O  O567  1  0.83869746  0.31477012  0.79692090  1
  O  O568  1  0.83843270  0.64725886  0.04648719  1
  O  O569  1  0.83903131  0.64888513  0.29760822  1
  O  O570  1  0.83835737  0.64916751  0.54734266  1
  O  O571  1  0.83645414  0.64935116  0.79812264  1
  O  O572  1  0.83641732  0.98182119  0.04656970  1
  O  O573  1  0.83798555  0.98062431  0.29739167  1
  O  O574  1  0.83847388  0.98058739  0.54784298  1
  O  O575  1  0.83852812  0.98141929  0.79789138  1
  O  O576  1  0.41079441  0.14865445  0.17293414  1
  O  O577  1  0.41217658  0.14855001  0.42273086  1
  O  O578  1  0.41467760  0.14869289  0.67283818  1
  O  O579  1  0.41061958  0.14854658  0.92295845  1
  O  O580  1  0.41097084  0.48184985  0.17283606  1
  O  O581  1  0.41205006  0.48204662  0.42345929  1
  O  O582  1  0.41192161  0.48126674  0.67280518  1
  O  O583  1  0.40998557  0.48210103  0.92156506  1
  O  O584  1  0.41352842  0.81481273  0.17210311  1
  O  O585  1  0.41154100  0.81428969  0.42358355  1
  O  O586  1  0.41202925  0.81503535  0.67311877  1
  O  O587  1  0.41175295  0.81459495  0.92259922  1
  O  O588  1  0.91506221  0.14850995  0.17235876  1
  O  O589  1  0.91466061  0.14911326  0.42307821  1
  O  O590  1  0.91250913  0.15005569  0.67319928  1
  O  O591  1  0.91421899  0.14743650  0.92219223  1
  O  O592  1  0.91146621  0.48138162  0.17250976  1
  O  O593  1  0.91229647  0.48216827  0.42205693  1
  O  O594  1  0.91492563  0.48099559  0.67315593  1
  O  O595  1  0.91387432  0.48254844  0.92291098  1
  O  O596  1  0.91202530  0.81524862  0.17276214  1
  O  O597  1  0.91246874  0.81390372  0.42325622  1
  O  O598  1  0.91318100  0.81417125  0.67349133  1
  O  O599  1  0.91309844  0.81494251  0.92127392  1
  O  O600  1  0.08910695  0.18421045  0.07720003  1
  O  O601  1  0.08689106  0.18439309  0.32862087  1
  O  O602  1  0.08846237  0.18642355  0.57772453  1
  O  O603  1  0.09008351  0.18532831  0.82785681  1
  O  O604  1  0.08880732  0.51821623  0.07695304  1
  O  O605  1  0.08792657  0.51920922  0.32685058  1
  O  O606  1  0.08891508  0.51803046  0.57736872  1
  O  O607  1  0.08748999  0.51830962  0.82842083  1
  O  O608  1  0.08745164  0.85220067  0.07661400  1
  O  O609  1  0.08747500  0.85118737  0.32813413  1
  O  O610  1  0.08786461  0.84996877  0.57878883  1
  O  O611  1  0.08749824  0.85105866  0.82668843  1
  O  O612  1  0.58765303  0.18551853  0.07660852  1
  O  O613  1  0.58836561  0.18659215  0.32739426  1
  O  O614  1  0.58879148  0.18517351  0.57756434  1
  O  O615  1  0.58590494  0.18540741  0.82792952  1
  O  O616  1  0.58706008  0.51837323  0.07669765  1
  O  O617  1  0.58687679  0.51703431  0.32767234  1
  O  O618  1  0.58850140  0.51840211  0.57892632  1
  O  O619  1  0.58616937  0.51891666  0.82631363  1
  O  O620  1  0.58850821  0.85094504  0.07688268  1
  O  O621  1  0.58715282  0.85092783  0.32743148  1
  O  O622  1  0.58766834  0.85110205  0.57832832  1
  O  O623  1  0.58564778  0.85087862  0.82807555  1
  O  O624  1  0.33608327  0.18497915  0.04671910  1
  O  O625  1  0.33716926  0.18533284  0.29728532  1
  O  O626  1  0.33522924  0.18556271  0.54834187  1
  O  O627  1  0.33703806  0.18554768  0.79830757  1
  O  O628  1  0.33678094  0.51866932  0.04606653  1
  O  O629  1  0.33537035  0.51719368  0.29732150  1
  O  O630  1  0.33613697  0.51844367  0.54769070  1
  O  O631  1  0.33842573  0.51850872  0.79735878  1
  O  O632  1  0.33804298  0.85062044  0.04642925  1
  O  O633  1  0.33732284  0.85223867  0.29722046  1
  O  O634  1  0.33670446  0.85054453  0.54728533  1
  O  O635  1  0.33669887  0.85077740  0.79790316  1
  O  O636  1  0.83647596  0.18583788  0.04742462  1
  O  O637  1  0.83945667  0.18556403  0.29871106  1
  O  O638  1  0.83822594  0.18534874  0.54842710  1
  O  O639  1  0.83828074  0.18454254  0.79655084  1
  O  O640  1  0.83844555  0.51702027  0.04577899  1
  O  O641  1  0.83943596  0.51874980  0.29803380  1
  O  O642  1  0.83835737  0.51899142  0.54787498  1
  O  O643  1  0.83730314  0.51936686  0.79801730  1
  O  O644  1  0.83638202  0.85160541  0.04649058  1
  O  O645  1  0.83772797  0.85026736  0.29651635  1
  O  O646  1  0.83794394  0.85034047  0.54791911  1
  O  O647  1  0.83838382  0.85115803  0.79804233  1
  O  O648  1  0.16231969  0.14854415  0.20201239  1
  O  O649  1  0.16185994  0.15005035  0.45256142  1
  O  O650  1  0.16141813  0.14804920  0.70429320  1
  O  O651  1  0.16262037  0.14886027  0.95240927  1
  O  O652  1  0.16389929  0.48264256  0.20244262  1
  O  O653  1  0.16264132  0.48193920  0.45361076  1
  O  O654  1  0.16237573  0.48098867  0.70243503  1
  O  O655  1  0.16319791  0.48223050  0.95149087  1
  O  O656  1  0.16172325  0.81403347  0.20254917  1
  O  O657  1  0.16170908  0.81373723  0.45227336  1
  O  O658  1  0.16286350  0.81594756  0.70268788  1
  O  O659  1  0.16287884  0.81399655  0.95095972  1
  O  O660  1  0.66338072  0.14842362  0.20242930  1
  O  O661  1  0.66246242  0.14958687  0.45351205  1
  O  O662  1  0.66363684  0.14818677  0.70178820  1
  O  O663  1  0.66236129  0.14938537  0.95243749  1
  O  O664  1  0.66445885  0.48206999  0.20256753  1
  O  O665  1  0.66077826  0.48051851  0.45206652  1
  O  O666  1  0.66174438  0.48317722  0.70242371  1
  O  O667  1  0.66370896  0.48029556  0.95178112  1
  O  O668  1  0.66353895  0.81418148  0.20143862  1
  O  O669  1  0.66409787  0.81502142  0.45272686  1
  O  O670  1  0.66189740  0.81387162  0.70245821  1
  O  O671  1  0.66053092  0.81572898  0.95202498  1
