# generated using pymatgen
data_Na2MnFe(PO4)2
_symmetry_space_group_name_H-M   'P 1'
_cell_length_a   21.09072041
_cell_length_b   18.94318172
_cell_length_c   20.04925442
_cell_angle_alpha   90.00014535
_cell_angle_beta   89.99825536
_cell_angle_gamma   90.00087123
_symmetry_Int_Tables_number   1
_chemical_formula_structural   Na2MnFe(PO4)2
_chemical_formula_sum   'Na96 Mn48 Fe48 P96 O384'
_cell_volume   8010.18537400
_cell_formula_units_Z   48
loop_
 _symmetry_equiv_pos_site_id
 _symmetry_equiv_pos_as_xyz
  1  'x, y, z'
loop_
 _atom_site_type_symbol
 _atom_site_label
 _atom_site_symmetry_multiplicity
 _atom_site_fract_x
 _atom_site_fract_y
 _atom_site_fract_z
 _atom_site_occupancy
  Na  Na0  1  -0.00035839  0.00019917  0.00057040  1
  Na  Na1  1  0.00046181  0.00008746  0.24953139  1
  Na  Na2  1  0.00110943  0.00058236  0.49927195  1
  Na  Na3  1  -0.00088603  -0.00017525  0.74992659  1
  Na  Na4  1  -0.00092482  0.33244725  0.00134738  1
  Na  Na5  1  0.00186044  0.33378576  0.25052801  1
  Na  Na6  1  0.00149295  0.33334354  0.49895494  1
  Na  Na7  1  -0.00122517  0.33240799  0.74995624  1
  Na  Na8  1  -0.00051034  0.66677747  -0.00082887  1
  Na  Na9  1  0.00027902  0.66736486  0.24958417  1
  Na  Na10  1  0.00129021  0.66713431  0.49981496  1
  Na  Na11  1  0.00128959  0.66698393  0.75121102  1
  Na  Na12  1  0.49934113  -0.00066746  0.00018113  1
  Na  Na13  1  0.50127162  0.00088034  0.24998770  1
  Na  Na14  1  0.50037638  0.00077695  0.50018708  1
  Na  Na15  1  0.49840960  -0.00086004  0.75010448  1
  Na  Na16  1  0.50191133  0.33315050  -0.00006376  1
  Na  Na17  1  0.50190586  0.33276127  0.25038335  1
  Na  Na18  1  0.50077297  0.33298272  0.49961238  1
  Na  Na19  1  0.50127664  0.33352569  0.75035808  1
  Na  Na20  1  0.50009891  0.66696963  0.00068303  1
  Na  Na21  1  0.50014943  0.66713643  0.24929186  1
  Na  Na22  1  0.50044421  0.66760807  0.49934622  1
  Na  Na23  1  0.49814061  0.66648214  0.75093763  1
  Na  Na24  1  0.24836240  -0.00058530  0.12489565  1
  Na  Na25  1  0.24877383  0.00047538  0.37479110  1
  Na  Na26  1  0.24865589  -0.00019910  0.62486505  1
  Na  Na27  1  0.25213089  0.00093240  0.87579806  1
  Na  Na28  1  0.25157377  0.33369413  0.12599052  1
  Na  Na29  1  0.24790117  0.33175713  0.37421557  1
  Na  Na30  1  0.24899193  0.33314988  0.62466815  1
  Na  Na31  1  0.24921123  0.33280809  0.87542210  1
  Na  Na32  1  0.24984109  0.66690998  0.12512224  1
  Na  Na33  1  0.24993597  0.66770669  0.37487026  1
  Na  Na34  1  0.24779408  0.66596460  0.62376732  1
  Na  Na35  1  0.25102937  0.66727471  0.87595861  1
  Na  Na36  1  0.74965878  -0.00059391  0.12521621  1
  Na  Na37  1  0.74966148  -0.00018327  0.37472931  1
  Na  Na38  1  0.75027523  -0.00045877  0.62402743  1
  Na  Na39  1  0.75199638  0.00058377  0.87491820  1
  Na  Na40  1  0.74864078  0.33274468  0.12440009  1
  Na  Na41  1  0.74882279  0.33220301  0.37415175  1
  Na  Na42  1  0.75024868  0.33251270  0.62645500  1
  Na  Na43  1  0.74973060  0.33324121  0.87477075  1
  Na  Na44  1  0.74858764  0.66712965  0.12521736  1
  Na  Na45  1  0.74906588  0.66634405  0.37532607  1
  Na  Na46  1  0.75115306  0.66735863  0.62469788  1
  Na  Na47  1  0.75007339  0.66775247  0.87522253  1
  Na  Na48  1  -0.00176724  0.16714824  0.00015991  1
  Na  Na49  1  0.00151549  0.16636780  0.25073996  1
  Na  Na50  1  0.00150780  0.16569326  0.49826112  1
  Na  Na51  1  -0.00116288  0.16692147  0.75029170  1
  Na  Na52  1  0.00293964  0.49920746  0.00009064  1
  Na  Na53  1  -0.00038048  0.50121191  0.24955835  1
  Na  Na54  1  0.00204242  0.50003335  0.50082859  1
  Na  Na55  1  0.00272990  0.49993510  0.74993979  1
  Na  Na56  1  -0.00133467  0.83280220  0.00085541  1
  Na  Na57  1  -0.00045656  0.83270686  0.24884811  1
  Na  Na58  1  0.00128808  0.83215993  0.49934561  1
  Na  Na59  1  -0.00187918  0.83362192  0.75070339  1
  Na  Na60  1  0.49951842  0.16706606  0.00044150  1
  Na  Na61  1  0.49947615  0.16730077  0.24983972  1
  Na  Na62  1  0.50057032  0.16655233  0.49998408  1
  Na  Na63  1  0.49943443  0.16691674  0.75017297  1
  Na  Na64  1  0.50301781  0.49939804  0.00111218  1
  Na  Na65  1  0.50180142  0.49984882  0.24930326  1
  Na  Na66  1  0.49895304  0.50056605  0.49980699  1
  Na  Na67  1  0.49954833  0.50086213  0.75041636  1
  Na  Na68  1  0.50028142  0.83248300  -0.00026190  1
  Na  Na69  1  0.50156855  0.83274307  0.25006505  1
  Na  Na70  1  0.50109764  0.83257245  0.49921317  1
  Na  Na71  1  0.49828014  0.83359036  0.75070659  1
  Na  Na72  1  0.25061117  0.16633080  0.12631771  1
  Na  Na73  1  0.24865810  0.16683287  0.37431134  1
  Na  Na74  1  0.24820368  0.16679123  0.62400728  1
  Na  Na75  1  0.25129846  0.16594516  0.87585540  1
  Na  Na76  1  0.24896169  0.50079119  0.12527692  1
  Na  Na77  1  0.25020804  0.50030782  0.37454014  1
  Na  Na78  1  0.24774731  0.50111690  0.62468052  1
  Na  Na79  1  0.24848708  0.50087244  0.87507451  1
  Na  Na80  1  0.24987690  0.83293701  0.12445547  1
  Na  Na81  1  0.24717787  0.83373245  0.37529760  1
  Na  Na82  1  0.25028683  0.83271803  0.62438982  1
  Na  Na83  1  0.25233292  0.83214201  0.87602452  1
  Na  Na84  1  0.75022369  0.16694097  0.12497063  1
  Na  Na85  1  0.74816855  0.16772709  0.37441523  1
  Na  Na86  1  0.75214904  0.16603693  0.62520756  1
  Na  Na87  1  0.75149322  0.16719766  0.87488512  1
  Na  Na88  1  0.74656565  0.50160725  0.12492198  1
  Na  Na89  1  0.74985957  0.50021400  0.37518233  1
  Na  Na90  1  0.75111673  0.49966663  0.62516643  1
  Na  Na91  1  0.74787226  0.50080852  0.87539894  1
  Na  Na92  1  0.74937478  0.83277489  0.12511227  1
  Na  Na93  1  0.75028385  0.83277320  0.37444444  1
  Na  Na94  1  0.74934215  0.83382746  0.62450391  1
  Na  Na95  1  0.75041843  0.83272294  0.87518311  1
  Mn  Mn96  1  0.64204930  0.58312251  0.49753861  1
  Mn  Mn97  1  0.39255139  0.91687457  0.12783846  1
  Mn  Mn98  1  0.64254251  0.91696259  0.74836550  1
  Mn  Mn99  1  0.39098334  0.58328584  0.62698768  1
  Mn  Mn100  1  0.35707067  0.75049675  0.50161803  1
  Mn  Mn101  1  0.14251227  0.25038880  0.99860451  1
  Mn  Mn102  1  0.60774128  0.75000239  0.62350147  1
  Mn  Mn103  1  0.60850994  0.08336131  0.62293575  1
  Mn  Mn104  1  0.89172442  0.58278661  0.12670454  1
  Mn  Mn105  1  0.39185746  0.91660626  0.62677482  1
  Mn  Mn106  1  0.39171729  0.25033668  0.62666951  1
  Mn  Mn107  1  0.14211487  0.91595862  0.74872510  1
  Mn  Mn108  1  0.39321922  0.58254709  0.12726753  1
  Mn  Mn109  1  0.85793092  0.75009083  0.50175865  1
  Mn  Mn110  1  0.85845598  0.41604826  0.50160731  1
  Mn  Mn111  1  0.14121667  0.24993460  0.74770436  1
  Mn  Mn112  1  0.60763241  0.08286502  0.87258989  1
  Mn  Mn113  1  0.10768995  0.75011902  0.87283928  1
  Mn  Mn114  1  0.35836314  0.41705996  0.25264683  1
  Mn  Mn115  1  0.10801401  0.41609528  0.62224298  1
  Mn  Mn116  1  0.35703889  0.08242150  0.25256546  1
  Mn  Mn117  1  0.60816352  0.41690118  0.62249460  1
  Mn  Mn118  1  0.10744490  0.08357549  0.87318052  1
  Mn  Mn119  1  0.60814497  0.08305263  0.12243162  1
  Mn  Mn120  1  0.60789739  0.41666423  0.37284668  1
  Mn  Mn121  1  0.85700793  0.41787539  0.00210492  1
  Mn  Mn122  1  0.10796233  0.41668668  0.12245000  1
  Mn  Mn123  1  0.85862920  0.41716825  0.75305185  1
  Mn  Mn124  1  0.39241611  0.25043530  0.87757885  1
  Mn  Mn125  1  0.14261084  0.91645510  0.99724069  1
  Mn  Mn126  1  0.89349326  0.58315109  0.62741488  1
  Mn  Mn127  1  0.35699154  0.41616347  0.50176138  1
  Mn  Mn128  1  0.89214935  0.91677537  0.62668493  1
  Mn  Mn129  1  0.89277994  0.58282140  0.87755609  1
  Mn  Mn130  1  0.64196554  0.58390190  0.74779456  1
  Mn  Mn131  1  0.35744689  0.08288386  0.75193226  1
  Mn  Mn132  1  0.35741949  0.41709523  0.75277178  1
  Mn  Mn133  1  0.14218132  0.58370548  0.24779168  1
  Mn  Mn134  1  0.64332060  0.24930793  0.74784347  1
  Mn  Mn135  1  0.39206902  0.91697172  0.37699765  1
  Mn  Mn136  1  0.14124847  0.91677445  0.49728658  1
  Mn  Mn137  1  0.85751787  0.08299829  0.00276637  1
  Mn  Mn138  1  0.89294939  0.25029557  0.37697421  1
  Mn  Mn139  1  0.35831055  0.41656349  0.00227100  1
  Mn  Mn140  1  0.89218592  0.91693073  0.12734127  1
  Mn  Mn141  1  0.64284579  0.91657834  0.24792500  1
  Mn  Mn142  1  0.85786012  0.08357614  0.50116169  1
  Mn  Mn143  1  0.85715490  0.41704620  0.25233255  1
  Fe  Fe144  1  0.14318522  0.24942887  0.24759380  1
  Fe  Fe145  1  0.14170641  0.91650930  0.24810528  1
  Fe  Fe146  1  0.10762151  0.41596543  0.87381278  1
  Fe  Fe147  1  0.85584347  0.74966573  0.00164468  1
  Fe  Fe148  1  0.39258477  0.91615907  0.87723648  1
  Fe  Fe149  1  0.39248159  0.58338479  0.87720834  1
  Fe  Fe150  1  0.64299970  0.24971146  0.99789420  1
  Fe  Fe151  1  0.10663920  0.74997180  0.37215265  1
  Fe  Fe152  1  0.89278470  0.25033074  0.87721379  1
  Fe  Fe153  1  0.64252525  0.24988828  0.24797397  1
  Fe  Fe154  1  0.60794767  0.41659895  0.12318062  1
  Fe  Fe155  1  0.85748466  0.08316147  0.25177610  1
  Fe  Fe156  1  0.14334443  0.58402254  0.74888800  1
  Fe  Fe157  1  0.60756161  0.74995530  0.12289714  1
  Fe  Fe158  1  0.60712077  0.08331126  0.37357476  1
  Fe  Fe159  1  0.35656063  0.08367764  0.50114295  1
  Fe  Fe160  1  0.35763883  0.75002921  0.00239214  1
  Fe  Fe161  1  0.89187744  0.91674706  0.87709567  1
  Fe  Fe162  1  0.10764141  0.75092120  0.62412906  1
  Fe  Fe163  1  0.64272840  0.24945318  0.49861509  1
  Fe  Fe164  1  0.14204745  0.25004808  0.49777117  1
  Fe  Fe165  1  0.89310825  0.24983770  0.62552743  1
  Fe  Fe166  1  0.60635135  0.74980247  0.87310692  1
  Fe  Fe167  1  0.89327505  0.91625387  0.37590910  1
  Fe  Fe168  1  0.10704479  0.75019287  0.12299040  1
  Fe  Fe169  1  0.85693929  0.74979147  0.25177748  1
  Fe  Fe170  1  0.10699672  0.08299308  0.62341431  1
  Fe  Fe171  1  0.89226261  0.25005508  0.12725256  1
  Fe  Fe172  1  0.64230659  0.91719613  0.49760127  1
  Fe  Fe173  1  0.10759675  0.41715885  0.37293813  1
  Fe  Fe174  1  0.14316825  0.58365115  0.99828412  1
  Fe  Fe175  1  0.39288004  0.25007228  0.37677694  1
  Fe  Fe176  1  0.85867793  0.08273654  0.75149061  1
  Fe  Fe177  1  0.64208199  0.58399738  0.99745352  1
  Fe  Fe178  1  0.60727115  0.41714637  0.87327891  1
  Fe  Fe179  1  0.39310104  0.58318605  0.37603052  1
  Fe  Fe180  1  0.35709725  0.74975511  0.75165925  1
  Fe  Fe181  1  0.10667855  0.08325916  0.12315144  1
  Fe  Fe182  1  0.10744559  0.08270304  0.37248772  1
  Fe  Fe183  1  0.64269039  0.91662981  0.99759111  1
  Fe  Fe184  1  0.85802511  0.75023245  0.75194884  1
  Fe  Fe185  1  0.89273289  0.58372977  0.37635999  1
  Fe  Fe186  1  0.14221774  0.58297912  0.49696029  1
  Fe  Fe187  1  0.35769748  0.08333390  0.00246940  1
  Fe  Fe188  1  0.64245347  0.58325448  0.24901730  1
  Fe  Fe189  1  0.39378457  0.25022031  0.12680939  1
  Fe  Fe190  1  0.60722392  0.75015343  0.37281548  1
  Fe  Fe191  1  0.35697967  0.75043670  0.25151309  1
  P  P192  1  0.05318075  0.24877975  0.11155049  1
  P  P193  1  0.05589884  0.25016437  0.36033962  1
  P  P194  1  0.05266378  0.24875949  0.60905872  1
  P  P195  1  0.05217345  0.25053755  0.86075102  1
  P  P196  1  0.05412377  0.58472961  0.10914299  1
  P  P197  1  0.05330629  0.58349892  0.36081627  1
  P  P198  1  0.05613538  0.58485310  0.61086927  1
  P  P199  1  0.05572075  0.58260821  0.86103643  1
  P  P200  1  0.05452971  0.91658952  0.11087427  1
  P  P201  1  0.05285649  0.91622503  0.35924153  1
  P  P202  1  0.05321977  0.91658118  0.61019971  1
  P  P203  1  0.05147753  0.91659956  0.86052487  1
  P  P204  1  0.55491084  0.25028601  0.11060436  1
  P  P205  1  0.55438450  0.24882098  0.36070065  1
  P  P206  1  0.55409269  0.24986697  0.60938054  1
  P  P207  1  0.55492662  0.25031787  0.86112669  1
  P  P208  1  0.55602172  0.58375440  0.11101108  1
  P  P209  1  0.55288303  0.58405424  0.35929628  1
  P  P210  1  0.55260654  0.58385246  0.60977949  1
  P  P211  1  0.55331925  0.58401933  0.86159377  1
  P  P212  1  0.55451338  0.91574338  0.10937032  1
  P  P213  1  0.55448944  0.91722292  0.36105494  1
  P  P214  1  0.55397078  0.91651126  0.60934363  1
  P  P215  1  0.55306507  0.91559897  0.86136341  1
  P  P216  1  0.44581980  0.08407140  0.13932338  1
  P  P217  1  0.44679619  0.08424548  0.39024780  1
  P  P218  1  0.44567747  0.08357310  0.63883848  1
  P  P219  1  0.44578722  0.08258647  0.89080277  1
  P  P220  1  0.44853143  0.41558097  0.13993165  1
  P  P221  1  0.44669431  0.41654284  0.38965450  1
  P  P222  1  0.44650856  0.41654409  0.64024466  1
  P  P223  1  0.44808187  0.41778375  0.89036797  1
  P  P224  1  0.44629506  0.75000289  0.13958218  1
  P  P225  1  0.44638025  0.74948345  0.38815313  1
  P  P226  1  0.44565483  0.75004937  0.64065552  1
  P  P227  1  0.44517087  0.74957551  0.88968032  1
  P  P228  1  0.94657729  0.08397296  0.14088687  1
  P  P229  1  0.94684325  0.08239932  0.38792654  1
  P  P230  1  0.94730335  0.08411039  0.63949429  1
  P  P231  1  0.94511367  0.08314200  0.88921940  1
  P  P232  1  0.94642137  0.41622258  0.14017530  1
  P  P233  1  0.94820075  0.41774553  0.38950708  1
  P  P234  1  0.94718572  0.41585192  0.63974753  1
  P  P235  1  0.94819193  0.41632598  0.89062786  1
  P  P236  1  0.94527093  0.74957959  0.13904883  1
  P  P237  1  0.94626186  0.75001824  0.38810704  1
  P  P238  1  0.94769590  0.74986156  0.64046578  1
  P  P239  1  0.94449444  0.75062019  0.88995665  1
  P  P240  1  0.19413901  0.08290879  0.23552229  1
  P  P241  1  0.19504803  0.08385716  0.48511556  1
  P  P242  1  0.19567767  0.08297842  0.73450650  1
  P  P243  1  0.19683581  0.08361722  0.98648605  1
  P  P244  1  0.19573103  0.41623035  0.23610618  1
  P  P245  1  0.19551543  0.41657528  0.48393637  1
  P  P246  1  0.19533349  0.41744454  0.73625052  1
  P  P247  1  0.19640632  0.41725465  0.98478414  1
  P  P248  1  0.19549859  0.75078271  0.23525245  1
  P  P249  1  0.19388392  0.74948979  0.48514522  1
  P  P250  1  0.19753342  0.74953808  0.73498872  1
  P  P251  1  0.19670934  0.74943508  0.98634845  1
  P  P252  1  0.69674494  0.08380709  0.23612432  1
  P  P253  1  0.69606581  0.08353562  0.48428077  1
  P  P254  1  0.69896810  0.08294534  0.73507841  1
  P  P255  1  0.69657376  0.08324743  0.98501163  1
  P  P256  1  0.69562480  0.41668220  0.23463931  1
  P  P257  1  0.69717601  0.41542716  0.48491360  1
  P  P258  1  0.69591807  0.41692319  0.73622054  1
  P  P259  1  0.69438886  0.41663495  0.98557363  1
  P  P260  1  0.69573956  0.74926590  0.23578930  1
  P  P261  1  0.69565092  0.75074745  0.48430179  1
  P  P262  1  0.69711200  0.75040368  0.73624233  1
  P  P263  1  0.69493606  0.75030658  0.98556107  1
  P  P264  1  0.30449099  0.24943417  0.01639455  1
  P  P265  1  0.30439327  0.24974617  0.26444008  1
  P  P266  1  0.30267545  0.24907560  0.51309742  1
  P  P267  1  0.30265176  0.24985450  0.76516347  1
  P  P268  1  0.30390440  0.58371832  0.01428900  1
  P  P269  1  0.30428068  0.58467366  0.26523862  1
  P  P270  1  0.30274484  0.58338680  0.51310275  1
  P  P271  1  0.30272859  0.58432156  0.76565176  1
  P  P272  1  0.30517143  0.91657195  0.01425864  1
  P  P273  1  0.30144364  0.91563195  0.26485995  1
  P  P274  1  0.30270573  0.91783645  0.51446727  1
  P  P275  1  0.30379329  0.91563965  0.76574620  1
  P  P276  1  0.80401212  0.25057040  0.01450744  1
  P  P277  1  0.80345296  0.24943891  0.26367043  1
  P  P278  1  0.80291295  0.24979935  0.51517093  1
  P  P279  1  0.80635233  0.24915722  0.76441419  1
  P  P280  1  0.80132957  0.58426292  0.01474377  1
  P  P281  1  0.80246730  0.58416086  0.26529451  1
  P  P282  1  0.80488139  0.58328055  0.51401046  1
  P  P283  1  0.80368416  0.58423308  0.76537755  1
  P  P284  1  0.80294509  0.91550936  0.01415534  1
  P  P285  1  0.80453562  0.91646630  0.26498608  1
  P  P286  1  0.80335096  0.91668736  0.51303859  1
  P  P287  1  0.80452079  0.91656102  0.76526385  1
  O  O288  1  0.05837400  0.24962284  0.18814177  1
  O  O289  1  0.05937229  0.24985190  0.43716674  1
  O  O290  1  0.05562722  0.24953238  0.68581159  1
  O  O291  1  0.05607583  0.24990582  0.93741098  1
  O  O292  1  0.05692801  0.58435254  0.18598114  1
  O  O293  1  0.05769181  0.58340986  0.43747353  1
  O  O294  1  0.05998199  0.58429765  0.68767356  1
  O  O295  1  0.05973907  0.58383803  0.93778095  1
  O  O296  1  0.05826488  0.91612972  0.18787488  1
  O  O297  1  0.05592333  0.91649967  0.43550802  1
  O  O298  1  0.05582910  0.91642485  0.68708450  1
  O  O299  1  0.05577603  0.91628962  0.93718555  1
  O  O300  1  0.55935615  0.24936171  0.18738878  1
  O  O301  1  0.55905321  0.24952046  0.43732701  1
  O  O302  1  0.55760143  0.24953187  0.68617429  1
  O  O303  1  0.55906131  0.24927364  0.93788291  1
  O  O304  1  0.55963379  0.58402449  0.18775964  1
  O  O305  1  0.55618260  0.58369876  0.43602658  1
  O  O306  1  0.55595386  0.58394821  0.68657278  1
  O  O307  1  0.55798116  0.58419667  0.93829763  1
  O  O308  1  0.55774264  0.91668854  0.18628359  1
  O  O309  1  0.55815787  0.91708679  0.43773671  1
  O  O310  1  0.55692879  0.91665097  0.68619683  1
  O  O311  1  0.55823226  0.91638978  0.93794899  1
  O  O312  1  0.44158814  0.08319898  0.06261215  1
  O  O313  1  0.44300100  0.08343164  0.31352264  1
  O  O314  1  0.44095075  0.08375676  0.56213447  1
  O  O315  1  0.44292691  0.08318736  0.81397833  1
  O  O316  1  0.44468704  0.41624512  0.06331794  1
  O  O317  1  0.44444203  0.41631829  0.31277270  1
  O  O318  1  0.44278327  0.41635611  0.56347814  1
  O  O319  1  0.44401247  0.41740182  0.81370336  1
  O  O320  1  0.44129918  0.75003224  0.06290355  1
  O  O321  1  0.44152087  0.75062379  0.31153967  1
  O  O322  1  0.44249507  0.75009007  0.56381515  1
  O  O323  1  0.44067903  0.74960716  0.81301926  1
  O  O324  1  0.94272959  0.08350992  0.06406044  1
  O  O325  1  0.94168771  0.08325211  0.31135841  1
  O  O326  1  0.94392469  0.08337589  0.56276919  1
  O  O327  1  0.94188327  0.08280597  0.81244684  1
  O  O328  1  0.94288487  0.41679067  0.06345583  1
  O  O329  1  0.94404045  0.41722729  0.31283356  1
  O  O330  1  0.94435587  0.41666666  0.56298763  1
  O  O331  1  0.94473095  0.41739358  0.81391263  1
  O  O332  1  0.93990693  0.74936017  0.06239458  1
  O  O333  1  0.94135563  0.74964780  0.31144034  1
  O  O334  1  0.94393764  0.74971384  0.56374897  1
  O  O335  1  0.94074716  0.74978720  0.81315880  1
  O  O336  1  0.19141830  0.08354648  0.06310975  1
  O  O337  1  0.19025420  0.08280201  0.31234681  1
  O  O338  1  0.19043790  0.08319971  0.56182502  1
  O  O339  1  0.19289230  0.08318479  0.81135232  1
  O  O340  1  0.19354273  0.41640291  0.06162222  1
  O  O341  1  0.19143598  0.41701712  0.31277214  1
  O  O342  1  0.19309669  0.41653778  0.56080416  1
  O  O343  1  0.19138811  0.41603950  0.81296985  1
  O  O344  1  0.19161130  0.75008960  0.06298325  1
  O  O345  1  0.19046678  0.75021424  0.31194044  1
  O  O346  1  0.19034221  0.75041045  0.56193720  1
  O  O347  1  0.19400392  0.75050794  0.81171506  1
  O  O348  1  0.69390735  0.08314361  0.06164022  1
  O  O349  1  0.69169069  0.08354080  0.31275219  1
  O  O350  1  0.69386223  0.08331275  0.56102739  1
  O  O351  1  0.69451517  0.08320284  0.81175874  1
  O  O352  1  0.69093078  0.41653761  0.06240192  1
  O  O353  1  0.69311258  0.41645022  0.31129253  1
  O  O354  1  0.69460881  0.41625140  0.56173564  1
  O  O355  1  0.69098529  0.41726256  0.81296613  1
  O  O356  1  0.69107528  0.75031147  0.06229058  1
  O  O357  1  0.69078006  0.74984268  0.31243778  1
  O  O358  1  0.69310078  0.75006632  0.56108488  1
  O  O359  1  0.69143361  0.75016608  0.81284952  1
  O  O360  1  0.30984681  0.25020479  0.18784932  1
  O  O361  1  0.30784577  0.24956866  0.43647825  1
  O  O362  1  0.30564463  0.25016278  0.68836382  1
  O  O363  1  0.30722627  0.25018120  0.93958278  1
  O  O364  1  0.30746808  0.58360516  0.18846890  1
  O  O365  1  0.30840512  0.58364281  0.43654288  1
  O  O366  1  0.30561059  0.58344539  0.68886358  1
  O  O367  1  0.30874995  0.58301992  0.93764209  1
  O  O368  1  0.30566649  0.91620367  0.18821498  1
  O  O369  1  0.30598068  0.91716729  0.43760525  1
  O  O370  1  0.30618650  0.91645141  0.68895214  1
  O  O371  1  0.30926575  0.91648342  0.93753787  1
  O  O372  1  0.80838891  0.24987657  0.18703037  1
  O  O373  1  0.80695582  0.25003110  0.43842409  1
  O  O374  1  0.81036963  0.24990950  0.68766465  1
  O  O375  1  0.80916978  0.25076993  0.93782017  1
  O  O376  1  0.80592483  0.58379170  0.18859843  1
  O  O377  1  0.80953223  0.58328113  0.43725319  1
  O  O378  1  0.80718813  0.58347506  0.68860811  1
  O  O379  1  0.80591465  0.58334667  0.93817731  1
  O  O380  1  0.80688621  0.91646769  0.18857609  1
  O  O381  1  0.80889578  0.91647784  0.43643431  1
  O  O382  1  0.80705563  0.91639539  0.68847099  1
  O  O383  1  0.80770032  0.91631703  0.93736354  1
  O  O384  1  0.23479684  0.25011625  0.04157837  1
  O  O385  1  0.23373241  0.24910166  0.28706548  1
  O  O386  1  0.23226289  0.24978799  0.53669164  1
  O  O387  1  0.23303440  0.24927485  0.79045968  1
  O  O388  1  0.23360751  0.58359567  0.03812193  1
  O  O389  1  0.23442916  0.58415574  0.28984764  1
  O  O390  1  0.23231500  0.58319645  0.53630687  1
  O  O391  1  0.23277099  0.58431941  0.79051525  1
  O  O392  1  0.23513261  0.91639646  0.03841402  1
  O  O393  1  0.23133334  0.91660517  0.28912431  1
  O  O394  1  0.23318253  0.91680271  0.53941834  1
  O  O395  1  0.23428916  0.91642379  0.79163111  1
  O  O396  1  0.73344786  0.25006792  0.03745824  1
  O  O397  1  0.73299567  0.25006221  0.28705668  1
  O  O398  1  0.73291097  0.24907907  0.53960256  1
  O  O399  1  0.73626555  0.25003794  0.78853943  1
  O  O400  1  0.73111098  0.58427691  0.03858256  1
  O  O401  1  0.73229896  0.58341583  0.28970979  1
  O  O402  1  0.73483491  0.58361272  0.53794810  1
  O  O403  1  0.73397389  0.58412204  0.79034322  1
  O  O404  1  0.73267716  0.91584571  0.03795242  1
  O  O405  1  0.73473576  0.91628388  0.29033169  1
  O  O406  1  0.73300340  0.91691096  0.53648355  1
  O  O407  1  0.73490174  0.91668362  0.79080911  1
  O  O408  1  0.26427174  0.08280492  0.21167069  1
  O  O409  1  0.26534824  0.08352910  0.46105880  1
  O  O410  1  0.26529570  0.08322305  0.70929147  1
  O  O411  1  0.26723881  0.08350340  0.96322459  1
  O  O412  1  0.26579553  0.41708453  0.21190510  1
  O  O413  1  0.26507432  0.41624454  0.45841498  1
  O  O414  1  0.26508291  0.41740307  0.71126710  1
  O  O415  1  0.26608382  0.41671790  0.95967240  1
  O  O416  1  0.26589444  0.74993619  0.21178415  1
  O  O417  1  0.26397579  0.75056531  0.46089003  1
  O  O418  1  0.26743591  0.74945141  0.71004824  1
  O  O419  1  0.26712629  0.74981254  0.96301413  1
  O  O420  1  0.76704367  0.08297708  0.21227951  1
  O  O421  1  0.76566407  0.08376572  0.45861944  1
  O  O422  1  0.76900858  0.08254061  0.71073103  1
  O  O423  1  0.76625419  0.08356327  0.95973215  1
  O  O424  1  0.76521200  0.41696126  0.20891134  1
  O  O425  1  0.76659041  0.41583527  0.45893312  1
  O  O426  1  0.76606211  0.41638195  0.71265391  1
  O  O427  1  0.76433975  0.41695464  0.96090340  1
  O  O428  1  0.76622586  0.75016006  0.21244871  1
  O  O429  1  0.76539416  0.74997183  0.45916089  1
  O  O430  1  0.76747782  0.75070706  0.71271468  1
  O  O431  1  0.76525851  0.75012131  0.96158518  1
  O  O432  1  0.01676698  0.08327759  0.16487002  1
  O  O433  1  0.01733497  0.08290881  0.41116570  1
  O  O434  1  0.01724147  0.08335639  0.66444705  1
  O  O435  1  0.01480151  0.08340335  0.91452712  1
  O  O436  1  0.01623708  0.41705475  0.16484469  1
  O  O437  1  0.01823762  0.41682125  0.41391620  1
  O  O438  1  0.01684784  0.41609161  0.66498710  1
  O  O439  1  0.01805917  0.41606720  0.91560374  1
  O  O440  1  0.01591572  0.75004870  0.16193953  1
  O  O441  1  0.01661574  0.74998264  0.41176613  1
  O  O442  1  0.01774118  0.75041790  0.66504263  1
  O  O443  1  0.01463040  0.74989226  0.91390293  1
  O  O444  1  0.51578173  0.08372914  0.16342890  1
  O  O445  1  0.51692867  0.08368250  0.41444319  1
  O  O446  1  0.51564824  0.08321709  0.66314007  1
  O  O447  1  0.51556639  0.08312768  0.91580724  1
  O  O448  1  0.51862271  0.41625773  0.16429413  1
  O  O449  1  0.51614529  0.41666696  0.41532281  1
  O  O450  1  0.51621307  0.41680185  0.66510106  1
  O  O451  1  0.51812361  0.41717686  0.91480750  1
  O  O452  1  0.51686303  0.74988418  0.16254354  1
  O  O453  1  0.51673673  0.74989556  0.41186123  1
  O  O454  1  0.51530151  0.75015735  0.66577947  1
  O  O455  1  0.51556140  0.74957082  0.91348093  1
  O  O456  1  0.48455729  0.24991848  0.08689879  1
  O  O457  1  0.48396544  0.24975099  0.33705510  1
  O  O458  1  0.48429171  0.25005259  0.58469795  1
  O  O459  1  0.48494434  0.25009696  0.83683750  1
  O  O460  1  0.48598798  0.58338437  0.08664125  1
  O  O461  1  0.48295304  0.58334366  0.33434471  1
  O  O462  1  0.48296756  0.58404227  0.58469246  1
  O  O463  1  0.48300985  0.58405239  0.83775146  1
  O  O464  1  0.48468329  0.91612933  0.08490906  1
  O  O465  1  0.48467767  0.91714585  0.33601282  1
  O  O466  1  0.48427430  0.91638792  0.58423242  1
  O  O467  1  0.48266961  0.91587527  0.83790865  1
  O  O468  1  0.98279406  0.24916311  0.08800913  1
  O  O469  1  0.98578529  0.25008230  0.33616044  1
  O  O470  1  0.98282188  0.24946513  0.58374187  1
  O  O471  1  0.98215955  0.25010263  0.83622224  1
  O  O472  1  0.98441444  0.58335047  0.08408368  1
  O  O473  1  0.98316242  0.58412480  0.33638669  1
  O  O474  1  0.98613412  0.58351071  0.58654182  1
  O  O475  1  0.98567212  0.58353594  0.83689228  1
  O  O476  1  0.98474914  0.91666751  0.08659268  1
  O  O477  1  0.98285925  0.91620555  0.33398427  1
  O  O478  1  0.98377087  0.91656093  0.58427469  1
  O  O479  1  0.98147125  0.91654188  0.83623314  1
  O  O480  1  0.08654504  0.31369997  0.07798685  1
  O  O481  1  0.08949848  0.31532280  0.32758848  1
  O  O482  1  0.08734533  0.31351130  0.57647941  1
  O  O483  1  0.08578146  0.31567480  0.82806227  1
  O  O484  1  0.08768860  0.65014374  0.07683865  1
  O  O485  1  0.08707232  0.64843198  0.32766939  1
  O  O486  1  0.08898049  0.65029602  0.57799235  1
  O  O487  1  0.08982160  0.64725236  0.82755719  1
  O  O488  1  0.08813150  0.98194630  0.07847326  1
  O  O489  1  0.08709753  0.98114742  0.32637136  1
  O  O490  1  0.08735470  0.98173749  0.57805904  1
  O  O491  1  0.08528423  0.98159330  0.82790546  1
  O  O492  1  0.58820211  0.31552671  0.07783448  1
  O  O493  1  0.58835126  0.31348129  0.32721175  1
  O  O494  1  0.58835583  0.31474013  0.57679918  1
  O  O495  1  0.58838512  0.31570107  0.82877692  1
  O  O496  1  0.58928930  0.64896222  0.07777531  1
  O  O497  1  0.58682306  0.64906871  0.32664874  1
  O  O498  1  0.58687031  0.64880340  0.57749131  1
  O  O499  1  0.58654038  0.64920796  0.82826656  1
  O  O500  1  0.58884955  0.98047455  0.07660507  1
  O  O501  1  0.58813403  0.98249121  0.32831393  1
  O  O502  1  0.58832581  0.98144574  0.57691824  1
  O  O503  1  0.58630619  0.98050607  0.82756825  1
  O  O504  1  0.41225162  0.01912711  0.17280373  1
  O  O505  1  0.41248179  0.01949552  0.42317481  1
  O  O506  1  0.41205258  0.01844667  0.67173730  1
  O  O507  1  0.41187067  0.01734563  0.92300954  1
  O  O508  1  0.41499301  0.35048782  0.17269892  1
  O  O509  1  0.41249206  0.35133347  0.42174350  1
  O  O510  1  0.41265625  0.35147391  0.67290766  1
  O  O511  1  0.41419223  0.35275004  0.92310374  1
  O  O512  1  0.41286726  0.68509587  0.17282897  1
  O  O513  1  0.41332123  0.68412923  0.42113963  1
  O  O514  1  0.41135437  0.68511637  0.67313886  1
  O  O515  1  0.41180244  0.68456053  0.92318821  1
  O  O516  1  0.91250662  0.01904870  0.17342315  1
  O  O517  1  0.91405901  0.01712931  0.42120908  1
  O  O518  1  0.91285942  0.01937853  0.67235637  1
  O  O519  1  0.91139164  0.01800001  0.92214076  1
  O  O520  1  0.91294431  0.35097947  0.17275938  1
  O  O521  1  0.91423080  0.35263318  0.42217952  1
  O  O522  1  0.91324344  0.35051041  0.67144509  1
  O  O523  1  0.91379844  0.35140814  0.92270204  1
  O  O524  1  0.91240102  0.68446432  0.17276775  1
  O  O525  1  0.91307813  0.68514227  0.42178140  1
  O  O526  1  0.91410585  0.68485344  0.67350839  1
  O  O527  1  0.91045107  0.68587700  0.92328175  1
  O  O528  1  0.16046655  0.01791649  0.20250773  1
  O  O529  1  0.16138323  0.01900817  0.45162741  1
  O  O530  1  0.16154078  0.01778301  0.70236160  1
  O  O531  1  0.16362324  0.01869989  0.95280092  1
  O  O532  1  0.16271374  0.35078731  0.20325854  1
  O  O533  1  0.16090897  0.35167483  0.45193423  1
  O  O534  1  0.16153394  0.35264260  0.70274233  1
  O  O535  1  0.16185423  0.35236465  0.95228230  1
  O  O536  1  0.16177102  0.68596621  0.20178252  1
  O  O537  1  0.16081134  0.68407259  0.45224253  1
  O  O538  1  0.16330652  0.68455468  0.70278456  1
  O  O539  1  0.16371696  0.68431644  0.95309957  1
  O  O540  1  0.66312873  0.01883183  0.20285828  1
  O  O541  1  0.66167715  0.01855524  0.45189223  1
  O  O542  1  0.66494127  0.01801598  0.70249632  1
  O  O543  1  0.66275893  0.01795385  0.95254390  1
  O  O544  1  0.66139082  0.35161182  0.20218331  1
  O  O545  1  0.66304737  0.35014700  0.45311266  1
  O  O546  1  0.66234995  0.35189926  0.70328960  1
  O  O547  1  0.66090947  0.35144361  0.95274638  1
  O  O548  1  0.66281095  0.68408305  0.20254517  1
  O  O549  1  0.66102480  0.68597613  0.45168393  1
  O  O550  1  0.66407309  0.68539865  0.70257994  1
  O  O551  1  0.66131564  0.68535173  0.95228181  1
  O  O552  1  0.33915815  0.31430764  0.04882854  1
  O  O553  1  0.33720572  0.31481388  0.29830656  1
  O  O554  1  0.33601688  0.31395512  0.54673849  1
  O  O555  1  0.33652601  0.31498516  0.79778631  1
  O  O556  1  0.33728999  0.64877716  0.04734715  1
  O  O557  1  0.33801118  0.65000086  0.29738060  1
  O  O558  1  0.33558471  0.64852822  0.54675289  1
  O  O559  1  0.33688815  0.64937517  0.79786357  1
  O  O560  1  0.33845617  0.98176584  0.04738823  1
  O  O561  1  0.33563282  0.98044528  0.29771305  1
  O  O562  1  0.33627150  0.98328782  0.54656948  1
  O  O563  1  0.33880796  0.98023939  0.79816593  1
  O  O564  1  0.83696790  0.31559381  0.04813782  1
  O  O565  1  0.83676268  0.31444035  0.29719884  1
  O  O566  1  0.83667096  0.31475038  0.54815046  1
  O  O567  1  0.84034327  0.31379820  0.79807332  1
  O  O568  1  0.83491258  0.64931467  0.04750742  1
  O  O569  1  0.83609666  0.64932480  0.29800012  1
  O  O570  1  0.83850629  0.64830862  0.54703015  1
  O  O571  1  0.83767997  0.64937750  0.79750436  1
  O  O572  1  0.83643418  0.98042254  0.04753021  1
  O  O573  1  0.83867374  0.98151305  0.29761337  1
  O  O574  1  0.83665825  0.98174451  0.54629073  1
  O  O575  1  0.83894266  0.98165769  0.79741825  1
  O  O576  1  0.41241807  0.14929916  0.17200454  1
  O  O577  1  0.41308989  0.14950040  0.42276967  1
  O  O578  1  0.41225904  0.14857145  0.67208143  1
  O  O579  1  0.41132914  0.14741805  0.92342304  1
  O  O580  1  0.41450541  0.48051807  0.17274897  1
  O  O581  1  0.41234629  0.48178418  0.42137511  1
  O  O582  1  0.41239843  0.48169673  0.67255836  1
  O  O583  1  0.41464763  0.48292374  0.92328638  1
  O  O584  1  0.41311793  0.81495897  0.17327828  1
  O  O585  1  0.41295187  0.81428221  0.42196686  1
  O  O586  1  0.41134106  0.81497364  0.67306848  1
  O  O587  1  0.41180233  0.81459023  0.92311410  1
  O  O588  1  0.91287289  0.14897439  0.17367523  1
  O  O589  1  0.91365714  0.14733074  0.42162815  1
  O  O590  1  0.91360719  0.14935475  0.67181776  1
  O  O591  1  0.91120318  0.14835883  0.92162918  1
  O  O592  1  0.91221600  0.48126380  0.17258415  1
  O  O593  1  0.91486747  0.48293259  0.42221962  1
  O  O594  1  0.91319822  0.48076376  0.67263748  1
  O  O595  1  0.91448526  0.48146791  0.92361184  1
  O  O596  1  0.91194970  0.81439385  0.17249657  1
  O  O597  1  0.91332924  0.81540826  0.42132224  1
  O  O598  1  0.91326764  0.81474619  0.67282617  1
  O  O599  1  0.91112205  0.81589570  0.92272181  1
  O  O600  1  0.08616034  0.18355987  0.07823175  1
  O  O601  1  0.08959252  0.18513498  0.32739019  1
  O  O602  1  0.08658367  0.18354953  0.57688973  1
  O  O603  1  0.08589912  0.18557557  0.82772320  1
  O  O604  1  0.08934379  0.52015359  0.07704308  1
  O  O605  1  0.08657178  0.51837868  0.32760184  1
  O  O606  1  0.09048426  0.52016858  0.57769282  1
  O  O607  1  0.08885000  0.51710681  0.82859399  1
  O  O608  1  0.08814816  0.85149769  0.07796615  1
  O  O609  1  0.08691215  0.85114709  0.32638829  1
  O  O610  1  0.08748816  0.85153726  0.57812568  1
  O  O611  1  0.08529288  0.85161140  0.82760770  1
  O  O612  1  0.58849860  0.18554410  0.07700241  1
  O  O613  1  0.58726680  0.18347281  0.32732202  1
  O  O614  1  0.58818408  0.18491487  0.57670883  1
  O  O615  1  0.58846274  0.18535202  0.82768042  1
  O  O616  1  0.58985431  0.51873188  0.07827323  1
  O  O617  1  0.58737929  0.51917694  0.32689434  1
  O  O618  1  0.58666110  0.51877750  0.57733949  1
  O  O619  1  0.58670837  0.51895944  0.82849340  1
  O  O620  1  0.58827982  0.85042115  0.07730646  1
  O  O621  1  0.58833603  0.85220004  0.32816106  1
  O  O622  1  0.58828774  0.85157438  0.57703561  1
  O  O623  1  0.58607979  0.85030031  0.82822007  1
  O  O624  1  0.33853352  0.18424665  0.04851417  1
  O  O625  1  0.33764089  0.18482760  0.29801277  1
  O  O626  1  0.33552787  0.18379045  0.54640656  1
  O  O627  1  0.33719141  0.18496873  0.79726841  1
  O  O628  1  0.33713178  0.51866091  0.04784295  1
  O  O629  1  0.33875942  0.51994538  0.29805398  1
  O  O630  1  0.33573399  0.51832921  0.54672418  1
  O  O631  1  0.33680739  0.51950257  0.79874467  1
  O  O632  1  0.33864274  0.85140288  0.04725963  1
  O  O633  1  0.33484043  0.85042476  0.29759185  1
  O  O634  1  0.33727558  0.85297307  0.54676933  1
  O  O635  1  0.33775792  0.85018246  0.79761001  1
  O  O636  1  0.83744432  0.18562420  0.04797535  1
  O  O637  1  0.83642312  0.18437252  0.29714234  1
  O  O638  1  0.83737011  0.18492229  0.54757809  1
  O  O639  1  0.83935253  0.18361736  0.79705030  1
  O  O640  1  0.83469513  0.51924601  0.04813966  1
  O  O641  1  0.83675573  0.51937943  0.29815572  1
  O  O642  1  0.83824814  0.51815605  0.54708055  1
  O  O643  1  0.83765313  0.51921363  0.79829588  1
  O  O644  1  0.83617455  0.85039650  0.04705757  1
  O  O645  1  0.83878828  0.85134680  0.29743173  1
  O  O646  1  0.83641826  0.85173475  0.54674645  1
  O  O647  1  0.83877897  0.85161007  0.79778608  1
  O  O648  1  0.16074915  0.14812315  0.20252843  1
  O  O649  1  0.16164976  0.14889138  0.45197005  1
  O  O650  1  0.16108904  0.14770064  0.70195022  1
  O  O651  1  0.16378335  0.14874817  0.95310354  1
  O  O652  1  0.16190366  0.48110508  0.20301358  1
  O  O653  1  0.16126003  0.48174153  0.45169265  1
  O  O654  1  0.16175489  0.48294194  0.70418678  1
  O  O655  1  0.16230623  0.48243165  0.95287700  1
  O  O656  1  0.16240860  0.81598104  0.20196841  1
  O  O657  1  0.15960416  0.81398956  0.45190844  1
  O  O658  1  0.16351810  0.81450795  0.70202722  1
  O  O659  1  0.16347861  0.81426610  0.95246077  1
  O  O660  1  0.66373198  0.14887924  0.20272318  1
  O  O661  1  0.66161734  0.14860364  0.45215792  1
  O  O662  1  0.66547309  0.14799674  0.70210778  1
  O  O663  1  0.66250626  0.14838101  0.95271662  1
  O  O664  1  0.66111891  0.48181151  0.20272136  1
  O  O665  1  0.66262934  0.48033429  0.45258428  1
  O  O666  1  0.66290147  0.48209910  0.70283324  1
  O  O667  1  0.66041695  0.48176141  0.95293586  1
  O  O668  1  0.66207253  0.81403934  0.20212138  1
  O  O669  1  0.66175806  0.81598024  0.45201807  1
  O  O670  1  0.66378307  0.81542933  0.70301112  1
  O  O671  1  0.66154066  0.81532209  0.95221664  1
