# generated using pymatgen
data_Na2MnFe(PO4)2
_symmetry_space_group_name_H-M   'P 1'
_cell_length_a   21.08627828
_cell_length_b   18.93876989
_cell_length_c   20.04501188
_cell_angle_alpha   89.99972331
_cell_angle_beta   89.99741113
_cell_angle_gamma   89.99888339
_symmetry_Int_Tables_number   1
_chemical_formula_structural   Na2MnFe(PO4)2
_chemical_formula_sum   'Na96 Mn48 Fe48 P96 O384'
_cell_volume   8004.93884661
_cell_formula_units_Z   48
loop_
 _symmetry_equiv_pos_site_id
 _symmetry_equiv_pos_as_xyz
  1  'x, y, z'
loop_
 _atom_site_type_symbol
 _atom_site_label
 _atom_site_symmetry_multiplicity
 _atom_site_fract_x
 _atom_site_fract_y
 _atom_site_fract_z
 _atom_site_occupancy
  Na  Na0  1  0.00011589  0.00042750  -0.00040749  1
  Na  Na1  1  0.00019653  0.00029323  0.25097225  1
  Na  Na2  1  0.00168073  0.00120478  0.49908282  1
  Na  Na3  1  -0.00160549  -0.00095248  0.75030486  1
  Na  Na4  1  0.00068555  0.33448847  -0.00039014  1
  Na  Na5  1  -0.00157274  0.33343682  0.25005630  1
  Na  Na6  1  -0.00239677  0.33303598  0.49983162  1
  Na  Na7  1  -0.00149301  0.33316827  0.75033598  1
  Na  Na8  1  0.00061054  0.66616317  0.00011913  1
  Na  Na9  1  -0.00167448  0.66547843  0.25074853  1
  Na  Na10  1  0.00151034  0.66672831  0.49992782  1
  Na  Na11  1  0.00411792  0.66772416  0.74957859  1
  Na  Na12  1  0.49766433  -0.00028885  -0.00033994  1
  Na  Na13  1  0.49718050  -0.00055569  0.24972430  1
  Na  Na14  1  0.50012024  0.00091256  0.49893210  1
  Na  Na15  1  0.49817640  -0.00018177  0.75060828  1
  Na  Na16  1  0.50047763  0.33359342  0.00112672  1
  Na  Na17  1  0.50126999  0.33438897  0.25030196  1
  Na  Na18  1  0.49923981  0.33345697  0.49946485  1
  Na  Na19  1  0.49947009  0.33358715  0.74907254  1
  Na  Na20  1  0.50048881  0.66574171  0.00085780  1
  Na  Na21  1  0.49983000  0.66556688  0.24969899  1
  Na  Na22  1  0.50062415  0.66584291  0.50073734  1
  Na  Na23  1  0.50258233  0.66724655  0.75008359  1
  Na  Na24  1  0.25111100  0.00085632  0.12557340  1
  Na  Na25  1  0.24822779  0.00049532  0.37479083  1
  Na  Na26  1  0.24856381  0.00007150  0.62421381  1
  Na  Na27  1  0.25193607  0.00094977  0.87528739  1
  Na  Na28  1  0.25085214  0.33462054  0.12522538  1
  Na  Na29  1  0.25017244  0.33373233  0.37390453  1
  Na  Na30  1  0.25186413  0.33476153  0.62546776  1
  Na  Na31  1  0.24871069  0.33317551  0.87525871  1
  Na  Na32  1  0.25128430  0.66660131  0.12652250  1
  Na  Na33  1  0.24942255  0.66599464  0.37498127  1
  Na  Na34  1  0.24696240  0.66563161  0.62420729  1
  Na  Na35  1  0.24831738  0.66626815  0.87485442  1
  Na  Na36  1  0.75099546  0.00042624  0.12391842  1
  Na  Na37  1  0.75081754  0.00027304  0.37611612  1
  Na  Na38  1  0.75158854  0.00008480  0.62505653  1
  Na  Na39  1  0.75153713  0.00009345  0.87421250  1
  Na  Na40  1  0.75052705  0.33421627  0.12570238  1
  Na  Na41  1  0.74977759  0.33292802  0.37455723  1
  Na  Na42  1  0.75221531  0.33415005  0.62484833  1
  Na  Na43  1  0.74908654  0.33294000  0.87524519  1
  Na  Na44  1  0.75072058  0.66625755  0.12518481  1
  Na  Na45  1  0.75155659  0.66621417  0.37434480  1
  Na  Na46  1  0.74872601  0.66576812  0.62542159  1
  Na  Na47  1  0.74719107  0.66515105  0.87483671  1
  Na  Na48  1  -0.00099761  0.16696516  -0.00076226  1
  Na  Na49  1  -0.00109289  0.16722308  0.25044403  1
  Na  Na50  1  0.00009450  0.16648081  0.49922933  1
  Na  Na51  1  -0.00024673  0.16652406  0.75065237  1
  Na  Na52  1  0.00203335  0.49941449  -0.00085759  1
  Na  Na53  1  -0.00097434  0.50055936  0.25046243  1
  Na  Na54  1  0.00105953  0.49933300  0.50021785  1
  Na  Na55  1  0.00113725  0.50019622  0.75049001  1
  Na  Na56  1  0.00035427  0.83301097  0.00087161  1
  Na  Na57  1  -0.00084435  0.83309284  0.25082863  1
  Na  Na58  1  0.00000294  0.83265107  0.49932670  1
  Na  Na59  1  0.00079125  0.83286587  0.74917466  1
  Na  Na60  1  0.49793463  0.16728037  0.00081458  1
  Na  Na61  1  0.49895254  0.16690696  0.24961749  1
  Na  Na62  1  0.49952448  0.16641671  0.49891595  1
  Na  Na63  1  0.49848227  0.16667373  0.75071047  1
  Na  Na64  1  0.50232681  0.49957091  0.00097756  1
  Na  Na65  1  0.50024752  0.50055330  0.25073350  1
  Na  Na66  1  0.50168567  0.49985985  0.50002517  1
  Na  Na67  1  0.50186800  0.49993696  0.74903650  1
  Na  Na68  1  0.49895432  0.83292983  0.00040507  1
  Na  Na69  1  0.49952880  0.83282091  0.24936863  1
  Na  Na70  1  0.49838584  0.83402591  0.50006674  1
  Na  Na71  1  0.49890617  0.83338115  0.74984912  1
  Na  Na72  1  0.25193163  0.16594007  0.12557870  1
  Na  Na73  1  0.24944988  0.16695281  0.37498297  1
  Na  Na74  1  0.25041627  0.16655843  0.62396557  1
  Na  Na75  1  0.25201493  0.16604858  0.87542284  1
  Na  Na76  1  0.25008513  0.49986786  0.12558503  1
  Na  Na77  1  0.25079024  0.49955229  0.37392543  1
  Na  Na78  1  0.24825353  0.50043119  0.62450025  1
  Na  Na79  1  0.24685254  0.50120800  0.87615243  1
  Na  Na80  1  0.25200621  0.83185667  0.12610840  1
  Na  Na81  1  0.24691219  0.83421299  0.37483238  1
  Na  Na82  1  0.24851238  0.83322781  0.62541009  1
  Na  Na83  1  0.24991917  0.83325873  0.87393670  1
  Na  Na84  1  0.75118697  0.16706917  0.12514377  1
  Na  Na85  1  0.75134967  0.16670242  0.37551760  1
  Na  Na86  1  0.75067865  0.16655906  0.62388237  1
  Na  Na87  1  0.75112317  0.16633585  0.87407966  1
  Na  Na88  1  0.74840582  0.50019028  0.12561401  1
  Na  Na89  1  0.74916161  0.50066953  0.37426663  1
  Na  Na90  1  0.74915586  0.50034100  0.62458588  1
  Na  Na91  1  0.74814702  0.49999494  0.87606926  1
  Na  Na92  1  0.75138674  0.83276424  0.12437856  1
  Na  Na93  1  0.75223998  0.83258537  0.37506360  1
  Na  Na94  1  0.75269746  0.83226792  0.62665894  1
  Na  Na95  1  0.74976819  0.83368250  0.87402589  1
  Mn  Mn96  1  0.89285271  0.58404887  0.87700398  1
  Mn  Mn97  1  0.85849689  0.74919784  0.75287271  1
  Mn  Mn98  1  0.60783782  0.75012792  0.12285294  1
  Mn  Mn99  1  0.39209597  0.25116629  0.87739894  1
  Mn  Mn100  1  0.10756066  0.74974407  0.12260006  1
  Mn  Mn101  1  0.14174274  0.25044022  0.24733783  1
  Mn  Mn102  1  0.35629916  0.74967516  0.50218986  1
  Mn  Mn103  1  0.85756677  0.41719115  0.00228348  1
  Mn  Mn104  1  0.10833679  0.08311068  0.87258262  1
  Mn  Mn105  1  0.35699941  0.74961938  0.75190061  1
  Mn  Mn106  1  0.85770602  0.41749123  0.50175077  1
  Mn  Mn107  1  0.64260220  0.91684010  0.74729049  1
  Mn  Mn108  1  0.85795066  0.74911627  0.00126912  1
  Mn  Mn109  1  0.39253917  0.25100160  0.37695004  1
  Mn  Mn110  1  0.60799654  0.08341574  0.37190643  1
  Mn  Mn111  1  0.89221386  0.91670849  0.12765971  1
  Mn  Mn112  1  0.35676529  0.08367194  0.50245400  1
  Mn  Mn113  1  0.14172882  0.25079849  0.49790778  1
  Mn  Mn114  1  0.64240332  0.24955039  0.74724954  1
  Mn  Mn115  1  0.64230068  0.25030377  0.49791740  1
  Mn  Mn116  1  0.60791526  0.41533672  0.62242897  1
  Mn  Mn117  1  0.35812940  0.74978657  0.25344811  1
  Mn  Mn118  1  0.85851316  0.08247253  0.50293294  1
  Mn  Mn119  1  0.39146517  0.91582349  0.37792176  1
  Mn  Mn120  1  0.89230690  0.25010319  0.87726627  1
  Mn  Mn121  1  0.14181200  0.91702041  0.74740323  1
  Mn  Mn122  1  0.14224247  0.58301516  0.24790939  1
  Mn  Mn123  1  0.64175418  0.91643918  0.99769212  1
  Mn  Mn124  1  0.60798028  0.75160146  0.62224497  1
  Mn  Mn125  1  0.89262914  0.91658742  0.37760465  1
  Mn  Mn126  1  0.39213157  0.58357174  0.62714241  1
  Mn  Mn127  1  0.89283550  0.58322491  0.62756327  1
  Mn  Mn128  1  0.85832237  0.08349969  0.00244919  1
  Mn  Mn129  1  0.35778647  0.41756639  0.00246060  1
  Mn  Mn130  1  0.39166013  0.91575909  0.87744420  1
  Mn  Mn131  1  0.14228314  0.25001021  0.74713525  1
  Mn  Mn132  1  0.14296810  0.91612051  0.99807541  1
  Mn  Mn133  1  0.64247513  0.91572187  0.49854868  1
  Mn  Mn134  1  0.60725892  0.08319382  0.87245242  1
  Mn  Mn135  1  0.35777296  0.41720738  0.75279880  1
  Mn  Mn136  1  0.64268674  0.91695237  0.24744284  1
  Mn  Mn137  1  0.39250163  0.58308680  0.87702906  1
  Mn  Mn138  1  0.60858708  0.75003756  0.37296945  1
  Mn  Mn139  1  0.10746338  0.41581511  0.62234198  1
  Mn  Mn140  1  0.64185505  0.24975687  0.99832626  1
  Mn  Mn141  1  0.60721326  0.08335435  0.12332008  1
  Mn  Mn142  1  0.14248754  0.25025899  0.99878501  1
  Mn  Mn143  1  0.14202572  0.91697724  0.24730371  1
  Fe  Fe144  1  0.89380299  0.91695286  0.62637598  1
  Fe  Fe145  1  0.60709251  0.74983810  0.87357936  1
  Fe  Fe146  1  0.85705976  0.41688263  0.75189004  1
  Fe  Fe147  1  0.60728002  0.41630102  0.12442471  1
  Fe  Fe148  1  0.60689625  0.08314830  0.62412223  1
  Fe  Fe149  1  0.14156987  0.91644965  0.49844762  1
  Fe  Fe150  1  0.89249942  0.24936351  0.62684795  1
  Fe  Fe151  1  0.10711709  0.08420093  0.12356001  1
  Fe  Fe152  1  0.64350826  0.58320361  0.24837745  1
  Fe  Fe153  1  0.39303230  0.58283844  0.12668039  1
  Fe  Fe154  1  0.39262652  0.25078850  0.12752709  1
  Fe  Fe155  1  0.64376220  0.24990948  0.24829863  1
  Fe  Fe156  1  0.39197912  0.91640579  0.12683179  1
  Fe  Fe157  1  0.89266380  0.25062223  0.37616214  1
  Fe  Fe158  1  0.14260248  0.58397477  0.99945444  1
  Fe  Fe159  1  0.89264753  0.58278948  0.37691908  1
  Fe  Fe160  1  0.85771354  0.74974642  0.25157044  1
  Fe  Fe161  1  0.35767708  0.74959329  0.00126248  1
  Fe  Fe162  1  0.89257221  0.25054512  0.12683619  1
  Fe  Fe163  1  0.10712468  0.08338838  0.62394022  1
  Fe  Fe164  1  0.64309439  0.58377841  0.49793967  1
  Fe  Fe165  1  0.35752376  0.08302703  0.00255209  1
  Fe  Fe166  1  0.89319240  0.91596381  0.87644068  1
  Fe  Fe167  1  0.35789209  0.41649431  0.25196065  1
  Fe  Fe168  1  0.10738334  0.41681068  0.87305048  1
  Fe  Fe169  1  0.35659491  0.08392378  0.25178429  1
  Fe  Fe170  1  0.60774312  0.41660539  0.87285602  1
  Fe  Fe171  1  0.10673727  0.08414717  0.37256215  1
  Fe  Fe172  1  0.10708210  0.41649456  0.37303701  1
  Fe  Fe173  1  0.85807876  0.74941847  0.50202819  1
  Fe  Fe174  1  0.64290416  0.58287873  0.74860336  1
  Fe  Fe175  1  0.10835468  0.75012729  0.87394054  1
  Fe  Fe176  1  0.85796039  0.08374234  0.75096730  1
  Fe  Fe177  1  0.35721957  0.41716781  0.50094952  1
  Fe  Fe178  1  0.35738869  0.08346938  0.75053686  1
  Fe  Fe179  1  0.39234493  0.24933049  0.62647333  1
  Fe  Fe180  1  0.64220801  0.58356498  0.99850701  1
  Fe  Fe181  1  0.89230304  0.58244832  0.12625822  1
  Fe  Fe182  1  0.14226233  0.58298747  0.74814239  1
  Fe  Fe183  1  0.10683848  0.41633173  0.12404048  1
  Fe  Fe184  1  0.14251379  0.58273996  0.49722577  1
  Fe  Fe185  1  0.10611965  0.74932872  0.37332245  1
  Fe  Fe186  1  0.10711937  0.75087570  0.62233988  1
  Fe  Fe187  1  0.39362785  0.58321546  0.37716914  1
  Fe  Fe188  1  0.85806579  0.08369350  0.25122126  1
  Fe  Fe189  1  0.60740429  0.41673041  0.37292294  1
  Fe  Fe190  1  0.85726197  0.41684385  0.25163805  1
  Fe  Fe191  1  0.39133643  0.91739795  0.62604238  1
  P  P192  1  0.05172627  0.25018455  0.11031766  1
  P  P193  1  0.05231201  0.25080202  0.36002705  1
  P  P194  1  0.05153491  0.24931664  0.61001172  1
  P  P195  1  0.05395753  0.25070436  0.86020798  1
  P  P196  1  0.05248799  0.58226590  0.11010147  1
  P  P197  1  0.05348494  0.58285376  0.36132058  1
  P  P198  1  0.05544275  0.58364982  0.61018717  1
  P  P199  1  0.05587306  0.58370550  0.86107411  1
  P  P200  1  0.05331564  0.91773321  0.11018368  1
  P  P201  1  0.05475910  0.91636830  0.36137002  1
  P  P202  1  0.05280353  0.91710289  0.60942215  1
  P  P203  1  0.05286975  0.91583818  0.86022327  1
  P  P204  1  0.55333776  0.25051727  0.11209145  1
  P  P205  1  0.55452495  0.25087828  0.35912067  1
  P  P206  1  0.55181756  0.24860093  0.60983270  1
  P  P207  1  0.55338503  0.25085991  0.85999845  1
  P  P208  1  0.55464176  0.58241434  0.11151715  1
  P  P209  1  0.55499314  0.58289533  0.36064245  1
  P  P210  1  0.55569554  0.58329754  0.61037016  1
  P  P211  1  0.55534712  0.58313883  0.86080547  1
  P  P212  1  0.55162154  0.91698602  0.11009630  1
  P  P213  1  0.55309965  0.91638282  0.35953812  1
  P  P214  1  0.55143513  0.91815047  0.61002507  1
  P  P215  1  0.55309979  0.91562944  0.85988355  1
  P  P216  1  0.44413561  0.08329085  0.13956012  1
  P  P217  1  0.44504110  0.08367668  0.38876388  1
  P  P218  1  0.44662027  0.08341322  0.64004032  1
  P  P219  1  0.44440858  0.08353952  0.88971751  1
  P  P220  1  0.44713768  0.41715029  0.14075843  1
  P  P221  1  0.44644078  0.41788586  0.38929502  1
  P  P222  1  0.44511801  0.41625637  0.63840731  1
  P  P223  1  0.44850964  0.41745174  0.89041174  1
  P  P224  1  0.44505037  0.74933125  0.13882611  1
  P  P225  1  0.44698331  0.74847552  0.39061257  1
  P  P226  1  0.44617031  0.75050829  0.63980395  1
  P  P227  1  0.44718951  0.74898828  0.89053247  1
  P  P228  1  0.94747042  0.08421503  0.14057645  1
  P  P229  1  0.94622048  0.08429571  0.38855619  1
  P  P230  1  0.94767498  0.08319872  0.64017288  1
  P  P231  1  0.94568425  0.08237981  0.88866664  1
  P  P232  1  0.94685997  0.41704650  0.14019481  1
  P  P233  1  0.94622789  0.41700998  0.38846303  1
  P  P234  1  0.94578886  0.41633838  0.64068682  1
  P  P235  1  0.94666587  0.41738552  0.88887900  1
  P  P236  1  0.94602040  0.74858477  0.14057062  1
  P  P237  1  0.94538101  0.74866351  0.38941586  1
  P  P238  1  0.94709765  0.75020320  0.63864790  1
  P  P239  1  0.94879294  0.75037949  0.88983052  1
  P  P240  1  0.19552660  0.08409042  0.23533992  1
  P  P241  1  0.19377448  0.08306503  0.48542752  1
  P  P242  1  0.19741756  0.08355388  0.73407033  1
  P  P243  1  0.19704828  0.08358125  0.98656731  1
  P  P244  1  0.19608431  0.41674976  0.23542653  1
  P  P245  1  0.19697554  0.41706873  0.48381097  1
  P  P246  1  0.19540300  0.41732783  0.73597452  1
  P  P247  1  0.19448603  0.41763928  0.98635883  1
  P  P248  1  0.19533956  0.74939988  0.23636295  1
  P  P249  1  0.19377124  0.74999988  0.48534231  1
  P  P250  1  0.19420029  0.74926608  0.73523842  1
  P  P251  1  0.19784117  0.74921035  0.98517119  1
  P  P252  1  0.69856125  0.08430965  0.23498036  1
  P  P253  1  0.69560961  0.08304875  0.48625766  1
  P  P254  1  0.69772836  0.08330245  0.73400013  1
  P  P255  1  0.69680142  0.08350022  0.98457794  1
  P  P256  1  0.69597817  0.41652820  0.23620550  1
  P  P257  1  0.69605283  0.41727236  0.48401373  1
  P  P258  1  0.69668762  0.41692111  0.73588854  1
  P  P259  1  0.69438565  0.41716153  0.98629987  1
  P  P260  1  0.69833113  0.74918632  0.23512030  1
  P  P261  1  0.69865235  0.74951064  0.48505763  1
  P  P262  1  0.69565995  0.74925500  0.73627758  1
  P  P263  1  0.69598609  0.74913694  0.98435519  1
  P  P264  1  0.30427007  0.25019772  0.01608424  1
  P  P265  1  0.30457621  0.25050119  0.26376969  1
  P  P266  1  0.30367899  0.25153347  0.51504032  1
  P  P267  1  0.30443734  0.24924181  0.76384428  1
  P  P268  1  0.30274665  0.58411150  0.01572652  1
  P  P269  1  0.30578135  0.58207180  0.26469988  1
  P  P270  1  0.30298635  0.58247208  0.51337797  1
  P  P271  1  0.30162749  0.58336731  0.76516597  1
  P  P272  1  0.30399535  0.91594251  0.01573421  1
  P  P273  1  0.30423252  0.91758534  0.26435755  1
  P  P274  1  0.30129751  0.91651562  0.51527802  1
  P  P275  1  0.30416840  0.91763449  0.76344303  1
  P  P276  1  0.80394419  0.25060176  0.01591317  1
  P  P277  1  0.80476294  0.25059901  0.26415245  1
  P  P278  1  0.80549160  0.25026310  0.51431138  1
  P  P279  1  0.80494350  0.25005983  0.76346499  1
  P  P280  1  0.80244291  0.58310102  0.01550910  1
  P  P281  1  0.80471203  0.58252177  0.26392605  1
  P  P282  1  0.80371562  0.58388576  0.51395154  1
  P  P283  1  0.80247650  0.58220382  0.76523330  1
  P  P284  1  0.80459609  0.91596697  0.01358178  1
  P  P285  1  0.80387475  0.91701659  0.26507447  1
  P  P286  1  0.80458307  0.91529724  0.51613821  1
  P  P287  1  0.80616203  0.91743253  0.76409814  1
  O  O288  1  0.05519826  0.25015377  0.18700252  1
  O  O289  1  0.05577209  0.25095879  0.43667436  1
  O  O290  1  0.05549741  0.25009043  0.68666302  1
  O  O291  1  0.05705281  0.25013494  0.93696615  1
  O  O292  1  0.05607323  0.58304039  0.18681337  1
  O  O293  1  0.05812657  0.58253182  0.43799391  1
  O  O294  1  0.05910719  0.58288563  0.68699525  1
  O  O295  1  0.05940872  0.58383690  0.93787017  1
  O  O296  1  0.05617533  0.91700987  0.18699563  1
  O  O297  1  0.05800273  0.91645573  0.43813371  1
  O  O298  1  0.05591444  0.91692549  0.68617521  1
  O  O299  1  0.05662941  0.91649897  0.93692638  1
  O  O300  1  0.55885649  0.24970114  0.18865627  1
  O  O301  1  0.55718039  0.25004039  0.43592894  1
  O  O302  1  0.55572868  0.24954934  0.68652309  1
  O  O303  1  0.55616828  0.24995057  0.93679810  1
  O  O304  1  0.55964403  0.58340526  0.18820701  1
  O  O305  1  0.55965445  0.58377172  0.43737175  1
  O  O306  1  0.56004144  0.58318112  0.68715694  1
  O  O307  1  0.55852826  0.58315462  0.93764882  1
  O  O308  1  0.55604458  0.91701083  0.18678252  1
  O  O309  1  0.55683203  0.91650449  0.43629803  1
  O  O310  1  0.55561268  0.91711728  0.68667922  1
  O  O311  1  0.55604200  0.91635186  0.93666980  1
  O  O312  1  0.44065322  0.08340879  0.06267859  1
  O  O313  1  0.44039397  0.08367043  0.31205879  1
  O  O314  1  0.44322013  0.08337426  0.56327076  1
  O  O315  1  0.44041730  0.08345440  0.81297352  1
  O  O316  1  0.44376817  0.41716266  0.06404727  1
  O  O317  1  0.44187724  0.41711318  0.31264379  1
  O  O318  1  0.44110152  0.41741766  0.56166666  1
  O  O319  1  0.44428568  0.41774361  0.81369864  1
  O  O320  1  0.44125658  0.74907841  0.06208557  1
  O  O321  1  0.44413635  0.74902102  0.31379211  1
  O  O322  1  0.44251892  0.74947734  0.56306205  1
  O  O323  1  0.44299403  0.74887814  0.81384649  1
  O  O324  1  0.94405879  0.08357284  0.06382377  1
  O  O325  1  0.94134835  0.08354401  0.31193200  1
  O  O326  1  0.94468092  0.08337024  0.56339181  1
  O  O327  1  0.94163282  0.08328416  0.81196011  1
  O  O328  1  0.94370378  0.41732331  0.06347908  1
  O  O329  1  0.94151795  0.41736506  0.31182473  1
  O  O330  1  0.94284043  0.41758099  0.56385684  1
  O  O331  1  0.94143791  0.41758191  0.81228399  1
  O  O332  1  0.94330750  0.74922351  0.06378354  1
  O  O333  1  0.94060942  0.74926061  0.31271409  1
  O  O334  1  0.94229849  0.74905395  0.56199068  1
  O  O335  1  0.94509668  0.74934090  0.81309992  1
  O  O336  1  0.19151786  0.08390344  0.06318222  1
  O  O337  1  0.19018460  0.08447897  0.31205367  1
  O  O338  1  0.18956281  0.08393966  0.56220792  1
  O  O339  1  0.19403319  0.08354459  0.81086123  1
  O  O340  1  0.19025445  0.41656038  0.06315406  1
  O  O341  1  0.19065575  0.41654052  0.31206318  1
  O  O342  1  0.19317448  0.41628026  0.56053493  1
  O  O343  1  0.19129598  0.41642920  0.81273471  1
  O  O344  1  0.19423573  0.74984194  0.06191447  1
  O  O345  1  0.19020086  0.74912004  0.31304706  1
  O  O346  1  0.19029665  0.75028660  0.56222462  1
  O  O347  1  0.19072959  0.75055479  0.81206360  1
  O  O348  1  0.69310908  0.08356023  0.06136333  1
  O  O349  1  0.69482070  0.08377369  0.31169923  1
  O  O350  1  0.69075909  0.08313034  0.56293669  1
  O  O351  1  0.69340944  0.08330151  0.81068671  1
  O  O352  1  0.69043899  0.41621115  0.06310259  1
  O  O353  1  0.69160928  0.41656957  0.31286362  1
  O  O354  1  0.69335778  0.41616260  0.56085692  1
  O  O355  1  0.69216978  0.41608482  0.81258405  1
  O  O356  1  0.69336185  0.75007800  0.06119881  1
  O  O357  1  0.69476863  0.74961822  0.31178840  1
  O  O358  1  0.69458421  0.75032809  0.56177066  1
  O  O359  1  0.69111225  0.75035449  0.81293976  1
  O  O360  1  0.30875136  0.25094907  0.18704870  1
  O  O361  1  0.30667480  0.25056947  0.43824328  1
  O  O362  1  0.30846284  0.24995277  0.68708719  1
  O  O363  1  0.30677848  0.25112508  0.93922582  1
  O  O364  1  0.30998101  0.58264694  0.18795238  1
  O  O365  1  0.30830564  0.58312960  0.43679998  1
  O  O366  1  0.30574318  0.58319656  0.68846622  1
  O  O367  1  0.30626456  0.58322597  0.93902143  1
  O  O368  1  0.30845769  0.91655626  0.18762596  1
  O  O369  1  0.30513982  0.91656563  0.43853973  1
  O  O370  1  0.30799985  0.91697494  0.68668086  1
  O  O371  1  0.30624480  0.91597653  0.93883530  1
  O  O372  1  0.80927904  0.25063706  0.18743140  1
  O  O373  1  0.80973684  0.25022313  0.43750791  1
  O  O374  1  0.80883137  0.24982181  0.68665248  1
  O  O375  1  0.80719665  0.25061557  0.93909353  1
  O  O376  1  0.80899094  0.58224308  0.18724486  1
  O  O377  1  0.80864745  0.58310933  0.43726518  1
  O  O378  1  0.80644512  0.58303104  0.68853876  1
  O  O379  1  0.80676158  0.58285077  0.93884666  1
  O  O380  1  0.80632455  0.91710992  0.18823764  1
  O  O381  1  0.80753308  0.91643606  0.43931200  1
  O  O382  1  0.81083170  0.91650977  0.68734742  1
  O  O383  1  0.80910276  0.91588660  0.93683659  1
  O  O384  1  0.23459951  0.25051639  0.04142787  1
  O  O385  1  0.23458641  0.25045786  0.28812448  1
  O  O386  1  0.23391337  0.25102373  0.54007309  1
  O  O387  1  0.23461157  0.24958100  0.78861888  1
  O  O388  1  0.23270106  0.58337531  0.04056459  1
  O  O389  1  0.23552852  0.58273037  0.28832089  1
  O  O390  1  0.23250561  0.58293160  0.53668668  1
  O  O391  1  0.23157892  0.58348818  0.78941532  1
  O  O392  1  0.23446647  0.91610784  0.04156127  1
  O  O393  1  0.23420477  0.91749174  0.28844918  1
  O  O394  1  0.23113499  0.91642282  0.53942465  1
  O  O395  1  0.23428451  0.91724349  0.78816106  1
  O  O396  1  0.73420187  0.25066139  0.04070978  1
  O  O397  1  0.73438549  0.25051936  0.28800347  1
  O  O398  1  0.73538228  0.25064749  0.53822195  1
  O  O399  1  0.73507666  0.24974425  0.78818176  1
  O  O400  1  0.73227396  0.58340273  0.03955974  1
  O  O401  1  0.73421726  0.58269398  0.28760257  1
  O  O402  1  0.73340744  0.58329933  0.53763429  1
  O  O403  1  0.73244240  0.58259079  0.78964546  1
  O  O404  1  0.73461300  0.91609471  0.03784239  1
  O  O405  1  0.73446130  0.91674082  0.29111792  1
  O  O406  1  0.73496934  0.91592711  0.54144382  1
  O  O407  1  0.73589379  0.91687646  0.78760828  1
  O  O408  1  0.26605553  0.08392054  0.21252302  1
  O  O409  1  0.26396189  0.08381324  0.46155101  1
  O  O410  1  0.26729245  0.08332173  0.70922085  1
  O  O411  1  0.26755830  0.08335092  0.96342957  1
  O  O412  1  0.26661938  0.41702352  0.21249064  1
  O  O413  1  0.26706978  0.41672107  0.45940456  1
  O  O414  1  0.26528385  0.41748744  0.71151828  1
  O  O415  1  0.26462818  0.41722475  0.96225476  1
  O  O416  1  0.26559453  0.74899096  0.21321211  1
  O  O417  1  0.26371555  0.74988316  0.46069146  1
  O  O418  1  0.26412039  0.74958387  0.71061662  1
  O  O419  1  0.26779223  0.74966120  0.96022057  1
  O  O420  1  0.76863437  0.08416025  0.21038207  1
  O  O421  1  0.76588132  0.08313056  0.46272780  1
  O  O422  1  0.76799844  0.08342665  0.71013456  1
  O  O423  1  0.76659415  0.08345674  0.95990430  1
  O  O424  1  0.76641062  0.41688347  0.21242430  1
  O  O425  1  0.76574832  0.41686770  0.45891313  1
  O  O426  1  0.76682007  0.41703827  0.71155784  1
  O  O427  1  0.76443927  0.41656996  0.96203757  1
  O  O428  1  0.76842303  0.74923400  0.21057349  1
  O  O429  1  0.76865272  0.74959525  0.46050720  1
  O  O430  1  0.76585151  0.74924862  0.71244585  1
  O  O431  1  0.76556215  0.74911972  0.95878135  1
  O  O432  1  0.01747715  0.08387365  0.16538274  1
  O  O433  1  0.01665073  0.08405236  0.41201096  1
  O  O434  1  0.01765472  0.08300748  0.66528200  1
  O  O435  1  0.01564086  0.08335828  0.91312421  1
  O  O436  1  0.01693128  0.41687856  0.16507981  1
  O  O437  1  0.01644950  0.41661639  0.41267011  1
  O  O438  1  0.01559422  0.41673548  0.66543827  1
  O  O439  1  0.01706015  0.41719663  0.91225165  1
  O  O440  1  0.01569831  0.74927293  0.16592259  1
  O  O441  1  0.01584296  0.74928888  0.41272189  1
  O  O442  1  0.01753354  0.75024646  0.66210076  1
  O  O443  1  0.01870521  0.74979726  0.91474203  1
  O  O444  1  0.51412361  0.08341183  0.16414294  1
  O  O445  1  0.51518626  0.08392100  0.41237688  1
  O  O446  1  0.51650480  0.08330639  0.66529110  1
  O  O447  1  0.51444410  0.08341494  0.91395898  1
  O  O448  1  0.51727697  0.41724971  0.16533038  1
  O  O449  1  0.51685745  0.41701135  0.41282929  1
  O  O450  1  0.51517075  0.41643419  0.66265057  1
  O  O451  1  0.51847606  0.41698859  0.91482120  1
  O  O452  1  0.51502797  0.74928403  0.16351231  1
  O  O453  1  0.51650943  0.74930713  0.41605079  1
  O  O454  1  0.51600222  0.75036282  0.66447574  1
  O  O455  1  0.51729635  0.74924054  0.91473870  1
  O  O456  1  0.48285212  0.25049582  0.08876858  1
  O  O457  1  0.48474819  0.25068108  0.33424745  1
  O  O458  1  0.48189050  0.24926058  0.58498983  1
  O  O459  1  0.48377624  0.25086558  0.83470512  1
  O  O460  1  0.48412459  0.58262977  0.08814925  1
  O  O461  1  0.48463318  0.58300956  0.33705224  1
  O  O462  1  0.48547348  0.58308845  0.58675899  1
  O  O463  1  0.48554626  0.58331953  0.83559567  1
  O  O464  1  0.48149913  0.91665383  0.08600244  1
  O  O465  1  0.48324026  0.91609410  0.33504826  1
  O  O466  1  0.48137866  0.91779588  0.58539237  1
  O  O467  1  0.48333288  0.91596908  0.83497652  1
  O  O468  1  0.98180167  0.25066833  0.08524997  1
  O  O469  1  0.98229102  0.25062471  0.33530924  1
  O  O470  1  0.98152081  0.24953202  0.58538338  1
  O  O471  1  0.98421333  0.25018435  0.83531943  1
  O  O472  1  0.98242253  0.58246241  0.08541464  1
  O  O473  1  0.98316280  0.58306873  0.33752783  1
  O  O474  1  0.98537320  0.58288338  0.58601263  1
  O  O475  1  0.98595251  0.58392494  0.83621347  1
  O  O476  1  0.98370629  0.91707420  0.08495703  1
  O  O477  1  0.98485085  0.91647053  0.33660100  1
  O  O478  1  0.98282673  0.91706511  0.58440576  1
  O  O479  1  0.98303521  0.91581749  0.83518756  1
  O  O480  1  0.08593683  0.31525755  0.07811291  1
  O  O481  1  0.08602505  0.31585342  0.32714092  1
  O  O482  1  0.08519133  0.31436921  0.57685692  1
  O  O483  1  0.08764431  0.31597653  0.82783797  1
  O  O484  1  0.08666904  0.64714696  0.07711242  1
  O  O485  1  0.08678906  0.64795896  0.32812249  1
  O  O486  1  0.08879429  0.64892539  0.57749379  1
  O  O487  1  0.08984519  0.64864476  0.82825192  1
  O  O488  1  0.08717140  0.98300622  0.07810056  1
  O  O489  1  0.08841780  0.98156452  0.32868478  1
  O  O490  1  0.08688270  0.98218285  0.57715430  1
  O  O491  1  0.08665339  0.98094336  0.82731657  1
  O  O492  1  0.58640865  0.31583002  0.07910807  1
  O  O493  1  0.58863301  0.31616407  0.32719052  1
  O  O494  1  0.58600874  0.31350149  0.57694134  1
  O  O495  1  0.58759507  0.31605663  0.82793295  1
  O  O496  1  0.58801744  0.64716689  0.07757373  1
  O  O497  1  0.58854952  0.64768228  0.32687950  1
  O  O498  1  0.58919970  0.64837091  0.57716477  1
  O  O499  1  0.58947027  0.64813966  0.82817418  1
  O  O500  1  0.58511316  0.98206111  0.07714900  1
  O  O501  1  0.58680273  0.98151751  0.32673710  1
  O  O502  1  0.58522808  0.98328347  0.57766182  1
  O  O503  1  0.58717998  0.98061644  0.82718367  1
  O  O504  1  0.41039062  0.01809731  0.17216509  1
  O  O505  1  0.41166067  0.01871073  0.42219706  1
  O  O506  1  0.41223369  0.01852708  0.67259572  1
  O  O507  1  0.41050963  0.01853458  0.92264050  1
  O  O508  1  0.41318863  0.35219341  0.17365410  1
  O  O509  1  0.41244789  0.35324152  0.42273291  1
  O  O510  1  0.41173295  0.35082623  0.67087386  1
  O  O511  1  0.41431360  0.35261815  0.92307514  1
  O  O512  1  0.41157821  0.68414209  0.17177486  1
  O  O513  1  0.41310633  0.68310236  0.42267596  1
  O  O514  1  0.41239892  0.68546431  0.67285136  1
  O  O515  1  0.41345296  0.68406289  0.92365061  1
  O  O516  1  0.91323915  0.01937763  0.17345933  1
  O  O517  1  0.91318805  0.01926511  0.42232017  1
  O  O518  1  0.91351780  0.01812901  0.67239996  1
  O  O519  1  0.91271992  0.01681296  0.92132021  1
  O  O520  1  0.91266552  0.35210257  0.17281810  1
  O  O521  1  0.91255231  0.35195368  0.42126547  1
  O  O522  1  0.91182398  0.35099838  0.67252625  1
  O  O523  1  0.91336048  0.35239653  0.92227083  1
  O  O524  1  0.91213648  0.68319814  0.17256287  1
  O  O525  1  0.91244531  0.68347517  0.42280776  1
  O  O526  1  0.91411742  0.68528926  0.67273262  1
  O  O527  1  0.91458198  0.68552678  0.92267539  1
  O  O528  1  0.16227178  0.01919601  0.20181483  1
  O  O529  1  0.16065009  0.01767591  0.45268459  1
  O  O530  1  0.16296638  0.01868444  0.70160371  1
  O  O531  1  0.16407198  0.01846788  0.95295199  1
  O  O532  1  0.16286658  0.35185224  0.20166426  1
  O  O533  1  0.16283681  0.35218043  0.45085031  1
  O  O534  1  0.16204933  0.35232415  0.70236267  1
  O  O535  1  0.16067134  0.35292232  0.95275697  1
  O  O536  1  0.16203208  0.68450932  0.20281553  1
  O  O537  1  0.15997327  0.68482197  0.45261406  1
  O  O538  1  0.16053520  0.68401010  0.70289991  1
  O  O539  1  0.16383628  0.68398777  0.95304912  1
  O  O540  1  0.66466718  0.01932213  0.20207811  1
  O  O541  1  0.66246108  0.01790216  0.45296013  1
  O  O542  1  0.66394060  0.01830855  0.70103791  1
  O  O543  1  0.66285388  0.01845453  0.95200304  1
  O  O544  1  0.66274770  0.35142997  0.20272184  1
  O  O545  1  0.66149914  0.35252966  0.45141766  1
  O  O546  1  0.66342321  0.35186993  0.70221038  1
  O  O547  1  0.66041014  0.35255443  0.95273057  1
  O  O548  1  0.66447414  0.68407192  0.20266280  1
  O  O549  1  0.66488517  0.68441765  0.45242912  1
  O  O550  1  0.66227680  0.68400358  0.70367848  1
  O  O551  1  0.66158519  0.68378714  0.95287937  1
  O  O552  1  0.33878756  0.31515325  0.04852127  1
  O  O553  1  0.33812783  0.31569167  0.29677373  1
  O  O554  1  0.33768660  0.31679272  0.54693818  1
  O  O555  1  0.33814436  0.31425107  0.79715610  1
  O  O556  1  0.33653801  0.64929880  0.04808263  1
  O  O557  1  0.33963121  0.64672328  0.29834255  1
  O  O558  1  0.33604150  0.64738550  0.54737839  1
  O  O559  1  0.33534693  0.64844988  0.79788857  1
  O  O560  1  0.33848236  0.98092837  0.04787883  1
  O  O561  1  0.33752918  0.98289525  0.29699148  1
  O  O562  1  0.33516912  0.98159494  0.54796389  1
  O  O563  1  0.33768350  0.98284665  0.79601666  1
  O  O564  1  0.83814746  0.31554607  0.04846363  1
  O  O565  1  0.83801336  0.31590136  0.29733975  1
  O  O566  1  0.83933123  0.31511006  0.54726889  1
  O  O567  1  0.83824217  0.31543569  0.79638080  1
  O  O568  1  0.83662653  0.64796302  0.04813058  1
  O  O569  1  0.83821286  0.64746142  0.29723563  1
  O  O570  1  0.83684382  0.64897807  0.54732108  1
  O  O571  1  0.83636277  0.64722760  0.79822244  1
  O  O572  1  0.83822311  0.98096408  0.04672386  1
  O  O573  1  0.83805529  0.98222678  0.29722156  1
  O  O574  1  0.83932032  0.98011275  0.54859431  1
  O  O575  1  0.83927289  0.98283557  0.79681943  1
  O  O576  1  0.41026696  0.14832894  0.17242625  1
  O  O577  1  0.41157981  0.14875125  0.42186663  1
  O  O578  1  0.41254117  0.14855628  0.67252633  1
  O  O579  1  0.41077279  0.14853446  0.92282780  1
  O  O580  1  0.41319501  0.48215484  0.17343378  1
  O  O581  1  0.41344441  0.48314255  0.42266704  1
  O  O582  1  0.41167694  0.48114096  0.67212642  1
  O  O583  1  0.41493840  0.48250822  0.92345454  1
  O  O584  1  0.41145313  0.81455131  0.17166643  1
  O  O585  1  0.41205217  0.81322990  0.42274475  1
  O  O586  1  0.41224459  0.81586448  0.67171459  1
  O  O587  1  0.41300333  0.81389875  0.92323832  1
  O  O588  1  0.91348522  0.14937369  0.17289757  1
  O  O589  1  0.91308282  0.14940598  0.42160980  1
  O  O590  1  0.91352254  0.14813817  0.67282588  1
  O  O591  1  0.91164314  0.14713413  0.92191351  1
  O  O592  1  0.91282186  0.48197871  0.17302633  1
  O  O593  1  0.91311717  0.48208391  0.42212892  1
  O  O594  1  0.91147615  0.48110606  0.67367204  1
  O  O595  1  0.91368255  0.48241448  0.92258965  1
  O  O596  1  0.91140653  0.81336977  0.17322009  1
  O  O597  1  0.91195335  0.81354833  0.42299413  1
  O  O598  1  0.91397068  0.81541820  0.67150339  1
  O  O599  1  0.91496949  0.81553796  0.92208587  1
  O  O600  1  0.08548768  0.18501276  0.07765963  1
  O  O601  1  0.08622176  0.18578173  0.32733293  1
  O  O602  1  0.08539959  0.18427939  0.57761477  1
  O  O603  1  0.08815468  0.18575003  0.82762067  1
  O  O604  1  0.08657371  0.51724457  0.07781745  1
  O  O605  1  0.08669219  0.51782103  0.32785601  1
  O  O606  1  0.08950322  0.51887730  0.57688780  1
  O  O607  1  0.08948186  0.51844883  0.82819888  1
  O  O608  1  0.08767727  0.85266199  0.07791726  1
  O  O609  1  0.08818430  0.85109066  0.32865236  1
  O  O610  1  0.08686178  0.85213697  0.57671713  1
  O  O611  1  0.08693014  0.85082991  0.82785694  1
  O  O612  1  0.58626330  0.18562959  0.07798837  1
  O  O613  1  0.58895807  0.18615861  0.32622760  1
  O  O614  1  0.58553296  0.18337049  0.57753564  1
  O  O615  1  0.58741119  0.18583914  0.82727894  1
  O  O616  1  0.58784372  0.51718173  0.07864084  1
  O  O617  1  0.58838574  0.51768812  0.32764078  1
  O  O618  1  0.58940261  0.51841237  0.57715925  1
  O  O619  1  0.58923710  0.51792012  0.82805734  1
  O  O620  1  0.58552072  0.85188792  0.07753535  1
  O  O621  1  0.58709209  0.85123537  0.32710077  1
  O  O622  1  0.58542228  0.85318116  0.57688764  1
  O  O623  1  0.58696199  0.85035193  0.82774588  1
  O  O624  1  0.33850343  0.18508381  0.04798688  1
  O  O625  1  0.33801637  0.18535648  0.29667571  1
  O  O626  1  0.33807119  0.18665094  0.54778079  1
  O  O627  1  0.33791822  0.18385576  0.79620629  1
  O  O628  1  0.33717664  0.51935801  0.04873456  1
  O  O629  1  0.33896859  0.51675530  0.29763492  1
  O  O630  1  0.33592298  0.51723116  0.54667256  1
  O  O631  1  0.33534388  0.51851303  0.79843728  1
  O  O632  1  0.33831817  0.85073922  0.04767198  1
  O  O633  1  0.33752835  0.85246106  0.29778347  1
  O  O634  1  0.33531436  0.85169328  0.54809930  1
  O  O635  1  0.33783454  0.85256405  0.79657740  1
  O  O636  1  0.83827028  0.18567533  0.04835820  1
  O  O637  1  0.83831528  0.18570034  0.29752025  1
  O  O638  1  0.83893949  0.18517846  0.54751347  1
  O  O639  1  0.83879424  0.18494029  0.79614533  1
  O  O640  1  0.83600353  0.51811432  0.04879795  1
  O  O641  1  0.83783956  0.51741131  0.29757635  1
  O  O642  1  0.83712232  0.51894883  0.54742114  1
  O  O643  1  0.83603404  0.51710838  0.79795991  1
  O  O644  1  0.83810314  0.85087783  0.04656616  1
  O  O645  1  0.83836668  0.85178426  0.29685253  1
  O  O646  1  0.83868793  0.84999563  0.54794583  1
  O  O647  1  0.83992038  0.85260856  0.79775195  1
  O  O648  1  0.16249657  0.14906093  0.20152179  1
  O  O649  1  0.15999568  0.14794157  0.45194953  1
  O  O650  1  0.16327056  0.14838875  0.70123108  1
  O  O651  1  0.16418305  0.14864740  0.95286860  1
  O  O652  1  0.16261238  0.48161815  0.20201360  1
  O  O653  1  0.16305508  0.48209977  0.45110938  1
  O  O654  1  0.16161681  0.48243440  0.70339372  1
  O  O655  1  0.16109436  0.48304442  0.95393236  1
  O  O656  1  0.16244982  0.81456506  0.20295043  1
  O  O657  1  0.15995518  0.81505436  0.45263611  1
  O  O658  1  0.16018776  0.81410673  0.70191955  1
  O  O659  1  0.16360888  0.81398630  0.95206531  1
  O  O660  1  0.66470725  0.14946519  0.20249138  1
  O  O661  1  0.66246912  0.14817922  0.45286163  1
  O  O662  1  0.66382647  0.14819512  0.70095096  1
  O  O663  1  0.66305019  0.14875662  0.95211501  1
  O  O664  1  0.66230693  0.48145571  0.20297375  1
  O  O665  1  0.66205049  0.48257215  0.45208289  1
  O  O666  1  0.66296411  0.48197008  0.70318725  1
  O  O667  1  0.66112534  0.48267743  0.95381155  1
  O  O668  1  0.66450302  0.81418429  0.20218664  1
  O  O669  1  0.66484950  0.81452729  0.45214099  1
  O  O670  1  0.66252219  0.81429819  0.70242938  1
  O  O671  1  0.66147316  0.81386555  0.95164540  1
