# generated using pymatgen
data_Na2MnFe(PO4)2
_symmetry_space_group_name_H-M   'P 1'
_cell_length_a   21.08438122
_cell_length_b   18.93690330
_cell_length_c   20.04366750
_cell_angle_alpha   89.99984171
_cell_angle_beta   89.99671683
_cell_angle_gamma   90.00026007
_symmetry_Int_Tables_number   1
_chemical_formula_structural   Na2MnFe(PO4)2
_chemical_formula_sum   'Na96 Mn48 Fe48 P96 O384'
_cell_volume   8002.89299863
_cell_formula_units_Z   48
loop_
 _symmetry_equiv_pos_site_id
 _symmetry_equiv_pos_as_xyz
  1  'x, y, z'
loop_
 _atom_site_type_symbol
 _atom_site_label
 _atom_site_symmetry_multiplicity
 _atom_site_fract_x
 _atom_site_fract_y
 _atom_site_fract_z
 _atom_site_occupancy
  Na  Na0  1  0.00027170  -0.00047131  -0.00026301  1
  Na  Na1  1  0.00033888  -0.00065123  0.25098097  1
  Na  Na2  1  0.00245944  0.00067054  0.49957614  1
  Na  Na3  1  0.00042437  -0.00080743  0.75036814  1
  Na  Na4  1  -0.00219433  0.33216876  0.00132774  1
  Na  Na5  1  0.00192474  0.33464198  0.24917017  1
  Na  Na6  1  0.00061869  0.33385106  0.50043492  1
  Na  Na7  1  -0.00043994  0.33372549  0.74928889  1
  Na  Na8  1  -0.00231653  0.66630239  0.00102789  1
  Na  Na9  1  -0.00049112  0.66691433  0.24923988  1
  Na  Na10  1  -0.00123135  0.66616013  0.49906629  1
  Na  Na11  1  -0.00239172  0.66590093  0.74970324  1
  Na  Na12  1  0.50260447  -0.00021310  0.00053530  1
  Na  Na13  1  0.50232127  0.00032874  0.24959834  1
  Na  Na14  1  0.49975664  -0.00067887  0.49944481  1
  Na  Na15  1  0.49957632  -0.00130438  0.75092729  1
  Na  Na16  1  0.49708986  0.33293179  -0.00061575  1
  Na  Na17  1  0.49897231  0.33452265  0.24992315  1
  Na  Na18  1  0.49654793  0.33298896  0.49971752  1
  Na  Na19  1  0.49821195  0.33391027  0.74978228  1
  Na  Na20  1  0.50011071  0.66649278  0.00096642  1
  Na  Na21  1  0.49835665  0.66600356  0.25003810  1
  Na  Na22  1  0.49986034  0.66673140  0.49884207  1
  Na  Na23  1  0.50000105  0.66641842  0.75070137  1
  Na  Na24  1  0.24924791  -0.00032067  0.12598790  1
  Na  Na25  1  0.24831274  -0.00140500  0.37361054  1
  Na  Na26  1  0.24877877  -0.00106677  0.62540712  1
  Na  Na27  1  0.24890401  -0.00065553  0.87564013  1
  Na  Na28  1  0.25221554  0.33443548  0.12626782  1
  Na  Na29  1  0.25099119  0.33364973  0.37422913  1
  Na  Na30  1  0.25159080  0.33376219  0.62412661  1
  Na  Na31  1  0.25174571  0.33397725  0.87481946  1
  Na  Na32  1  0.24980801  0.66669558  0.12475950  1
  Na  Na33  1  0.24966811  0.66661246  0.37506802  1
  Na  Na34  1  0.25090416  0.66651775  0.62483850  1
  Na  Na35  1  0.25200455  0.66759009  0.87543999  1
  Na  Na36  1  0.74891544  -0.00087689  0.12373263  1
  Na  Na37  1  0.74900161  -0.00071263  0.37437645  1
  Na  Na38  1  0.75087148  0.00054847  0.62561066  1
  Na  Na39  1  0.74902129  -0.00035248  0.87589605  1
  Na  Na40  1  0.74989871  0.33394353  0.12512737  1
  Na  Na41  1  0.74870907  0.33340678  0.37444499  1
  Na  Na42  1  0.75102655  0.33439215  0.62485400  1
  Na  Na43  1  0.75132613  0.33439555  0.87631141  1
  Na  Na44  1  0.75232765  0.66730529  0.12480494  1
  Na  Na45  1  0.75231188  0.66662210  0.37546053  1
  Na  Na46  1  0.75014970  0.66625027  0.62497019  1
  Na  Na47  1  0.75020672  0.66652778  0.87434854  1
  Na  Na48  1  0.00025740  0.16676698  0.00102037  1
  Na  Na49  1  0.00256872  0.16572782  0.24996506  1
  Na  Na50  1  0.00189042  0.16689189  0.49945529  1
  Na  Na51  1  0.00040864  0.16731737  0.74986073  1
  Na  Na52  1  -0.00279469  0.50136948  0.00128586  1
  Na  Na53  1  -0.00040228  0.50040706  0.24918775  1
  Na  Na54  1  -0.00117052  0.50054241  0.49976391  1
  Na  Na55  1  -0.00210547  0.50037226  0.74983187  1
  Na  Na56  1  -0.00139101  0.83375587  -0.00022444  1
  Na  Na57  1  -0.00015909  0.83281361  0.25027997  1
  Na  Na58  1  0.00085308  0.83245584  0.49985109  1
  Na  Na59  1  -0.00007198  0.83317980  0.74972546  1
  Na  Na60  1  0.50153708  0.16571614  0.00018134  1
  Na  Na61  1  0.49839446  0.16780085  0.24999653  1
  Na  Na62  1  0.49758481  0.16723550  0.50038676  1
  Na  Na63  1  0.49990180  0.16626112  0.74977130  1
  Na  Na64  1  0.50046458  0.49940828  -0.00031870  1
  Na  Na65  1  0.50020019  0.49983449  0.24982801  1
  Na  Na66  1  0.49910351  0.50017026  0.49954623  1
  Na  Na67  1  0.49667159  0.50159678  0.75024736  1
  Na  Na68  1  0.49999416  0.83343036  0.00150669  1
  Na  Na69  1  0.49911310  0.83367466  0.24924509  1
  Na  Na70  1  0.49968318  0.83292482  0.49839604  1
  Na  Na71  1  0.50166240  0.83215424  0.75126957  1
  Na  Na72  1  0.24894288  0.16692293  0.12567384  1
  Na  Na73  1  0.24925280  0.16742328  0.37404714  1
  Na  Na74  1  0.25032796  0.16672419  0.62402685  1
  Na  Na75  1  0.24871513  0.16736366  0.87601216  1
  Na  Na76  1  0.25143686  0.50008235  0.12508459  1
  Na  Na77  1  0.25155910  0.49997508  0.37501397  1
  Na  Na78  1  0.25330335  0.49968249  0.62506716  1
  Na  Na79  1  0.25327360  0.49958465  0.87450798  1
  Na  Na80  1  0.25101660  0.83196564  0.12613770  1
  Na  Na81  1  0.24848213  0.83335245  0.37376963  1
  Na  Na82  1  0.24841164  0.83360416  0.62515530  1
  Na  Na83  1  0.24886297  0.83396706  0.87553659  1
  Na  Na84  1  0.74955836  0.16658487  0.12375806  1
  Na  Na85  1  0.75105901  0.16598963  0.37523676  1
  Na  Na86  1  0.74995247  0.16726281  0.62551098  1
  Na  Na87  1  0.74984362  0.16616618  0.87608938  1
  Na  Na88  1  0.74960752  0.50051888  0.12572637  1
  Na  Na89  1  0.75004691  0.50012806  0.37366597  1
  Na  Na90  1  0.75075366  0.50020091  0.62444369  1
  Na  Na91  1  0.75087426  0.49999826  0.87531197  1
  Na  Na92  1  0.75094777  0.83358261  0.12440293  1
  Na  Na93  1  0.75111266  0.83267964  0.37508233  1
  Na  Na94  1  0.75008725  0.83267310  0.62576746  1
  Na  Na95  1  0.75009460  0.83286382  0.87490327  1
  Mn  Mn96  1  0.64186422  0.25063775  0.99761071  1
  Mn  Mn97  1  0.64203378  0.25051791  0.74795871  1
  Mn  Mn98  1  0.64195701  0.91670572  0.74768824  1
  Mn  Mn99  1  0.35748941  0.75028711  0.50227175  1
  Mn  Mn100  1  0.85739619  0.75034313  0.75234499  1
  Mn  Mn101  1  0.85830622  0.41618147  0.75273467  1
  Mn  Mn102  1  0.14235263  0.58343457  0.99741538  1
  Mn  Mn103  1  0.35719626  0.08274252  0.50184178  1
  Mn  Mn104  1  0.85814267  0.08355030  0.75266117  1
  Mn  Mn105  1  0.10753360  0.08373689  0.87290010  1
  Mn  Mn106  1  0.35848645  0.75023855  0.75243583  1
  Mn  Mn107  1  0.10830554  0.41762783  0.62278713  1
  Mn  Mn108  1  0.10711244  0.74914776  0.87343630  1
  Mn  Mn109  1  0.14240620  0.58305829  0.74832273  1
  Mn  Mn110  1  0.14263814  0.25049806  0.99788711  1
  Mn  Mn111  1  0.64130846  0.24911024  0.24768979  1
  Mn  Mn112  1  0.85754131  0.41609630  0.25282728  1
  Mn  Mn113  1  0.89271828  0.91669579  0.37757722  1
  Mn  Mn114  1  0.60699882  0.08291816  0.62238824  1
  Mn  Mn115  1  0.64269202  0.58419455  0.24801838  1
  Mn  Mn116  1  0.60664064  0.41707505  0.62239480  1
  Mn  Mn117  1  0.14312245  0.25014127  0.49708571  1
  Mn  Mn118  1  0.60803299  0.08424900  0.37254293  1
  Mn  Mn119  1  0.35769152  0.08302655  0.25200914  1
  Mn  Mn120  1  0.85742623  0.08315753  0.00259449  1
  Mn  Mn121  1  0.60825312  0.74949733  0.37220473  1
  Mn  Mn122  1  0.10746700  0.41708825  0.87352840  1
  Mn  Mn123  1  0.10814545  0.41720185  0.12222514  1
  Mn  Mn124  1  0.35745029  0.08323462  0.75258811  1
  Mn  Mn125  1  0.85865646  0.08360111  0.50214740  1
  Mn  Mn126  1  0.64128552  0.25095466  0.49787455  1
  Mn  Mn127  1  0.39166232  0.24935049  0.87751131  1
  Mn  Mn128  1  0.14237725  0.58341651  0.49753893  1
  Mn  Mn129  1  0.35802678  0.08278747  0.00303559  1
  Mn  Mn130  1  0.60710117  0.41661062  0.87279254  1
  Mn  Mn131  1  0.10872614  0.08344979  0.62280904  1
  Mn  Mn132  1  0.60814253  0.74958757  0.12291904  1
  Mn  Mn133  1  0.89219776  0.25014307  0.62710523  1
  Mn  Mn134  1  0.39245539  0.58355351  0.12747566  1
  Mn  Mn135  1  0.64174448  0.58272868  0.74778997  1
  Mn  Mn136  1  0.64204455  0.91620068  0.49824352  1
  Mn  Mn137  1  0.14184963  0.91602443  0.24666006  1
  Mn  Mn138  1  0.39231104  0.91681990  0.37691330  1
  Mn  Mn139  1  0.89317740  0.25098136  0.37674411  1
  Mn  Mn140  1  0.10762855  0.74900165  0.62296225  1
  Mn  Mn141  1  0.89276096  0.91668772  0.62694169  1
  Mn  Mn142  1  0.89243958  0.24898749  0.12832848  1
  Mn  Mn143  1  0.39217649  0.91611240  0.87818308  1
  Fe  Fe144  1  0.14250383  0.91624638  0.49833782  1
  Fe  Fe145  1  0.89268677  0.91678591  0.87710810  1
  Fe  Fe146  1  0.60624653  0.41672450  0.37388869  1
  Fe  Fe147  1  0.60769777  0.08397859  0.12396651  1
  Fe  Fe148  1  0.10703637  0.08220966  0.12334342  1
  Fe  Fe149  1  0.89251820  0.91672862  0.12646970  1
  Fe  Fe150  1  0.39184431  0.24949141  0.62757226  1
  Fe  Fe151  1  0.60658495  0.41628240  0.12323072  1
  Fe  Fe152  1  0.35750886  0.41762250  0.25202574  1
  Fe  Fe153  1  0.89320673  0.58274096  0.37653661  1
  Fe  Fe154  1  0.14216337  0.91669681  0.74857604  1
  Fe  Fe155  1  0.85713031  0.74978826  0.00140260  1
  Fe  Fe156  1  0.85692242  0.41731928  0.00209100  1
  Fe  Fe157  1  0.39298834  0.58431515  0.87729808  1
  Fe  Fe158  1  0.85810449  0.75094764  0.25174570  1
  Fe  Fe159  1  0.39343635  0.91726332  0.12642430  1
  Fe  Fe160  1  0.35716652  0.41641387  0.75148155  1
  Fe  Fe161  1  0.10662046  0.75045999  0.12304941  1
  Fe  Fe162  1  0.14252906  0.91607396  0.99921987  1
  Fe  Fe163  1  0.39185585  0.91601183  0.62662719  1
  Fe  Fe164  1  0.85735134  0.41691362  0.50051316  1
  Fe  Fe165  1  0.64354765  0.91644893  0.24815844  1
  Fe  Fe166  1  0.14246489  0.25052316  0.74857866  1
  Fe  Fe167  1  0.89258952  0.25012322  0.87668066  1
  Fe  Fe168  1  0.64353859  0.58390998  0.99854213  1
  Fe  Fe169  1  0.39236246  0.58326509  0.37678495  1
  Fe  Fe170  1  0.35759650  0.75041433  0.00223592  1
  Fe  Fe171  1  0.60703962  0.74972181  0.62302024  1
  Fe  Fe172  1  0.64289815  0.58304103  0.49821185  1
  Fe  Fe173  1  0.89200845  0.58314303  0.62619568  1
  Fe  Fe174  1  0.89156252  0.58309636  0.87746250  1
  Fe  Fe175  1  0.85752180  0.08305560  0.25126619  1
  Fe  Fe176  1  0.39274943  0.24925557  0.12649457  1
  Fe  Fe177  1  0.85744551  0.74933220  0.50185015  1
  Fe  Fe178  1  0.39205855  0.25028799  0.37637125  1
  Fe  Fe179  1  0.35646745  0.74926368  0.25154774  1
  Fe  Fe180  1  0.10671234  0.74891411  0.37286055  1
  Fe  Fe181  1  0.10789153  0.08367672  0.37248375  1
  Fe  Fe182  1  0.60742074  0.08307244  0.87302483  1
  Fe  Fe183  1  0.35761140  0.41704025  0.50154219  1
  Fe  Fe184  1  0.89254537  0.58402810  0.12718933  1
  Fe  Fe185  1  0.39321502  0.58426988  0.62655867  1
  Fe  Fe186  1  0.10823085  0.41739679  0.37340228  1
  Fe  Fe187  1  0.35795635  0.41718623  0.00232502  1
  Fe  Fe188  1  0.60744709  0.74983714  0.87435029  1
  Fe  Fe189  1  0.14274861  0.58294390  0.24876501  1
  Fe  Fe190  1  0.14361061  0.25108851  0.24835848  1
  Fe  Fe191  1  0.64307468  0.91533736  0.99830797  1
  P  P192  1  0.05517450  0.24937569  0.11159112  1
  P  P193  1  0.05492797  0.25105043  0.35912711  1
  P  P194  1  0.05505732  0.25061270  0.61068641  1
  P  P195  1  0.05258195  0.25078622  0.85984049  1
  P  P196  1  0.05358478  0.58449237  0.11137667  1
  P  P197  1  0.05296882  0.58322304  0.35933141  1
  P  P198  1  0.05188026  0.58332713  0.60965336  1
  P  P199  1  0.05112743  0.58318152  0.86031485  1
  P  P200  1  0.05251567  0.91605387  0.10978063  1
  P  P201  1  0.05505280  0.91584830  0.36111225  1
  P  P202  1  0.05534835  0.91625818  0.61023131  1
  P  P203  1  0.05368870  0.91605857  0.86106141  1
  P  P204  1  0.55204228  0.25064959  0.11019904  1
  P  P205  1  0.55141507  0.25137811  0.36016530  1
  P  P206  1  0.55099473  0.25044167  0.61012566  1
  P  P207  1  0.55284719  0.24957608  0.86006657  1
  P  P208  1  0.55437739  0.58258281  0.10970650  1
  P  P209  1  0.55327853  0.58242333  0.36100259  1
  P  P210  1  0.55269247  0.58397379  0.60927327  1
  P  P211  1  0.55359090  0.58419382  0.86178277  1
  P  P212  1  0.55502714  0.91696391  0.11103039  1
  P  P213  1  0.55458908  0.91629352  0.35878618  1
  P  P214  1  0.55148616  0.91528789  0.61001382  1
  P  P215  1  0.55496608  0.91579376  0.86203809  1
  P  P216  1  0.44807450  0.08285799  0.13979964  1
  P  P217  1  0.44669013  0.08380542  0.38975847  1
  P  P218  1  0.44580206  0.08226316  0.64005113  1
  P  P219  1  0.44791132  0.08265883  0.89052926  1
  P  P220  1  0.44565105  0.41632264  0.13946559  1
  P  P221  1  0.44499529  0.41732716  0.38891488  1
  P  P222  1  0.44418408  0.41731177  0.63904686  1
  P  P223  1  0.44425644  0.41765515  0.88928316  1
  P  P224  1  0.44500065  0.75090793  0.13964024  1
  P  P225  1  0.44522262  0.74919921  0.38819969  1
  P  P226  1  0.44775589  0.74998459  0.63972529  1
  P  P227  1  0.44737822  0.74952235  0.89140729  1
  P  P228  1  0.94732527  0.08174729  0.14100807  1
  P  P229  1  0.94754381  0.08369350  0.38856563  1
  P  P230  1  0.94752645  0.08336336  0.64025659  1
  P  P231  1  0.94662754  0.08355953  0.89020434  1
  P  P232  1  0.94512146  0.41747140  0.13908569  1
  P  P233  1  0.94803728  0.41745607  0.38999079  1
  P  P234  1  0.94533885  0.41761971  0.63846826  1
  P  P235  1  0.94588662  0.41654880  0.89128250  1
  P  P236  1  0.94532171  0.75065603  0.13901777  1
  P  P237  1  0.94579643  0.74914325  0.38903636  1
  P  P238  1  0.94503957  0.74909410  0.63865517  1
  P  P239  1  0.94542181  0.74989168  0.89061626  1
  P  P240  1  0.19464260  0.08417941  0.23539143  1
  P  P241  1  0.19620547  0.08230800  0.48375055  1
  P  P242  1  0.19634564  0.08366778  0.73548414  1
  P  P243  1  0.19544734  0.08197741  0.98675980  1
  P  P244  1  0.19676436  0.41756367  0.23638481  1
  P  P245  1  0.19796599  0.41711285  0.48420118  1
  P  P246  1  0.19793152  0.41646219  0.73515581  1
  P  P247  1  0.19874244  0.41706675  0.98490116  1
  P  P248  1  0.19516691  0.74833247  0.23547867  1
  P  P249  1  0.19577075  0.75036583  0.48412038  1
  P  P250  1  0.19662429  0.75004203  0.73546286  1
  P  P251  1  0.19654569  0.75085328  0.98658467  1
  P  P252  1  0.69751002  0.08259569  0.23405984  1
  P  P253  1  0.69691347  0.08349495  0.48497316  1
  P  P254  1  0.69556289  0.08352135  0.73593280  1
  P  P255  1  0.69398921  0.08255129  0.98595942  1
  P  P256  1  0.69422962  0.41661717  0.23551694  1
  P  P257  1  0.69678805  0.41807218  0.48424718  1
  P  P258  1  0.69667270  0.41687056  0.73467767  1
  P  P259  1  0.69623238  0.41792141  0.98657156  1
  P  P260  1  0.69869548  0.75056029  0.23491929  1
  P  P261  1  0.69662613  0.74868358  0.48619110  1
  P  P262  1  0.69445806  0.74958232  0.73541877  1
  P  P263  1  0.69747429  0.74940312  0.98493792  1
  P  P264  1  0.30412784  0.25051103  0.01616224  1
  P  P265  1  0.30466239  0.25066525  0.26390654  1
  P  P266  1  0.30556331  0.25072180  0.51381542  1
  P  P267  1  0.30301126  0.25033404  0.76404117  1
  P  P268  1  0.30487015  0.58394251  0.01394685  1
  P  P269  1  0.30306851  0.58375280  0.26538297  1
  P  P270  1  0.30518310  0.58291645  0.51426390  1
  P  P271  1  0.30570427  0.58317387  0.76455767  1
  P  P272  1  0.30278741  0.91583054  0.01633253  1
  P  P273  1  0.30456146  0.91570201  0.26328539  1
  P  P274  1  0.30219699  0.91632755  0.51522344  1
  P  P275  1  0.30303362  0.91639103  0.76456253  1
  P  P276  1  0.80444513  0.25086886  0.01431415  1
  P  P277  1  0.80291115  0.24864932  0.26505164  1
  P  P278  1  0.80319725  0.25140155  0.51455739  1
  P  P279  1  0.80366046  0.25001927  0.76649147  1
  P  P280  1  0.80426523  0.58356296  0.01459336  1
  P  P281  1  0.80573897  0.58438683  0.26448378  1
  P  P282  1  0.80433918  0.58274270  0.51364905  1
  P  P283  1  0.80469892  0.58328035  0.76466582  1
  P  P284  1  0.80414739  0.91565986  0.01406280  1
  P  P285  1  0.80422033  0.91714336  0.26339304  1
  P  P286  1  0.80350732  0.91576577  0.51499964  1
  P  P287  1  0.80397626  0.91681123  0.76606280  1
  O  O288  1  0.05984094  0.25087255  0.18822787  1
  O  O289  1  0.05737326  0.25107790  0.43602505  1
  O  O290  1  0.05940792  0.25083272  0.68745394  1
  O  O291  1  0.05661797  0.25071476  0.93665553  1
  O  O292  1  0.05874230  0.58346451  0.18792635  1
  O  O293  1  0.05641539  0.58320502  0.43605912  1
  O  O294  1  0.05604456  0.58320444  0.68631078  1
  O  O295  1  0.05564154  0.58332848  0.93702904  1
  O  O296  1  0.05597823  0.91572973  0.18642932  1
  O  O297  1  0.05871987  0.91601465  0.43796830  1
  O  O298  1  0.05926529  0.91619367  0.68707466  1
  O  O299  1  0.05861864  0.91600778  0.93776298  1
  O  O300  1  0.55524008  0.25077096  0.18689648  1
  O  O301  1  0.55497445  0.25069287  0.43689007  1
  O  O302  1  0.55536375  0.25076880  0.68674252  1
  O  O303  1  0.55601077  0.25057395  0.93658599  1
  O  O304  1  0.55712851  0.58383350  0.18645046  1
  O  O305  1  0.55824788  0.58328766  0.43760099  1
  O  O306  1  0.55603451  0.58305031  0.68604947  1
  O  O307  1  0.55872548  0.58342768  0.93839709  1
  O  O308  1  0.55984551  0.91595453  0.18774408  1
  O  O309  1  0.55757299  0.91579815  0.43556226  1
  O  O310  1  0.55533529  0.91584694  0.68674865  1
  O  O311  1  0.55907424  0.91551634  0.93878408  1
  O  O312  1  0.44463167  0.08247295  0.06316522  1
  O  O313  1  0.44370568  0.08303850  0.31288691  1
  O  O314  1  0.44291563  0.08220843  0.56328464  1
  O  O315  1  0.44349970  0.08258702  0.81387772  1
  O  O316  1  0.44126591  0.41722203  0.06275156  1
  O  O317  1  0.44087813  0.41770511  0.31210989  1
  O  O318  1  0.44108294  0.41711624  0.56219468  1
  O  O319  1  0.44030791  0.41686210  0.81250043  1
  O  O320  1  0.44105460  0.75013361  0.06292802  1
  O  O321  1  0.44071527  0.74955596  0.31147874  1
  O  O322  1  0.44415315  0.75028154  0.56303888  1
  O  O323  1  0.44387118  0.75017257  0.81465171  1
  O  O324  1  0.94325852  0.08270689  0.06374451  1
  O  O325  1  0.94218778  0.08327484  0.31199236  1
  O  O326  1  0.94458842  0.08347842  0.56336948  1
  O  O327  1  0.94410956  0.08338239  0.81362888  1
  O  O328  1  0.94051673  0.41694692  0.06238807  1
  O  O329  1  0.94406809  0.41662322  0.31331718  1
  O  O330  1  0.94124986  0.41687595  0.56174316  1
  O  O331  1  0.94375723  0.41655067  0.81441737  1
  O  O332  1  0.94064873  0.75041246  0.06235092  1
  O  O333  1  0.94146312  0.75035182  0.31228390  1
  O  O334  1  0.94125305  0.74976248  0.56181703  1
  O  O335  1  0.94300075  0.75006739  0.81384937  1
  O  O336  1  0.19116551  0.08242150  0.06351330  1
  O  O337  1  0.19081736  0.08326729  0.31219385  1
  O  O338  1  0.19385828  0.08323767  0.56058055  1
  O  O339  1  0.19361806  0.08376343  0.81233131  1
  O  O340  1  0.19447204  0.41736661  0.06164672  1
  O  O341  1  0.19208146  0.41759908  0.31300925  1
  O  O342  1  0.19414540  0.41736991  0.56089925  1
  O  O343  1  0.19407276  0.41720062  0.81183750  1
  O  O344  1  0.19136394  0.75001230  0.06324511  1
  O  O345  1  0.19041924  0.74906591  0.31212370  1
  O  O346  1  0.19296597  0.74910865  0.56092892  1
  O  O347  1  0.19341240  0.74935175  0.81224904  1
  O  O348  1  0.69002703  0.08360665  0.06264408  1
  O  O349  1  0.69388003  0.08366105  0.31083123  1
  O  O350  1  0.69329466  0.08364741  0.56177754  1
  O  O351  1  0.69107339  0.08330863  0.81275103  1
  O  O352  1  0.69127078  0.41682820  0.06325077  1
  O  O353  1  0.68957733  0.41652289  0.31227674  1
  O  O354  1  0.69294263  0.41749955  0.56096690  1
  O  O355  1  0.69299566  0.41706724  0.81146958  1
  O  O356  1  0.69414840  0.74963511  0.06165568  1
  O  O357  1  0.69482546  0.74963501  0.31161882  1
  O  O358  1  0.69151193  0.74938289  0.56283466  1
  O  O359  1  0.69035359  0.74945954  0.81217042  1
  O  O360  1  0.30951770  0.24961736  0.18722296  1
  O  O361  1  0.30924488  0.24994868  0.43695424  1
  O  O362  1  0.30769360  0.24941781  0.68728383  1
  O  O363  1  0.30668854  0.24936926  0.93937968  1
  O  O364  1  0.30658235  0.58365370  0.18839735  1
  O  O365  1  0.30890862  0.58375792  0.43750668  1
  O  O366  1  0.30962134  0.58454736  0.68774644  1
  O  O367  1  0.30887794  0.58424110  0.93732607  1
  O  O368  1  0.30928862  0.91687157  0.18664815  1
  O  O369  1  0.30631571  0.91614169  0.43850422  1
  O  O370  1  0.30827191  0.91594728  0.68791878  1
  O  O371  1  0.30615612  0.91663549  0.93953644  1
  O  O372  1  0.80614952  0.24963974  0.18821712  1
  O  O373  1  0.80666161  0.25064810  0.43779888  1
  O  O374  1  0.80692995  0.25007398  0.68965033  1
  O  O375  1  0.80888217  0.24996992  0.93758329  1
  O  O376  1  0.80953363  0.58361016  0.18766430  1
  O  O377  1  0.80896263  0.58273915  0.43692081  1
  O  O378  1  0.80867138  0.58328716  0.68788021  1
  O  O379  1  0.80807723  0.58330947  0.93780319  1
  O  O380  1  0.80846774  0.91706264  0.18665900  1
  O  O381  1  0.80658532  0.91632216  0.43827310  1
  O  O382  1  0.80742613  0.91684917  0.68929713  1
  O  O383  1  0.80896176  0.91674413  0.93748516  1
  O  O384  1  0.23448760  0.25056970  0.04150532  1
  O  O385  1  0.23421180  0.25063280  0.28734800  1
  O  O386  1  0.23552078  0.25022463  0.53798883  1
  O  O387  1  0.23289086  0.25069256  0.78839263  1
  O  O388  1  0.23499084  0.58364183  0.03866890  1
  O  O389  1  0.23303265  0.58340736  0.28980875  1
  O  O390  1  0.23519759  0.58338664  0.53873002  1
  O  O391  1  0.23572061  0.58363045  0.78909044  1
  O  O392  1  0.23281796  0.91583540  0.04118709  1
  O  O393  1  0.23431005  0.91572019  0.28676108  1
  O  O394  1  0.23202181  0.91609852  0.53925179  1
  O  O395  1  0.23264010  0.91658152  0.78809581  1
  O  O396  1  0.73453728  0.25034923  0.03833407  1
  O  O397  1  0.73325023  0.24909922  0.29005779  1
  O  O398  1  0.73352644  0.25131859  0.53987082  1
  O  O399  1  0.73401933  0.25035770  0.79157619  1
  O  O400  1  0.73406296  0.58391232  0.03899743  1
  O  O401  1  0.73564502  0.58363512  0.28856661  1
  O  O402  1  0.73403695  0.58310498  0.53774115  1
  O  O403  1  0.73465252  0.58321923  0.78876531  1
  O  O404  1  0.73365498  0.91596122  0.03735860  1
  O  O405  1  0.73399482  0.91650456  0.28772644  1
  O  O406  1  0.73393319  0.91624776  0.54061799  1
  O  O407  1  0.73412263  0.91639738  0.79058083  1
  O  O408  1  0.26482838  0.08330233  0.21140191  1
  O  O409  1  0.26573102  0.08287369  0.45802633  1
  O  O410  1  0.26577202  0.08300243  0.70962566  1
  O  O411  1  0.26540591  0.08282966  0.96234171  1
  O  O412  1  0.26726590  0.41765509  0.21276174  1
  O  O413  1  0.26811755  0.41686970  0.46003711  1
  O  O414  1  0.26797093  0.41671388  0.71051082  1
  O  O415  1  0.26886781  0.41690585  0.96091940  1
  O  O416  1  0.26566553  0.74911304  0.21212057  1
  O  O417  1  0.26550840  0.75011710  0.45911787  1
  O  O418  1  0.26628925  0.74996920  0.71023936  1
  O  O419  1  0.26689525  0.75084657  0.96291405  1
  O  O420  1  0.76742941  0.08291432  0.20911624  1
  O  O421  1  0.76666253  0.08295570  0.46004316  1
  O  O422  1  0.76560919  0.08364232  0.71196646  1
  O  O423  1  0.76455777  0.08290384  0.96224536  1
  O  O424  1  0.76456884  0.41686308  0.21223031  1
  O  O425  1  0.76686623  0.41739657  0.45960947  1
  O  O426  1  0.76646009  0.41702076  0.71014173  1
  O  O427  1  0.76664360  0.41775649  0.96295459  1
  O  O428  1  0.76872011  0.75057789  0.21040621  1
  O  O429  1  0.76703748  0.74880394  0.46252833  1
  O  O430  1  0.76459283  0.74968697  0.71164034  1
  O  O431  1  0.76753336  0.74951976  0.96029128  1
  O  O432  1  0.01749617  0.08209661  0.16463316  1
  O  O433  1  0.01806991  0.08393210  0.41181027  1
  O  O434  1  0.01707751  0.08327069  0.66553410  1
  O  O435  1  0.01613308  0.08352403  0.91597684  1
  O  O436  1  0.01533244  0.41739890  0.16266872  1
  O  O437  1  0.01819809  0.41730469  0.41433477  1
  O  O438  1  0.01520827  0.41734143  0.66319094  1
  O  O439  1  0.01536932  0.41685785  0.91736841  1
  O  O440  1  0.01575458  0.75040860  0.16271495  1
  O  O441  1  0.01622328  0.74921510  0.41262233  1
  O  O442  1  0.01482678  0.74933723  0.66347967  1
  O  O443  1  0.01501677  0.74967806  0.91627683  1
  O  O444  1  0.51809425  0.08364108  0.16466548  1
  O  O445  1  0.51623728  0.08355071  0.41514103  1
  O  O446  1  0.51537766  0.08251353  0.66562773  1
  O  O447  1  0.51801589  0.08257867  0.91463444  1
  O  O448  1  0.51593456  0.41724018  0.16324839  1
  O  O449  1  0.51520951  0.41694366  0.41320384  1
  O  O450  1  0.51402730  0.41770398  0.66410054  1
  O  O451  1  0.51431551  0.41648565  0.91342435  1
  O  O452  1  0.51514014  0.74983416  0.16365038  1
  O  O453  1  0.51530954  0.74972415  0.41213922  1
  O  O454  1  0.51761034  0.74935332  0.66490175  1
  O  O455  1  0.51741324  0.74992525  0.91603228  1
  O  O456  1  0.48201567  0.24973867  0.08517023  1
  O  O457  1  0.48140295  0.25132342  0.33540695  1
  O  O458  1  0.48072639  0.25023187  0.58624348  1
  O  O459  1  0.48306433  0.25000937  0.83486477  1
  O  O460  1  0.48444019  0.58302303  0.08495950  1
  O  O461  1  0.48297742  0.58271454  0.33708882  1
  O  O462  1  0.48258822  0.58365180  0.58480627  1
  O  O463  1  0.48326332  0.58415370  0.83804324  1
  O  O464  1  0.48454934  0.91650683  0.08749246  1
  O  O465  1  0.48476767  0.91665754  0.33405928  1
  O  O466  1  0.48154391  0.91575942  0.58508349  1
  O  O467  1  0.48496136  0.91567807  0.83763262  1
  O  O468  1  0.98491707  0.24920306  0.08796991  1
  O  O469  1  0.98530239  0.25079079  0.33356810  1
  O  O470  1  0.98509801  0.25038137  0.58643249  1
  O  O471  1  0.98242826  0.25044525  0.83570177  1
  O  O472  1  0.98300408  0.58436053  0.08827018  1
  O  O473  1  0.98285354  0.58336138  0.33477745  1
  O  O474  1  0.98189842  0.58340108  0.58510531  1
  O  O475  1  0.98093945  0.58318413  0.83643701  1
  O  O476  1  0.98242131  0.91631980  0.08522849  1
  O  O477  1  0.98515505  0.91578319  0.33660970  1
  O  O478  1  0.98543794  0.91651389  0.58580569  1
  O  O479  1  0.98319039  0.91613042  0.83769664  1
  O  O480  1  0.08819592  0.31436926  0.07763457  1
  O  O481  1  0.08915026  0.31630550  0.32701674  1
  O  O482  1  0.08860229  0.31562706  0.57751822  1
  O  O483  1  0.08623082  0.31590179  0.82699845  1
  O  O484  1  0.08643365  0.64979353  0.07802758  1
  O  O485  1  0.08687702  0.64827602  0.32657711  1
  O  O486  1  0.08567762  0.64830110  0.57674689  1
  O  O487  1  0.08476283  0.64818318  0.82734364  1
  O  O488  1  0.08675626  0.98101545  0.07728486  1
  O  O489  1  0.08875691  0.98082195  0.32811411  1
  O  O490  1  0.08941956  0.98110101  0.57728531  1
  O  O491  1  0.08708610  0.98106060  0.82769847  1
  O  O492  1  0.58527708  0.31604917  0.07734927  1
  O  O493  1  0.58529660  0.31638336  0.32775391  1
  O  O494  1  0.58427623  0.31560772  0.57691147  1
  O  O495  1  0.58692634  0.31459112  0.82721828  1
  O  O496  1  0.58876641  0.64740909  0.07693507  1
  O  O497  1  0.58675855  0.64727537  0.32714929  1
  O  O498  1  0.58664171  0.64907249  0.57680712  1
  O  O499  1  0.58679151  0.64944215  0.82880032  1
  O  O500  1  0.58822306  0.98212426  0.07819149  1
  O  O501  1  0.58908945  0.98131973  0.32671161  1
  O  O502  1  0.58565269  0.98021545  0.57732068  1
  O  O503  1  0.58834783  0.98101569  0.82896700  1
  O  O504  1  0.41457501  0.01763906  0.17267737  1
  O  O505  1  0.41247713  0.01876037  0.42219893  1
  O  O506  1  0.41190130  0.01697171  0.67239047  1
  O  O507  1  0.41421558  0.01768774  0.92357231  1
  O  O508  1  0.41243920  0.35111585  0.17237558  1
  O  O509  1  0.41113460  0.35233911  0.42167279  1
  O  O510  1  0.41030106  0.35221310  0.67190490  1
  O  O511  1  0.40990318  0.35307078  0.92249535  1
  O  O512  1  0.41086138  0.68603381  0.17291184  1
  O  O513  1  0.41204338  0.68399962  0.42131824  1
  O  O514  1  0.41370576  0.68480748  0.67212522  1
  O  O515  1  0.41335806  0.68448477  0.92385906  1
  O  O516  1  0.91372383  0.01649438  0.17309112  1
  O  O517  1  0.91467601  0.01864343  0.42231943  1
  O  O518  1  0.91331517  0.01832070  0.67250321  1
  O  O519  1  0.91237727  0.01838426  0.92264979  1
  O  O520  1  0.91187698  0.35242108  0.17263144  1
  O  O521  1  0.91397054  0.35270334  0.42318117  1
  O  O522  1  0.91166187  0.35273084  0.67186010  1
  O  O523  1  0.91147939  0.35140204  0.92330093  1
  O  O524  1  0.91175388  0.68581935  0.17253270  1
  O  O525  1  0.91241073  0.68376941  0.42167301  1
  O  O526  1  0.91122465  0.68389664  0.67102365  1
  O  O527  1  0.91092972  0.68486709  0.92288187  1
  O  O528  1  0.16056422  0.01934672  0.20217111  1
  O  O529  1  0.16203765  0.01700822  0.45198343  1
  O  O530  1  0.16176583  0.01854610  0.70366663  1
  O  O531  1  0.16230980  0.01647505  0.95408958  1
  O  O532  1  0.16376238  0.35245593  0.20285138  1
  O  O533  1  0.16397252  0.35227880  0.45129970  1
  O  O534  1  0.16425216  0.35135662  0.70255030  1
  O  O535  1  0.16507907  0.35193428  0.95227468  1
  O  O536  1  0.16229532  0.68306134  0.20227068  1
  O  O537  1  0.16139169  0.68549711  0.45128947  1
  O  O538  1  0.16264469  0.68494667  0.70273051  1
  O  O539  1  0.16339457  0.68590642  0.95267990  1
  O  O540  1  0.66350032  0.01738553  0.20188874  1
  O  O541  1  0.66263791  0.01851129  0.45268723  1
  O  O542  1  0.66222824  0.01832587  0.70281820  1
  O  O543  1  0.66108866  0.01706045  0.95328326  1
  O  O544  1  0.66088603  0.35163483  0.20203304  1
  O  O545  1  0.66223343  0.35333537  0.45144634  1
  O  O546  1  0.66277405  0.35183284  0.70203179  1
  O  O547  1  0.66294698  0.35318666  0.95274932  1
  O  O548  1  0.66492304  0.68554383  0.20195413  1
  O  O549  1  0.66349970  0.68347429  0.45282588  1
  O  O550  1  0.66093853  0.68465000  0.70207270  1
  O  O551  1  0.66355536  0.68428137  0.95230666  1
  O  O552  1  0.33859704  0.31567169  0.04790533  1
  O  O553  1  0.33789869  0.31586414  0.29689596  1
  O  O554  1  0.33890201  0.31605445  0.54641827  1
  O  O555  1  0.33689061  0.31542013  0.79650523  1
  O  O556  1  0.33834829  0.64904965  0.04716750  1
  O  O557  1  0.33688131  0.64884655  0.29788480  1
  O  O558  1  0.33920122  0.64767961  0.54763224  1
  O  O559  1  0.33983614  0.64780170  0.79813425  1
  O  O560  1  0.33698109  0.98078354  0.04918457  1
  O  O561  1  0.33760189  0.98075658  0.29702871  1
  O  O562  1  0.33578512  0.98137964  0.54814729  1
  O  O563  1  0.33631999  0.98136416  0.79805913  1
  O  O564  1  0.83782741  0.31596635  0.04722994  1
  O  O565  1  0.83710509  0.31366303  0.29769837  1
  O  O566  1  0.83719154  0.31683292  0.54644291  1
  O  O567  1  0.83816070  0.31491253  0.79886079  1
  O  O568  1  0.83806128  0.64875446  0.04729874  1
  O  O569  1  0.83902235  0.64971731  0.29708125  1
  O  O570  1  0.83806333  0.64760149  0.54706930  1
  O  O571  1  0.83833451  0.64824953  0.79780055  1
  O  O572  1  0.83755024  0.98059560  0.04812259  1
  O  O573  1  0.83727439  0.98246494  0.29655857  1
  O  O574  1  0.83799167  0.98074223  0.54729758  1
  O  O575  1  0.83795904  0.98175681  0.79891169  1
  O  O576  1  0.41365595  0.14776293  0.17215034  1
  O  O577  1  0.41248707  0.14902413  0.42144817  1
  O  O578  1  0.41156804  0.14753597  0.67222403  1
  O  O579  1  0.41423762  0.14779325  0.92324795  1
  O  O580  1  0.41179898  0.48120335  0.17309482  1
  O  O581  1  0.41163420  0.48238441  0.42220780  1
  O  O582  1  0.41019324  0.48249878  0.67144308  1
  O  O583  1  0.41143939  0.48318564  0.92223564  1
  O  O584  1  0.41167612  0.81614344  0.17232226  1
  O  O585  1  0.41166004  0.81415446  0.42155954  1
  O  O586  1  0.41398838  0.81500815  0.67277063  1
  O  O587  1  0.41310750  0.81433328  0.92430740  1
  O  O588  1  0.91334746  0.14643821  0.17402987  1
  O  O589  1  0.91449496  0.14886362  0.42194597  1
  O  O590  1  0.91329376  0.14841606  0.67247753  1
  O  O591  1  0.91243375  0.14873255  0.92262013  1
  O  O592  1  0.91177934  0.48261350  0.17199205  1
  O  O593  1  0.91401145  0.48261041  0.42237985  1
  O  O594  1  0.91174239  0.48289104  0.67109166  1
  O  O595  1  0.91107402  0.48161422  0.92317515  1
  O  O596  1  0.91229404  0.81593435  0.17237998  1
  O  O597  1  0.91222382  0.81377127  0.42285349  1
  O  O598  1  0.91137707  0.81402405  0.67186134  1
  O  O599  1  0.91116855  0.81495755  0.92302750  1
  O  O600  1  0.08834675  0.18392090  0.07905400  1
  O  O601  1  0.08956958  0.18613070  0.32709687  1
  O  O602  1  0.08877030  0.18555672  0.57776441  1
  O  O603  1  0.08678574  0.18592593  0.82713548  1
  O  O604  1  0.08668273  0.51963802  0.07729629  1
  O  O605  1  0.08700117  0.51822594  0.32658861  1
  O  O606  1  0.08581185  0.51845416  0.57665661  1
  O  O607  1  0.08481634  0.51812831  0.82742688  1
  O  O608  1  0.08637533  0.85098942  0.07684480  1
  O  O609  1  0.08850818  0.85058920  0.32821281  1
  O  O610  1  0.08895728  0.85118692  0.57722514  1
  O  O611  1  0.08694580  0.85108295  0.82755677  1
  O  O612  1  0.58664392  0.18587175  0.07806251  1
  O  O613  1  0.58520481  0.18629429  0.32726011  1
  O  O614  1  0.58471624  0.18544492  0.57726557  1
  O  O615  1  0.58661048  0.18412973  0.82799982  1
  O  O616  1  0.58819933  0.51737959  0.07754639  1
  O  O617  1  0.58648005  0.51720701  0.32806781  1
  O  O618  1  0.58675445  0.51915161  0.57614623  1
  O  O619  1  0.58653523  0.51919690  0.82778651  1
  O  O620  1  0.58851419  0.85201677  0.07733484  1
  O  O621  1  0.58869547  0.85134098  0.32597349  1
  O  O622  1  0.58527638  0.85006744  0.57747171  1
  O  O623  1  0.58846968  0.85058630  0.82917820  1
  O  O624  1  0.33839452  0.18551439  0.04890945  1
  O  O625  1  0.33790203  0.18572342  0.29765634  1
  O  O626  1  0.33934276  0.18588406  0.54717276  1
  O  O627  1  0.33610954  0.18529338  0.79778032  1
  O  O628  1  0.33864178  0.51878672  0.04687829  1
  O  O629  1  0.33743727  0.51894715  0.29787282  1
  O  O630  1  0.33875452  0.51762877  0.54670436  1
  O  O631  1  0.33928918  0.51774952  0.79674613  1
  O  O632  1  0.33723315  0.85089613  0.04846605  1
  O  O633  1  0.33762262  0.85039401  0.29620409  1
  O  O634  1  0.33606964  0.85145177  0.54842897  1
  O  O635  1  0.33621754  0.85137148  0.79819926  1
  O  O636  1  0.83815590  0.18559856  0.04758075  1
  O  O637  1  0.83701029  0.18336705  0.29682243  1
  O  O638  1  0.83735422  0.18640918  0.54726106  1
  O  O639  1  0.83787405  0.18502826  0.79902795  1
  O  O640  1  0.83785017  0.51867641  0.04796246  1
  O  O641  1  0.83970311  0.51961179  0.29785603  1
  O  O642  1  0.83756605  0.51743946  0.54673908  1
  O  O643  1  0.83850973  0.51845594  0.79790945  1
  O  O644  1  0.83729924  0.85056405  0.04723918  1
  O  O645  1  0.83801196  0.85223423  0.29653429  1
  O  O646  1  0.83735004  0.85033157  0.54700429  1
  O  O647  1  0.83817770  0.85183757  0.79857703  1
  O  O648  1  0.16157715  0.14952462  0.20279608  1
  O  O649  1  0.16157256  0.14720403  0.45135760  1
  O  O650  1  0.16260015  0.14903259  0.70320440  1
  O  O651  1  0.16152733  0.14691213  0.95369183  1
  O  O652  1  0.16358143  0.48264854  0.20289144  1
  O  O653  1  0.16416104  0.48209156  0.45121614  1
  O  O654  1  0.16432525  0.48162281  0.70213106  1
  O  O655  1  0.16509685  0.48203333  0.95183451  1
  O  O656  1  0.16142795  0.81307774  0.20167722  1
  O  O657  1  0.16164990  0.81552335  0.45207733  1
  O  O658  1  0.16237550  0.81516928  0.70351190  1
  O  O659  1  0.16316335  0.81608066  0.95374449  1
  O  O660  1  0.66301758  0.14738615  0.20122836  1
  O  O661  1  0.66319586  0.14881212  0.45241281  1
  O  O662  1  0.66194982  0.14851182  0.70291632  1
  O  O663  1  0.66045888  0.14723496  0.95239513  1
  O  O664  1  0.66081469  0.48164530  0.20230960  1
  O  O665  1  0.66312307  0.48334355  0.45161013  1
  O  O666  1  0.66270119  0.48186465  0.70195497  1
  O  O667  1  0.66325046  0.48331978  0.95349425  1
  O  O668  1  0.66476420  0.81548013  0.20229995  1
  O  O669  1  0.66341807  0.81365611  0.45253764  1
  O  O670  1  0.66085483  0.81457396  0.70218203  1
  O  O671  1  0.66335190  0.81428927  0.95221337  1
