# generated using pymatgen
data_Na2MnFe(PO4)2
_symmetry_space_group_name_H-M   'P 1'
_cell_length_a   21.08811599
_cell_length_b   18.94063612
_cell_length_c   20.04678241
_cell_angle_alpha   89.99944681
_cell_angle_beta   89.99809035
_cell_angle_gamma   90.00153768
_symmetry_Int_Tables_number   1
_chemical_formula_structural   Na2MnFe(PO4)2
_chemical_formula_sum   'Na96 Mn48 Fe48 P96 O384'
_cell_volume   8007.13255969
_cell_formula_units_Z   48
loop_
 _symmetry_equiv_pos_site_id
 _symmetry_equiv_pos_as_xyz
  1  'x, y, z'
loop_
 _atom_site_type_symbol
 _atom_site_label
 _atom_site_symmetry_multiplicity
 _atom_site_fract_x
 _atom_site_fract_y
 _atom_site_fract_z
 _atom_site_occupancy
  Na  Na0  1  0.00251204  0.00050146  -0.00139054  1
  Na  Na1  1  0.00038098  -0.00013969  0.25061515  1
  Na  Na2  1  -0.00126350  -0.00034398  0.50109720  1
  Na  Na3  1  0.00092958  0.00045044  0.75021615  1
  Na  Na4  1  0.00079482  0.33294665  -0.00059901  1
  Na  Na5  1  0.00277909  0.33374132  0.25034712  1
  Na  Na6  1  0.00161432  0.33324997  0.50126893  1
  Na  Na7  1  0.00056210  0.33321401  0.74949442  1
  Na  Na8  1  0.00044895  0.66776967  -0.00076412  1
  Na  Na9  1  -0.00044258  0.66683211  0.24909078  1
  Na  Na10  1  -0.00024817  0.66739854  0.49997492  1
  Na  Na11  1  -0.00174444  0.66662975  0.75113804  1
  Na  Na12  1  0.50138505  0.00019345  -0.00201205  1
  Na  Na13  1  0.50135480  0.00038543  0.25027006  1
  Na  Na14  1  0.49922656  -0.00032469  0.50108371  1
  Na  Na15  1  0.50024532  0.00010855  0.75052225  1
  Na  Na16  1  0.49890846  0.33242246  0.00129989  1
  Na  Na17  1  0.50115134  0.33332608  0.25019563  1
  Na  Na18  1  0.50146655  0.33375600  0.50011496  1
  Na  Na19  1  0.50082009  0.33424096  0.74865848  1
  Na  Na20  1  0.49797011  0.66704493  -0.00008310  1
  Na  Na21  1  0.49907620  0.66763720  0.25029715  1
  Na  Na22  1  0.49966979  0.66730851  0.49970756  1
  Na  Na23  1  0.49707872  0.66620442  0.74969613  1
  Na  Na24  1  0.24820603  -0.00076918  0.12503015  1
  Na  Na25  1  0.25087319  0.00048975  0.37477408  1
  Na  Na26  1  0.25091662  0.00039745  0.62539739  1
  Na  Na27  1  0.24844898  -0.00043800  0.87471528  1
  Na  Na28  1  0.24962771  0.33300748  0.12514058  1
  Na  Na29  1  0.24818983  0.33270168  0.37376487  1
  Na  Na30  1  0.24855149  0.33218568  0.62480583  1
  Na  Na31  1  0.25023137  0.33316131  0.87601456  1
  Na  Na32  1  0.24905971  0.66751792  0.12550111  1
  Na  Na33  1  0.25050456  0.66784117  0.37588961  1
  Na  Na34  1  0.25146872  0.66714774  0.62475162  1
  Na  Na35  1  0.25131855  0.66806388  0.87442535  1
  Na  Na36  1  0.74906238  -0.00026780  0.12602160  1
  Na  Na37  1  0.75057259  0.00043299  0.37433816  1
  Na  Na38  1  0.75044290  0.00023227  0.62460350  1
  Na  Na39  1  0.74864770  -0.00050888  0.87495243  1
  Na  Na40  1  0.74948956  0.33313916  0.12558362  1
  Na  Na41  1  0.74887283  0.33300019  0.37606113  1
  Na  Na42  1  0.74971691  0.33338752  0.62424703  1
  Na  Na43  1  0.75002340  0.33357089  0.87446354  1
  Na  Na44  1  0.75181574  0.66728924  0.12610289  1
  Na  Na45  1  0.75075980  0.66705871  0.37493628  1
  Na  Na46  1  0.74995141  0.66647324  0.62421627  1
  Na  Na47  1  0.75244967  0.66805572  0.87410944  1
  Na  Na48  1  0.00253014  0.16571830  -0.00038607  1
  Na  Na49  1  0.00096240  0.16669893  0.25087004  1
  Na  Na50  1  -0.00045037  0.16738805  0.50098630  1
  Na  Na51  1  0.00151040  0.16557348  0.74888098  1
  Na  Na52  1  0.00214058  0.49914697  -0.00135235  1
  Na  Na53  1  0.00156669  0.49963487  0.24982463  1
  Na  Na54  1  -0.00140350  0.50078316  0.50062109  1
  Na  Na55  1  -0.00243540  0.50091286  0.75105363  1
  Na  Na56  1  -0.00021851  0.83348961  -0.00109347  1
  Na  Na57  1  0.00043820  0.83265993  0.24958952  1
  Na  Na58  1  0.00042406  0.83309052  0.50032280  1
  Na  Na59  1  0.00012686  0.83375535  0.75101007  1
  Na  Na60  1  0.49841299  0.16686472  -0.00018722  1
  Na  Na61  1  0.50208048  0.16561003  0.24998269  1
  Na  Na62  1  0.50074861  0.16573608  0.50043882  1
  Na  Na63  1  0.49801832  0.16659892  0.74967773  1
  Na  Na64  1  0.50142603  0.49950166  0.00031370  1
  Na  Na65  1  0.50044010  0.50020246  0.25080849  1
  Na  Na66  1  0.50086055  0.49973858  0.49969948  1
  Na  Na67  1  0.50134554  0.49944295  0.74893189  1
  Na  Na68  1  0.49905605  0.83319315  -0.00079233  1
  Na  Na69  1  0.49770411  0.83390700  0.24948331  1
  Na  Na70  1  0.49879634  0.83358870  0.50079765  1
  Na  Na71  1  0.49902608  0.83339081  0.75021469  1
  Na  Na72  1  0.24888181  0.16690316  0.12388235  1
  Na  Na73  1  0.24887778  0.16706252  0.37474701  1
  Na  Na74  1  0.24923785  0.16641885  0.62518628  1
  Na  Na75  1  0.25000785  0.16611614  0.87617964  1
  Na  Na76  1  0.24751614  0.50064894  0.12579601  1
  Na  Na77  1  0.24961336  0.49981803  0.37478186  1
  Na  Na78  1  0.25277739  0.49859151  0.62486192  1
  Na  Na79  1  0.24869965  0.50122300  0.87444848  1
  Na  Na80  1  0.25081126  0.83244417  0.12584138  1
  Na  Na81  1  0.25012675  0.83297951  0.37513588  1
  Na  Na82  1  0.25123524  0.83248392  0.62411543  1
  Na  Na83  1  0.24906611  0.83413070  0.87490396  1
  Na  Na84  1  0.74839245  0.16689945  0.12566064  1
  Na  Na85  1  0.75043873  0.16597432  0.37570689  1
  Na  Na86  1  0.74984102  0.16605749  0.62364597  1
  Na  Na87  1  0.75041669  0.16560473  0.87585997  1
  Na  Na88  1  0.75000247  0.49966146  0.12592216  1
  Na  Na89  1  0.74942219  0.50041233  0.37558001  1
  Na  Na90  1  0.75001384  0.49987363  0.62472803  1
  Na  Na91  1  0.74867316  0.50053056  0.87360391  1
  Na  Na92  1  0.75258592  0.83222034  0.12590899  1
  Na  Na93  1  0.74904989  0.83415657  0.37438770  1
  Na  Na94  1  0.75167284  0.83296155  0.62449193  1
  Na  Na95  1  0.75038735  0.83458516  0.87451326  1
  Mn  Mn96  1  0.89180397  0.58298230  0.87768892  1
  Mn  Mn97  1  0.89248045  0.24948562  0.87664175  1
  Mn  Mn98  1  0.64271171  0.58331019  0.24791609  1
  Mn  Mn99  1  0.64237249  0.24980214  0.49745072  1
  Mn  Mn100  1  0.60748719  0.75083251  0.12266791  1
  Mn  Mn101  1  0.39186390  0.58214318  0.87749649  1
  Mn  Mn102  1  0.64240656  0.58436434  0.74728543  1
  Mn  Mn103  1  0.14244646  0.58353741  0.74655308  1
  Mn  Mn104  1  0.39246132  0.24983704  0.37680114  1
  Mn  Mn105  1  0.14259185  0.24993950  0.99742066  1
  Mn  Mn106  1  0.39246718  0.58293120  0.37762617  1
  Mn  Mn107  1  0.14225735  0.58264130  0.49846127  1
  Mn  Mn108  1  0.64215818  0.58439404  0.99781117  1
  Mn  Mn109  1  0.85876264  0.41633182  0.25272093  1
  Mn  Mn110  1  0.10793947  0.75036103  0.87243289  1
  Mn  Mn111  1  0.89248181  0.91690941  0.37751649  1
  Mn  Mn112  1  0.64188581  0.24902344  0.74782029  1
  Mn  Mn113  1  0.39117213  0.58342528  0.12758240  1
  Mn  Mn114  1  0.39234211  0.91722731  0.37727455  1
  Mn  Mn115  1  0.64215481  0.91595088  0.49834975  1
  Mn  Mn116  1  0.14284592  0.91690686  0.49846400  1
  Mn  Mn117  1  0.35845856  0.41600002  0.75266626  1
  Mn  Mn118  1  0.64207108  0.91659802  0.24710540  1
  Mn  Mn119  1  0.14192488  0.91701221  0.24743151  1
  Mn  Mn120  1  0.10775378  0.41759828  0.62287293  1
  Mn  Mn121  1  0.89241592  0.91746057  0.87714085  1
  Mn  Mn122  1  0.64126793  0.24984291  0.99731287  1
  Mn  Mn123  1  0.35716381  0.08227485  0.00258661  1
  Mn  Mn124  1  0.39176794  0.25010031  0.62705899  1
  Mn  Mn125  1  0.39181118  0.91703086  0.87715378  1
  Mn  Mn126  1  0.85792289  0.08362976  0.25183328  1
  Mn  Mn127  1  0.89288157  0.25002110  0.62792127  1
  Mn  Mn128  1  0.35775921  0.41775937  0.00244892  1
  Mn  Mn129  1  0.35692128  0.41689229  0.25234302  1
  Mn  Mn130  1  0.85817348  0.75052142  0.50211175  1
  Mn  Mn131  1  0.60785158  0.74923227  0.87280149  1
  Mn  Mn132  1  0.85778671  0.41650356  0.50198526  1
  Mn  Mn133  1  0.14138736  0.58326129  0.24804054  1
  Mn  Mn134  1  0.10779698  0.08323810  0.37355354  1
  Mn  Mn135  1  0.85811018  0.08293892  0.00263689  1
  Mn  Mn136  1  0.89318424  0.58320519  0.12664302  1
  Mn  Mn137  1  0.60777962  0.41648153  0.12277352  1
  Mn  Mn138  1  0.35779139  0.08315493  0.25161405  1
  Mn  Mn139  1  0.89283019  0.24959131  0.12753135  1
  Mn  Mn140  1  0.85757104  0.41686777  0.00253236  1
  Mn  Mn141  1  0.60755243  0.08416991  0.87213576  1
  Mn  Mn142  1  0.10812026  0.41605130  0.87201480  1
  Mn  Mn143  1  0.60724993  0.75017511  0.62303781  1
  Fe  Fe144  1  0.64316344  0.91682044  0.74803176  1
  Fe  Fe145  1  0.60777643  0.08309848  0.37376395  1
  Fe  Fe146  1  0.39219302  0.25046092  0.87618112  1
  Fe  Fe147  1  0.10696524  0.75017006  0.62390029  1
  Fe  Fe148  1  0.14238700  0.91576025  0.99891914  1
  Fe  Fe149  1  0.35652106  0.74987689  0.25189147  1
  Fe  Fe150  1  0.64290054  0.91591749  0.99899981  1
  Fe  Fe151  1  0.39238080  0.91663567  0.62738671  1
  Fe  Fe152  1  0.14257297  0.58416224  0.99836169  1
  Fe  Fe153  1  0.85830822  0.74980825  0.25207273  1
  Fe  Fe154  1  0.35635901  0.08307682  0.75130731  1
  Fe  Fe155  1  0.60737006  0.41645255  0.87337979  1
  Fe  Fe156  1  0.60688851  0.08282573  0.12316464  1
  Fe  Fe157  1  0.10758037  0.41727340  0.37429428  1
  Fe  Fe158  1  0.10742307  0.08280847  0.12325583  1
  Fe  Fe159  1  0.14299070  0.91679038  0.74739079  1
  Fe  Fe160  1  0.35646142  0.75032036  0.00172018  1
  Fe  Fe161  1  0.89334119  0.25063630  0.37654428  1
  Fe  Fe162  1  0.85652021  0.41595275  0.75140355  1
  Fe  Fe163  1  0.14204994  0.24947468  0.24793896  1
  Fe  Fe164  1  0.89331962  0.91705982  0.12573645  1
  Fe  Fe165  1  0.85742943  0.08321640  0.50204077  1
  Fe  Fe166  1  0.60755938  0.41673543  0.62289917  1
  Fe  Fe167  1  0.85766527  0.75063006  0.75103575  1
  Fe  Fe168  1  0.39228521  0.91741248  0.12590675  1
  Fe  Fe169  1  0.64284884  0.25000018  0.24891958  1
  Fe  Fe170  1  0.89305590  0.58273478  0.37657017  1
  Fe  Fe171  1  0.85735931  0.08342955  0.75122689  1
  Fe  Fe172  1  0.35757397  0.74988511  0.50198108  1
  Fe  Fe173  1  0.60685295  0.75016664  0.37304985  1
  Fe  Fe174  1  0.89310580  0.91646489  0.62728984  1
  Fe  Fe175  1  0.39281131  0.24926073  0.12727043  1
  Fe  Fe176  1  0.39310906  0.58348268  0.62589290  1
  Fe  Fe177  1  0.35795312  0.08370924  0.50210596  1
  Fe  Fe178  1  0.10750520  0.08258213  0.62303955  1
  Fe  Fe179  1  0.10769954  0.41687532  0.12249401  1
  Fe  Fe180  1  0.10707129  0.75031832  0.12271810  1
  Fe  Fe181  1  0.60733199  0.41658815  0.37311420  1
  Fe  Fe182  1  0.10751739  0.74940673  0.37357269  1
  Fe  Fe183  1  0.60684801  0.08319769  0.62363347  1
  Fe  Fe184  1  0.10796229  0.08345296  0.87217131  1
  Fe  Fe185  1  0.89187817  0.58411862  0.62635329  1
  Fe  Fe186  1  0.14303646  0.24994975  0.49835720  1
  Fe  Fe187  1  0.64243834  0.58394238  0.49816248  1
  Fe  Fe188  1  0.35661302  0.75063712  0.75141051  1
  Fe  Fe189  1  0.14320404  0.24950873  0.74876547  1
  Fe  Fe190  1  0.35771199  0.41634359  0.50102491  1
  Fe  Fe191  1  0.85757780  0.75049568  0.00196799  1
  P  P192  1  0.05488646  0.24972063  0.11098934  1
  P  P193  1  0.05463626  0.25066175  0.36139530  1
  P  P194  1  0.05604142  0.24895929  0.61096239  1
  P  P195  1  0.05440429  0.24896828  0.85874486  1
  P  P196  1  0.05427045  0.58379532  0.10900048  1
  P  P197  1  0.05241266  0.58346939  0.36062417  1
  P  P198  1  0.05153917  0.58463403  0.61043898  1
  P  P199  1  0.05475524  0.58379150  0.86062497  1
  P  P200  1  0.05285535  0.91635694  0.10932104  1
  P  P201  1  0.05372886  0.91592983  0.36055554  1
  P  P202  1  0.05377178  0.91643060  0.61168643  1
  P  P203  1  0.05578015  0.91734373  0.86021763  1
  P  P204  1  0.55331881  0.24880892  0.11147028  1
  P  P205  1  0.55423829  0.24967746  0.35980457  1
  P  P206  1  0.55355610  0.24927183  0.61014598  1
  P  P207  1  0.55150923  0.25082862  0.85958472  1
  P  P208  1  0.55272652  0.58420884  0.11015182  1
  P  P209  1  0.55474465  0.58393343  0.36136198  1
  P  P210  1  0.55306234  0.58337631  0.60930122  1
  P  P211  1  0.55320587  0.58280287  0.85965153  1
  P  P212  1  0.55231600  0.91713881  0.10901699  1
  P  P213  1  0.55369500  0.91624635  0.36038359  1
  P  P214  1  0.55317833  0.91734475  0.61184850  1
  P  P215  1  0.55523740  0.91612074  0.86015638  1
  P  P216  1  0.44753879  0.08248978  0.13956342  1
  P  P217  1  0.44758923  0.08349699  0.39055684  1
  P  P218  1  0.44535596  0.08262596  0.63976280  1
  P  P219  1  0.44461502  0.08406017  0.88841999  1
  P  P220  1  0.44635040  0.41610407  0.14061418  1
  P  P221  1  0.44746601  0.41616927  0.39036158  1
  P  P222  1  0.44657645  0.41737893  0.63811622  1
  P  P223  1  0.44795099  0.41575663  0.89016063  1
  P  P224  1  0.44401960  0.75138154  0.13923097  1
  P  P225  1  0.44578357  0.75021679  0.38955472  1
  P  P226  1  0.44440807  0.75003393  0.63929981  1
  P  P227  1  0.44429768  0.75014129  0.88939248  1
  P  P228  1  0.94851830  0.08236091  0.13979327  1
  P  P229  1  0.94608373  0.08456491  0.39099673  1
  P  P230  1  0.94627865  0.08240921  0.63946143  1
  P  P231  1  0.94714260  0.08346554  0.88868788  1
  P  P232  1  0.94867107  0.41655811  0.13982911  1
  P  P233  1  0.94830663  0.41638218  0.39016235  1
  P  P234  1  0.94588813  0.41754288  0.64068932  1
  P  P235  1  0.94541421  0.41592414  0.88887654  1
  P  P236  1  0.94612902  0.75109749  0.13876346  1
  P  P237  1  0.94692131  0.74918172  0.38885919  1
  P  P238  1  0.94712354  0.75054402  0.64059483  1
  P  P239  1  0.94457704  0.75057223  0.88943218  1
  P  P240  1  0.19581259  0.08404859  0.23435971  1
  P  P241  1  0.19721291  0.08354682  0.48642530  1
  P  P242  1  0.19586425  0.08321395  0.73563071  1
  P  P243  1  0.19439111  0.08190997  0.98552736  1
  P  P244  1  0.19398340  0.41585647  0.23574653  1
  P  P245  1  0.19754083  0.41606688  0.48473886  1
  P  P246  1  0.19728725  0.41568904  0.73477963  1
  P  P247  1  0.19553166  0.41762862  0.98593227  1
  P  P248  1  0.19525912  0.75001269  0.23573373  1
  P  P249  1  0.19606301  0.74985684  0.48618767  1
  P  P250  1  0.19704578  0.75099414  0.73409693  1
  P  P251  1  0.19608853  0.75033011  0.98619282  1
  P  P252  1  0.69462019  0.08419260  0.23581925  1
  P  P253  1  0.69618107  0.08264966  0.48569377  1
  P  P254  1  0.69713298  0.08259372  0.73413378  1
  P  P255  1  0.69512851  0.08192333  0.98637175  1
  P  P256  1  0.69588348  0.41575593  0.23661542  1
  P  P257  1  0.69457955  0.41773307  0.48569831  1
  P  P258  1  0.69570452  0.41642781  0.73511055  1
  P  P259  1  0.69593484  0.41684278  0.98401539  1
  P  P260  1  0.69703650  0.74990496  0.23610331  1
  P  P261  1  0.69597619  0.74941281  0.48437769  1
  P  P262  1  0.69809486  0.75121947  0.73480274  1
  P  P263  1  0.69825518  0.75114420  0.98513661  1
  P  P264  1  0.30539920  0.25004464  0.01474686  1
  P  P265  1  0.30299448  0.24950118  0.26373462  1
  P  P266  1  0.30244781  0.25013220  0.51443489  1
  P  P267  1  0.30270593  0.24875901  0.76553946  1
  P  P268  1  0.30155723  0.58422726  0.01520267  1
  P  P269  1  0.30269637  0.58434348  0.26548067  1
  P  P270  1  0.30417609  0.58306085  0.51526462  1
  P  P271  1  0.30480747  0.58411478  0.76341218  1
  P  P272  1  0.30215802  0.91603943  0.01547636  1
  P  P273  1  0.30427668  0.91614402  0.26376905  1
  P  P274  1  0.30460595  0.91687415  0.51544353  1
  P  P275  1  0.30328640  0.91674209  0.76352294  1
  P  P276  1  0.80293347  0.24967184  0.01546512  1
  P  P277  1  0.80298538  0.24986371  0.26614777  1
  P  P278  1  0.80513117  0.24944030  0.51376778  1
  P  P279  1  0.80310793  0.24920075  0.76451141  1
  P  P280  1  0.80301424  0.58407484  0.01529318  1
  P  P281  1  0.80503528  0.58365586  0.26584779  1
  P  P282  1  0.80396323  0.58334886  0.51417260  1
  P  P283  1  0.80495739  0.58347446  0.76316789  1
  P  P284  1  0.80305391  0.91651297  0.01577003  1
  P  P285  1  0.80516203  0.91624819  0.26361448  1
  P  P286  1  0.80443862  0.91741878  0.51555308  1
  P  P287  1  0.80402481  0.91740847  0.76342272  1
  O  O288  1  0.05813616  0.24958752  0.18781001  1
  O  O289  1  0.05929869  0.24979301  0.43815352  1
  O  O290  1  0.06015765  0.24952901  0.68766140  1
  O  O291  1  0.05733537  0.24980445  0.93556715  1
  O  O292  1  0.05646444  0.58400174  0.18583901  1
  O  O293  1  0.05586243  0.58371762  0.43730795  1
  O  O294  1  0.05540719  0.58376549  0.68710903  1
  O  O295  1  0.05947399  0.58414749  0.93732795  1
  O  O296  1  0.05601946  0.91615665  0.18606343  1
  O  O297  1  0.05685722  0.91654256  0.43732924  1
  O  O298  1  0.05838742  0.91673079  0.68835409  1
  O  O299  1  0.05975458  0.91615969  0.93694415  1
  O  O300  1  0.55835502  0.24956899  0.18804226  1
  O  O301  1  0.55679611  0.24957121  0.43663011  1
  O  O302  1  0.55621011  0.24928458  0.68688378  1
  O  O303  1  0.55488178  0.24976996  0.93631020  1
  O  O304  1  0.55633208  0.58468249  0.18693534  1
  O  O305  1  0.55833981  0.58415297  0.43809459  1
  O  O306  1  0.55661383  0.58415650  0.68605143  1
  O  O307  1  0.55631068  0.58422699  0.93641666  1
  O  O308  1  0.55607432  0.91615082  0.18577414  1
  O  O309  1  0.55627404  0.91606402  0.43716359  1
  O  O310  1  0.55840258  0.91660330  0.68845887  1
  O  O311  1  0.55959587  0.91570454  0.93685359  1
  O  O312  1  0.44384488  0.08249494  0.06286936  1
  O  O313  1  0.44341363  0.08344056  0.31390010  1
  O  O314  1  0.44095782  0.08336014  0.56301351  1
  O  O315  1  0.44008777  0.08292742  0.81171045  1
  O  O316  1  0.44329944  0.41693115  0.06382709  1
  O  O317  1  0.44298703  0.41632777  0.31372434  1
  O  O318  1  0.44148094  0.41637217  0.56151280  1
  O  O319  1  0.44446288  0.41664067  0.81337965  1
  O  O320  1  0.43970672  0.75025168  0.06242917  1
  O  O321  1  0.44080377  0.75013721  0.31289370  1
  O  O322  1  0.44090723  0.75027083  0.56247011  1
  O  O323  1  0.43990264  0.75067898  0.81262654  1
  O  O324  1  0.94502305  0.08302454  0.06308398  1
  O  O325  1  0.94331142  0.08383391  0.31418873  1
  O  O326  1  0.94136441  0.08317719  0.56284453  1
  O  O327  1  0.94173363  0.08329040  0.81209106  1
  O  O328  1  0.94456417  0.41638040  0.06315624  1
  O  O329  1  0.94523894  0.41608653  0.31345371  1
  O  O330  1  0.94311973  0.41653007  0.56387234  1
  O  O331  1  0.94030797  0.41594904  0.81219158  1
  O  O332  1  0.94145127  0.75055914  0.06204024  1
  O  O333  1  0.94247301  0.74988694  0.31216536  1
  O  O334  1  0.94393213  0.75064010  0.56383918  1
  O  O335  1  0.94009356  0.75083197  0.81269303  1
  O  O336  1  0.19030738  0.08262700  0.06229674  1
  O  O337  1  0.19298666  0.08327752  0.31117212  1
  O  O338  1  0.19216110  0.08259015  0.56305725  1
  O  O339  1  0.19198126  0.08317710  0.81238135  1
  O  O340  1  0.19160626  0.41676403  0.06273789  1
  O  O341  1  0.19008361  0.41693499  0.31255156  1
  O  O342  1  0.19371129  0.41707169  0.56141703  1
  O  O343  1  0.19414384  0.41665624  0.81154729  1
  O  O344  1  0.19147878  0.75050691  0.06287443  1
  O  O345  1  0.19059595  0.74998180  0.31248843  1
  O  O346  1  0.19070882  0.74972758  0.56278761  1
  O  O347  1  0.19353940  0.75038181  0.81082930  1
  O  O348  1  0.69073255  0.08290603  0.06310562  1
  O  O349  1  0.69082923  0.08306167  0.31261182  1
  O  O350  1  0.69093194  0.08276348  0.56230175  1
  O  O351  1  0.69337941  0.08343064  0.81088590  1
  O  O352  1  0.69291703  0.41658169  0.06088486  1
  O  O353  1  0.69145822  0.41649242  0.31334978  1
  O  O354  1  0.69054357  0.41695011  0.56252524  1
  O  O355  1  0.69079565  0.41633978  0.81177701  1
  O  O356  1  0.69441856  0.75025918  0.06182448  1
  O  O357  1  0.69150615  0.75028933  0.31266354  1
  O  O358  1  0.69271850  0.75003276  0.56116251  1
  O  O359  1  0.69431617  0.75059218  0.81143757  1
  O  O360  1  0.30847471  0.24924994  0.18710033  1
  O  O361  1  0.30585427  0.25004866  0.43774528  1
  O  O362  1  0.30627288  0.24950237  0.68879343  1
  O  O363  1  0.30944560  0.25021823  0.93797120  1
  O  O364  1  0.30540167  0.58368229  0.18872050  1
  O  O365  1  0.30665993  0.58324904  0.43845714  1
  O  O366  1  0.30927791  0.58294030  0.68673006  1
  O  O367  1  0.30538661  0.58332617  0.93846888  1
  O  O368  1  0.30817022  0.91717617  0.18709287  1
  O  O369  1  0.30706621  0.91695751  0.43859854  1
  O  O370  1  0.30802534  0.91683905  0.68688938  1
  O  O371  1  0.30584509  0.91711326  0.93875530  1
  O  O372  1  0.80698363  0.24997665  0.18940287  1
  O  O373  1  0.80940507  0.25037365  0.43709438  1
  O  O374  1  0.80595265  0.24937799  0.68771217  1
  O  O375  1  0.80667561  0.24940061  0.93871447  1
  O  O376  1  0.80834228  0.58284827  0.18908137  1
  O  O377  1  0.80924453  0.58310756  0.43754161  1
  O  O378  1  0.80853178  0.58364523  0.68633827  1
  O  O379  1  0.80573295  0.58324153  0.93847279  1
  O  O380  1  0.80967881  0.91686311  0.18694955  1
  O  O381  1  0.80722073  0.91679508  0.43874600  1
  O  O382  1  0.80877026  0.91708698  0.68677341  1
  O  O383  1  0.80660044  0.91772754  0.93901401  1
  O  O384  1  0.23516765  0.24975932  0.03830761  1
  O  O385  1  0.23260556  0.24958887  0.28706439  1
  O  O386  1  0.23250264  0.24981627  0.53943781  1
  O  O387  1  0.23270525  0.24931490  0.79020822  1
  O  O388  1  0.23167017  0.58419482  0.04005415  1
  O  O389  1  0.23313190  0.58414321  0.29093252  1
  O  O390  1  0.23452062  0.58293630  0.54075683  1
  O  O391  1  0.23479348  0.58440901  0.78759659  1
  O  O392  1  0.23207598  0.91592857  0.03990118  1
  O  O393  1  0.23442563  0.91642969  0.28852872  1
  O  O394  1  0.23491445  0.91657434  0.54070393  1
  O  O395  1  0.23298533  0.91694346  0.78737697  1
  O  O396  1  0.73310420  0.24977769  0.04004891  1
  O  O397  1  0.73291865  0.24956098  0.29048091  1
  O  O398  1  0.73502037  0.24972059  0.53780011  1
  O  O399  1  0.73357485  0.24896858  0.79016627  1
  O  O400  1  0.73361284  0.58381052  0.04120619  1
  O  O401  1  0.73519653  0.58358620  0.29044746  1
  O  O402  1  0.73353301  0.58331627  0.53753179  1
  O  O403  1  0.73503592  0.58403698  0.78781701  1
  O  O404  1  0.73311463  0.91622235  0.04062670  1
  O  O405  1  0.73506226  0.91714143  0.28762278  1
  O  O406  1  0.73468379  0.91642870  0.54046347  1
  O  O407  1  0.73377410  0.91748799  0.78746348  1
  O  O408  1  0.26543657  0.08339509  0.20906813  1
  O  O409  1  0.26752105  0.08350377  0.46253326  1
  O  O410  1  0.26619451  0.08301600  0.71157550  1
  O  O411  1  0.26452241  0.08274653  0.96165886  1
  O  O412  1  0.26401104  0.41665364  0.21150972  1
  O  O413  1  0.26760489  0.41646477  0.46007892  1
  O  O414  1  0.26699596  0.41541233  0.70975829  1
  O  O415  1  0.26539826  0.41714550  0.96128842  1
  O  O416  1  0.26563368  0.74998457  0.21228969  1
  O  O417  1  0.26674599  0.75018752  0.46337248  1
  O  O418  1  0.26718087  0.75036890  0.70986719  1
  O  O419  1  0.26630180  0.75088574  0.96198917  1
  O  O420  1  0.76469002  0.08334636  0.21159706  1
  O  O421  1  0.76664337  0.08291029  0.46240297  1
  O  O422  1  0.76721204  0.08302130  0.70974547  1
  O  O423  1  0.76512858  0.08229933  0.96209007  1
  O  O424  1  0.76590866  0.41630394  0.21240101  1
  O  O425  1  0.76471553  0.41690578  0.46175350  1
  O  O426  1  0.76614386  0.41646023  0.71159435  1
  O  O427  1  0.76560519  0.41699047  0.95899673  1
  O  O428  1  0.76756718  0.74948859  0.21308253  1
  O  O429  1  0.76585149  0.75065166  0.45977363  1
  O  O430  1  0.76813981  0.75042031  0.71015352  1
  O  O431  1  0.76823122  0.75138871  0.96035702  1
  O  O432  1  0.01843703  0.08271677  0.16476858  1
  O  O433  1  0.01580964  0.08366345  0.41615237  1
  O  O434  1  0.01683499  0.08275338  0.66265591  1
  O  O435  1  0.01760251  0.08324884  0.91178024  1
  O  O436  1  0.01878683  0.41689051  0.16402454  1
  O  O437  1  0.01814986  0.41681229  0.41559134  1
  O  O438  1  0.01567604  0.41715420  0.66564921  1
  O  O439  1  0.01563647  0.41586297  0.91220262  1
  O  O440  1  0.01662993  0.75013081  0.16218079  1
  O  O441  1  0.01710888  0.74972227  0.41313432  1
  O  O442  1  0.01706260  0.75041134  0.66572055  1
  O  O443  1  0.01486115  0.75062273  0.91269288  1
  O  O444  1  0.51748922  0.08255209  0.16439491  1
  O  O445  1  0.51783190  0.08292985  0.41455129  1
  O  O446  1  0.51567582  0.08330816  0.66361088  1
  O  O447  1  0.51469781  0.08353256  0.91230415  1
  O  O448  1  0.51604064  0.41659159  0.16568971  1
  O  O449  1  0.51777716  0.41640831  0.41396761  1
  O  O450  1  0.51706286  0.41690417  0.66155457  1
  O  O451  1  0.51772960  0.41607819  0.91529266  1
  O  O452  1  0.51413777  0.75082382  0.16325065  1
  O  O453  1  0.51613577  0.75026891  0.41314591  1
  O  O454  1  0.51439430  0.75005170  0.66389674  1
  O  O455  1  0.51446085  0.75002390  0.91311236  1
  O  O456  1  0.48294584  0.24911950  0.08776125  1
  O  O457  1  0.48459630  0.24966784  0.33439053  1
  O  O458  1  0.48396377  0.24958072  0.58467117  1
  O  O459  1  0.48173378  0.25047363  0.83426158  1
  O  O460  1  0.48295656  0.58360323  0.08533874  1
  O  O461  1  0.48484217  0.58355435  0.33661164  1
  O  O462  1  0.48298587  0.58372713  0.58481102  1
  O  O463  1  0.48357749  0.58276080  0.83443924  1
  O  O464  1  0.48234313  0.91690691  0.08427370  1
  O  O465  1  0.48413051  0.91690482  0.33484992  1
  O  O466  1  0.48280459  0.91674750  0.58832338  1
  O  O467  1  0.48494806  0.91665209  0.83665910  1
  O  O468  1  0.98520401  0.24952424  0.08566900  1
  O  O469  1  0.98429654  0.25009736  0.33752837  1
  O  O470  1  0.98579866  0.24990504  0.58732950  1
  O  O471  1  0.98479535  0.24926966  0.83355971  1
  O  O472  1  0.98475284  0.58363937  0.08322160  1
  O  O473  1  0.98264971  0.58297800  0.33521098  1
  O  O474  1  0.98151226  0.58430668  0.58583152  1
  O  O475  1  0.98453689  0.58378471  0.83730270  1
  O  O476  1  0.98298886  0.91663577  0.08405141  1
  O  O477  1  0.98412311  0.91636982  0.33531726  1
  O  O478  1  0.98352633  0.91656429  0.58765025  1
  O  O479  1  0.98560827  0.91700847  0.83644753  1
  O  O480  1  0.08867327  0.31490918  0.07830881  1
  O  O481  1  0.08787273  0.31589792  0.32858606  1
  O  O482  1  0.08996860  0.31370678  0.57756886  1
  O  O483  1  0.08900390  0.31367400  0.82611011  1
  O  O484  1  0.08848490  0.64901931  0.07684521  1
  O  O485  1  0.08615460  0.64855787  0.32778571  1
  O  O486  1  0.08533471  0.64975302  0.57803352  1
  O  O487  1  0.08791738  0.64887240  0.82721781  1
  O  O488  1  0.08727983  0.98124799  0.07702498  1
  O  O489  1  0.08787080  0.98103255  0.32816641  1
  O  O490  1  0.08731244  0.98138796  0.57825611  1
  O  O491  1  0.08924580  0.98251958  0.82736432  1
  O  O492  1  0.58657911  0.31379722  0.07783469  1
  O  O493  1  0.58855262  0.31478670  0.32762125  1
  O  O494  1  0.58809706  0.31415354  0.57797343  1
  O  O495  1  0.58560880  0.31592974  0.82752799  1
  O  O496  1  0.58624245  0.64939164  0.07723386  1
  O  O497  1  0.58806494  0.64921741  0.32832461  1
  O  O498  1  0.58716712  0.64830083  0.57646141  1
  O  O499  1  0.58717917  0.64781564  0.82666583  1
  O  O500  1  0.58647233  0.98219956  0.07682684  1
  O  O501  1  0.58820241  0.98128795  0.32843813  1
  O  O502  1  0.58614079  0.98262329  0.57862032  1
  O  O503  1  0.58898519  0.98111283  0.82704569  1
  O  O504  1  0.41383895  0.01724407  0.17213181  1
  O  O505  1  0.41339676  0.01881006  0.42354119  1
  O  O506  1  0.41204666  0.01748860  0.67292741  1
  O  O507  1  0.41113816  0.01913585  0.92204861  1
  O  O508  1  0.41253878  0.35074051  0.17269764  1
  O  O509  1  0.41397515  0.35107192  0.42339793  1
  O  O510  1  0.41334806  0.35245448  0.67193336  1
  O  O511  1  0.41379703  0.35068040  0.92215947  1
  O  O512  1  0.40998215  0.68681645  0.17298130  1
  O  O513  1  0.41230576  0.68531078  0.42303136  1
  O  O514  1  0.41074063  0.68478711  0.67176170  1
  O  O515  1  0.41056190  0.68517815  0.92241977  1
  O  O516  1  0.91471081  0.01717073  0.17207161  1
  O  O517  1  0.91139224  0.01981521  0.42356013  1
  O  O518  1  0.91316311  0.01732916  0.67289839  1
  O  O519  1  0.91401036  0.01848296  0.92238224  1
  O  O520  1  0.91517729  0.35154361  0.17300620  1
  O  O521  1  0.91448558  0.35129693  0.42285825  1
  O  O522  1  0.91154971  0.35259170  0.67335468  1
  O  O523  1  0.91228422  0.35087318  0.92226529  1
  O  O524  1  0.91239084  0.68633361  0.17231585  1
  O  O525  1  0.91364667  0.68400685  0.42181850  1
  O  O526  1  0.91276812  0.68561416  0.67288415  1
  O  O527  1  0.91111962  0.68566391  0.92276128  1
  O  O528  1  0.16118395  0.01921871  0.20185418  1
  O  O529  1  0.16399097  0.01856401  0.45279757  1
  O  O530  1  0.16224513  0.01826034  0.70225856  1
  O  O531  1  0.16130859  0.01659343  0.95271560  1
  O  O532  1  0.16076612  0.35049058  0.20308862  1
  O  O533  1  0.16361533  0.35094920  0.45239849  1
  O  O534  1  0.16306412  0.35056211  0.70299598  1
  O  O535  1  0.16180293  0.35250959  0.95297241  1
  O  O536  1  0.16178495  0.68511509  0.20242557  1
  O  O537  1  0.16309107  0.68473882  0.45256102  1
  O  O538  1  0.16285853  0.68630330  0.70096888  1
  O  O539  1  0.16308390  0.68517745  0.95277150  1
  O  O540  1  0.66034178  0.01966478  0.20230337  1
  O  O541  1  0.66304591  0.01758264  0.45224571  1
  O  O542  1  0.66318954  0.01747505  0.70163248  1
  O  O543  1  0.66179543  0.01657278  0.95380117  1
  O  O544  1  0.66265319  0.35033042  0.20386222  1
  O  O545  1  0.66060624  0.35290477  0.45255333  1
  O  O546  1  0.66233771  0.35142542  0.70172697  1
  O  O547  1  0.66170462  0.35179578  0.95149713  1
  O  O548  1  0.66371921  0.68505066  0.20256790  1
  O  O549  1  0.66253967  0.68401977  0.45200684  1
  O  O550  1  0.66389379  0.68643182  0.70191262  1
  O  O551  1  0.66464974  0.68610308  0.95190146  1
  O  O552  1  0.33877227  0.31497785  0.04807165  1
  O  O553  1  0.33607974  0.31456488  0.29724431  1
  O  O554  1  0.33608963  0.31535249  0.54711857  1
  O  O555  1  0.33707828  0.31356539  0.79838350  1
  O  O556  1  0.33539155  0.64938921  0.04745789  1
  O  O557  1  0.33692543  0.64947267  0.29743647  1
  O  O558  1  0.33848194  0.64814764  0.54745856  1
  O  O559  1  0.33831012  0.64938822  0.79594547  1
  O  O560  1  0.33594113  0.98096267  0.04875633  1
  O  O561  1  0.33805696  0.98106743  0.29699801  1
  O  O562  1  0.33868947  0.98196749  0.54783939  1
  O  O563  1  0.33658924  0.98170511  0.79701224  1
  O  O564  1  0.83687660  0.31476109  0.04802314  1
  O  O565  1  0.83693705  0.31484570  0.29907254  1
  O  O566  1  0.83859147  0.31433792  0.54722359  1
  O  O567  1  0.83710469  0.31442544  0.79668586  1
  O  O568  1  0.83726198  0.64942353  0.04689938  1
  O  O569  1  0.83921611  0.64878211  0.29803932  1
  O  O570  1  0.83721706  0.64852129  0.54747140  1
  O  O571  1  0.83892476  0.64845399  0.79584773  1
  O  O572  1  0.83704512  0.98136436  0.04897174  1
  O  O573  1  0.83889947  0.98113120  0.29686639  1
  O  O574  1  0.83829935  0.98258963  0.54787855  1
  O  O575  1  0.83726051  0.98264556  0.79670511  1
  O  O576  1  0.41365171  0.14741591  0.17253150  1
  O  O577  1  0.41410038  0.14866149  0.42350895  1
  O  O578  1  0.41134587  0.14746286  0.67286141  1
  O  O579  1  0.41145087  0.14936807  0.92106980  1
  O  O580  1  0.41207047  0.48108608  0.17312506  1
  O  O581  1  0.41361369  0.48098350  0.42346127  1
  O  O582  1  0.41380695  0.48264155  0.67136440  1
  O  O583  1  0.41383926  0.48074393  0.92301694  1
  O  O584  1  0.41078845  0.81693008  0.17166850  1
  O  O585  1  0.41230236  0.81513931  0.42293240  1
  O  O586  1  0.41062180  0.81501938  0.67242203  1
  O  O587  1  0.41073882  0.81511338  0.92271379  1
  O  O588  1  0.91445867  0.14721579  0.17276186  1
  O  O589  1  0.91231806  0.14988022  0.42314270  1
  O  O590  1  0.91293570  0.14730213  0.67322902  1
  O  O591  1  0.91410529  0.14839058  0.92239661  1
  O  O592  1  0.91489817  0.48161628  0.17253017  1
  O  O593  1  0.91390169  0.48142089  0.42229667  1
  O  O594  1  0.91176870  0.48274103  0.67247739  1
  O  O595  1  0.91238774  0.48109287  0.92231243  1
  O  O596  1  0.91329390  0.81638524  0.17201657  1
  O  O597  1  0.91334330  0.81404326  0.42233241  1
  O  O598  1  0.91314381  0.81567167  0.67323847  1
  O  O599  1  0.91125760  0.81559706  0.92272383  1
  O  O600  1  0.08887440  0.18464712  0.07841451  1
  O  O601  1  0.08836158  0.18586196  0.32781348  1
  O  O602  1  0.08898063  0.18353334  0.57788255  1
  O  O603  1  0.08864514  0.18378917  0.82672306  1
  O  O604  1  0.08881603  0.51877699  0.07706135  1
  O  O605  1  0.08670931  0.51841821  0.32845372  1
  O  O606  1  0.08548915  0.51967366  0.57745162  1
  O  O607  1  0.08808202  0.51877205  0.82736753  1
  O  O608  1  0.08680720  0.85124782  0.07659019  1
  O  O609  1  0.08765370  0.85084032  0.32824453  1
  O  O610  1  0.08696202  0.85117127  0.57867911  1
  O  O611  1  0.08953989  0.85259987  0.82662607  1
  O  O612  1  0.58629674  0.18361476  0.07807918  1
  O  O613  1  0.58856780  0.18458702  0.32775154  1
  O  O614  1  0.58752431  0.18391289  0.57803431  1
  O  O615  1  0.58562467  0.18584115  0.82679317  1
  O  O616  1  0.58711396  0.51917379  0.07819142  1
  O  O617  1  0.58854453  0.51872954  0.32877844  1
  O  O618  1  0.58710687  0.51833508  0.57697583  1
  O  O619  1  0.58736163  0.51750614  0.82790470  1
  O  O620  1  0.58646447  0.85224424  0.07603942  1
  O  O621  1  0.58742403  0.85102759  0.32767412  1
  O  O622  1  0.58659021  0.85255026  0.57809456  1
  O  O623  1  0.58851987  0.85114667  0.82659755  1
  O  O624  1  0.33891884  0.18492739  0.04784269  1
  O  O625  1  0.33613687  0.18450469  0.29733682  1
  O  O626  1  0.33650575  0.18522245  0.54721647  1
  O  O627  1  0.33634835  0.18353076  0.79791358  1
  O  O628  1  0.33533477  0.51924622  0.04821591  1
  O  O629  1  0.33696408  0.51930209  0.29781973  1
  O  O630  1  0.33865128  0.51798657  0.54726233  1
  O  O631  1  0.33799361  0.51899678  0.79706494  1
  O  O632  1  0.33636279  0.85120171  0.04783076  1
  O  O633  1  0.33779148  0.85081479  0.29634567  1
  O  O634  1  0.33901529  0.85185193  0.54760366  1
  O  O635  1  0.33639470  0.85155200  0.79678267  1
  O  O636  1  0.83677573  0.18454434  0.04818501  1
  O  O637  1  0.83720207  0.18491074  0.29861833  1
  O  O638  1  0.83844223  0.18420407  0.54665869  1
  O  O639  1  0.83733466  0.18394792  0.79659547  1
  O  O640  1  0.83744816  0.51917653  0.04780294  1
  O  O641  1  0.83908300  0.51870000  0.29883261  1
  O  O642  1  0.83748007  0.51858208  0.54775937  1
  O  O643  1  0.83810911  0.51802990  0.79598669  1
  O  O644  1  0.83752389  0.85151713  0.04781375  1
  O  O645  1  0.83815181  0.85085263  0.29667530  1
  O  O646  1  0.83921631  0.85268412  0.54802391  1
  O  O647  1  0.83734751  0.85238750  0.79673000  1
  O  O648  1  0.16174909  0.14916596  0.20221925  1
  O  O649  1  0.16376156  0.14862872  0.45346872  1
  O  O650  1  0.16254563  0.14826209  0.70247505  1
  O  O651  1  0.16054490  0.14675262  0.95214856  1
  O  O652  1  0.15992834  0.48064633  0.20256613  1
  O  O653  1  0.16331988  0.48099402  0.45186211  1
  O  O654  1  0.16349549  0.48080741  0.70185984  1
  O  O655  1  0.16202692  0.48282853  0.95335763  1
  O  O656  1  0.16194291  0.81492533  0.20216113  1
  O  O657  1  0.16285061  0.81477437  0.45255827  1
  O  O658  1  0.16346885  0.81620211  0.70147948  1
  O  O659  1  0.16249959  0.81528741  0.95295730  1
  O  O660  1  0.66149963  0.14972203  0.20331059  1
  O  O661  1  0.66274944  0.14755953  0.45214622  1
  O  O662  1  0.66288209  0.14732908  0.70112939  1
  O  O663  1  0.66140365  0.14676389  0.95276668  1
  O  O664  1  0.66214506  0.48060864  0.20330563  1
  O  O665  1  0.66138543  0.48299579  0.45291975  1
  O  O666  1  0.66233075  0.48146534  0.70170452  1
  O  O667  1  0.66152961  0.48180125  0.95173884  1
  O  O668  1  0.66421271  0.81499890  0.20221911  1
  O  O669  1  0.66125610  0.81410133  0.45179250  1
  O  O670  1  0.66461532  0.81642340  0.70209380  1
  O  O671  1  0.66417208  0.81618617  0.95282781  1
