# generated using pymatgen
data_Na2MnFe(PO4)2
_symmetry_space_group_name_H-M   'P 1'
_cell_length_a   21.07971490
_cell_length_b   18.93038743
_cell_length_c   20.03909664
_cell_angle_alpha   89.99976042
_cell_angle_beta   90.00355698
_cell_angle_gamma   90.00054095
_symmetry_Int_Tables_number   1
_chemical_formula_structural   Na2MnFe(PO4)2
_chemical_formula_sum   'Na96 Mn48 Fe48 P96 O384'
_cell_volume   7996.54478555
_cell_formula_units_Z   48
loop_
 _symmetry_equiv_pos_site_id
 _symmetry_equiv_pos_as_xyz
  1  'x, y, z'
loop_
 _atom_site_type_symbol
 _atom_site_label
 _atom_site_symmetry_multiplicity
 _atom_site_fract_x
 _atom_site_fract_y
 _atom_site_fract_z
 _atom_site_occupancy
  Na  Na0  1  -0.00191132  0.00022348  0.00036272  1
  Na  Na1  1  0.00189653  0.00120849  0.25014064  1
  Na  Na2  1  0.00069283  0.00083132  0.49976190  1
  Na  Na3  1  -0.00251447  -0.00074656  0.74926150  1
  Na  Na4  1  -0.00010206  0.33291539  -0.00056438  1
  Na  Na5  1  -0.00139710  0.33161296  0.25057851  1
  Na  Na6  1  0.00140733  0.33358553  0.50096248  1
  Na  Na7  1  -0.00005101  0.33276282  0.74927713  1
  Na  Na8  1  0.00087337  0.66709450  0.00108968  1
  Na  Na9  1  0.00285445  0.66716011  0.24976178  1
  Na  Na10  1  0.00170359  0.66718881  0.49969344  1
  Na  Na11  1  -0.00064837  0.66636044  0.75006797  1
  Na  Na12  1  0.49932127  -0.00030215  -0.00006900  1
  Na  Na13  1  0.49950945  -0.00023212  0.24993533  1
  Na  Na14  1  0.49796202  -0.00081789  0.50127462  1
  Na  Na15  1  0.49873528  0.00002361  0.74893397  1
  Na  Na16  1  0.50112066  0.33349533  -0.00058551  1
  Na  Na17  1  0.50056456  0.33319958  0.25067399  1
  Na  Na18  1  0.50294700  0.33460560  0.49899071  1
  Na  Na19  1  0.50017852  0.33306253  0.75026902  1
  Na  Na20  1  0.50023293  0.66694016  -0.00051945  1
  Na  Na21  1  0.50207365  0.66766350  0.25039755  1
  Na  Na22  1  0.50045887  0.66692715  0.49969518  1
  Na  Na23  1  0.49985790  0.66683916  0.75052007  1
  Na  Na24  1  0.24768656  -0.00050561  0.12476776  1
  Na  Na25  1  0.24826924  -0.00042934  0.37447572  1
  Na  Na26  1  0.25075354  0.00039508  0.62477524  1
  Na  Na27  1  0.25235542  0.00116781  0.87623676  1
  Na  Na28  1  0.24950264  0.33315943  0.12432196  1
  Na  Na29  1  0.24794410  0.33264645  0.37597479  1
  Na  Na30  1  0.24799185  0.33231180  0.62465508  1
  Na  Na31  1  0.25006512  0.33312952  0.87490402  1
  Na  Na32  1  0.24576998  0.66584678  0.12545611  1
  Na  Na33  1  0.24671185  0.66632553  0.37525484  1
  Na  Na34  1  0.24902860  0.66728172  0.62558733  1
  Na  Na35  1  0.24852368  0.66698814  0.87480252  1
  Na  Na36  1  0.75166440  0.00045671  0.12392719  1
  Na  Na37  1  0.75097647  -0.00001870  0.37552413  1
  Na  Na38  1  0.75272149  0.00096693  0.62476052  1
  Na  Na39  1  0.75201050  0.00038398  0.87548899  1
  Na  Na40  1  0.74984504  0.33265870  0.12546619  1
  Na  Na41  1  0.75104195  0.33356337  0.37463370  1
  Na  Na42  1  0.74987270  0.33352952  0.62457398  1
  Na  Na43  1  0.75049700  0.33322568  0.87480518  1
  Na  Na44  1  0.74848969  0.66593678  0.12423846  1
  Na  Na45  1  0.74994337  0.66700647  0.37577246  1
  Na  Na46  1  0.75157514  0.66704657  0.62536106  1
  Na  Na47  1  0.75227646  0.66728883  0.87439733  1
  Na  Na48  1  -0.00099815  0.16703392  -0.00068365  1
  Na  Na49  1  0.00022458  0.16663777  0.25004213  1
  Na  Na50  1  0.00058538  0.16700257  0.50045042  1
  Na  Na51  1  -0.00083558  0.16675632  0.74973567  1
  Na  Na52  1  -0.00051361  0.50037035  -0.00011865  1
  Na  Na53  1  0.00147262  0.49943349  0.25032418  1
  Na  Na54  1  -0.00116463  0.50031510  0.49985674  1
  Na  Na55  1  -0.00182533  0.50057336  0.75036226  1
  Na  Na56  1  -0.00090359  0.83392723  0.00123670  1
  Na  Na57  1  0.00315161  0.83223420  0.25042312  1
  Na  Na58  1  0.00232102  0.83283122  0.49962464  1
  Na  Na59  1  0.00132071  0.83211526  0.74895377  1
  Na  Na60  1  0.50028357  0.16650835  -0.00099856  1
  Na  Na61  1  0.50020404  0.16687435  0.25108320  1
  Na  Na62  1  0.49947392  0.16669730  0.50003494  1
  Na  Na63  1  0.49866706  0.16737268  0.74956820  1
  Na  Na64  1  0.50105057  0.49893391  0.00024664  1
  Na  Na65  1  0.50007994  0.50005153  0.25000962  1
  Na  Na66  1  0.50191224  0.49901954  0.49923361  1
  Na  Na67  1  0.50030004  0.49925024  0.75016659  1
  Na  Na68  1  0.50005933  0.83352450  -0.00015399  1
  Na  Na69  1  0.50096542  0.83354234  0.24972309  1
  Na  Na70  1  0.49980595  0.83363137  0.50082718  1
  Na  Na71  1  0.49995635  0.83330187  0.74984344  1
  Na  Na72  1  0.24664575  0.16781724  0.12485276  1
  Na  Na73  1  0.24842741  0.16650231  0.37408194  1
  Na  Na74  1  0.25024940  0.16659710  0.62536719  1
  Na  Na75  1  0.25007616  0.16680458  0.87569519  1
  Na  Na76  1  0.24870511  0.50019563  0.12504319  1
  Na  Na77  1  0.24839146  0.49982626  0.37585325  1
  Na  Na78  1  0.24889731  0.50009935  0.62498751  1
  Na  Na79  1  0.25025509  0.49981143  0.87450306  1
  Na  Na80  1  0.24801994  0.83350532  0.12453497  1
  Na  Na81  1  0.24739159  0.83388828  0.37559451  1
  Na  Na82  1  0.24810398  0.83398558  0.62471153  1
  Na  Na83  1  0.25059275  0.83250111  0.87559119  1
  Na  Na84  1  0.75220040  0.16675663  0.12522383  1
  Na  Na85  1  0.75226576  0.16640042  0.37417171  1
  Na  Na86  1  0.75138943  0.16722082  0.62474798  1
  Na  Na87  1  0.75347157  0.16598534  0.87483690  1
  Na  Na88  1  0.74970308  0.49987121  0.12423649  1
  Na  Na89  1  0.74898510  0.50045896  0.37603688  1
  Na  Na90  1  0.75219459  0.49887808  0.62559517  1
  Na  Na91  1  0.75051052  0.50003470  0.87427445  1
  Na  Na92  1  0.74813323  0.83425818  0.12418703  1
  Na  Na93  1  0.75060726  0.83250519  0.37547209  1
  Na  Na94  1  0.74849928  0.83439164  0.62491776  1
  Na  Na95  1  0.75073148  0.83295321  0.87527468  1
  Mn  Mn96  1  0.89272703  0.91580929  0.62686505  1
  Mn  Mn97  1  0.85779478  0.41716917  0.25258046  1
  Mn  Mn98  1  0.60801475  0.08357354  0.87242133  1
  Mn  Mn99  1  0.64308060  0.58372766  0.74737400  1
  Mn  Mn100  1  0.64259233  0.58282704  0.99726296  1
  Mn  Mn101  1  0.64255782  0.91760849  0.49764420  1
  Mn  Mn102  1  0.60772649  0.41659484  0.12291988  1
  Mn  Mn103  1  0.14125590  0.91669092  0.99670513  1
  Mn  Mn104  1  0.10829322  0.08315873  0.62293890  1
  Mn  Mn105  1  0.85776368  0.41642053  0.00211342  1
  Mn  Mn106  1  0.39153688  0.91594568  0.62759144  1
  Mn  Mn107  1  0.60881813  0.08332665  0.12303797  1
  Mn  Mn108  1  0.10662113  0.08244149  0.87235989  1
  Mn  Mn109  1  0.60810639  0.08344313  0.62263814  1
  Mn  Mn110  1  0.89247588  0.58318788  0.37697909  1
  Mn  Mn111  1  0.64294053  0.91752008  0.99698468  1
  Mn  Mn112  1  0.89270744  0.25077845  0.62694018  1
  Mn  Mn113  1  0.14170622  0.58257320  0.74754357  1
  Mn  Mn114  1  0.35739464  0.41625980  0.50237261  1
  Mn  Mn115  1  0.10799326  0.41604592  0.12258046  1
  Mn  Mn116  1  0.64311897  0.58303059  0.49853015  1
  Mn  Mn117  1  0.60809013  0.08311184  0.37328350  1
  Mn  Mn118  1  0.39194984  0.58299283  0.62649933  1
  Mn  Mn119  1  0.35734526  0.08374397  0.00279215  1
  Mn  Mn120  1  0.85758656  0.75015312  0.25186847  1
  Mn  Mn121  1  0.35646699  0.08367097  0.25211468  1
  Mn  Mn122  1  0.60793748  0.75003139  0.87256836  1
  Mn  Mn123  1  0.39166994  0.58366573  0.12747650  1
  Mn  Mn124  1  0.89252619  0.91682029  0.12845710  1
  Mn  Mn125  1  0.35671409  0.74956596  0.25208391  1
  Mn  Mn126  1  0.39190103  0.24963701  0.37720127  1
  Mn  Mn127  1  0.39187421  0.58320580  0.87730923  1
  Mn  Mn128  1  0.89271021  0.58306941  0.12803919  1
  Mn  Mn129  1  0.35689035  0.74947102  0.00260027  1
  Mn  Mn130  1  0.39189767  0.24992942  0.12710853  1
  Mn  Mn131  1  0.14223608  0.91757536  0.74874949  1
  Mn  Mn132  1  0.60830936  0.75027147  0.37314270  1
  Mn  Mn133  1  0.89316871  0.91666983  0.37677699  1
  Mn  Mn134  1  0.39217348  0.25078043  0.62642625  1
  Mn  Mn135  1  0.10740163  0.41645753  0.37272887  1
  Mn  Mn136  1  0.64329972  0.24921853  0.24761587  1
  Mn  Mn137  1  0.35655461  0.75011800  0.50206335  1
  Mn  Mn138  1  0.39180901  0.58395009  0.37700543  1
  Mn  Mn139  1  0.85845971  0.75040992  0.75232981  1
  Mn  Mn140  1  0.35750180  0.41717628  0.00206411  1
  Mn  Mn141  1  0.64274895  0.24919739  0.74783732  1
  Mn  Mn142  1  0.39222887  0.91648575  0.12762752  1
  Mn  Mn143  1  0.10728018  0.41704410  0.87187811  1
  Fe  Fe144  1  0.89338823  0.58337188  0.62603012  1
  Fe  Fe145  1  0.60827931  0.41706477  0.62363681  1
  Fe  Fe146  1  0.39245847  0.24980495  0.87676174  1
  Fe  Fe147  1  0.35758633  0.41633480  0.75111889  1
  Fe  Fe148  1  0.64343626  0.24971717  0.99817790  1
  Fe  Fe149  1  0.60802251  0.41683069  0.37294378  1
  Fe  Fe150  1  0.39270969  0.91679793  0.87622388  1
  Fe  Fe151  1  0.35756230  0.08367556  0.75186943  1
  Fe  Fe152  1  0.85824680  0.08270660  0.25205423  1
  Fe  Fe153  1  0.85838258  0.08344340  0.50119799  1
  Fe  Fe154  1  0.64294119  0.91712756  0.74896530  1
  Fe  Fe155  1  0.60741572  0.74937259  0.62379383  1
  Fe  Fe156  1  0.85780984  0.08356219  0.75164877  1
  Fe  Fe157  1  0.10621523  0.75044112  0.87366080  1
  Fe  Fe158  1  0.89326015  0.24986498  0.37708825  1
  Fe  Fe159  1  0.64240985  0.91662660  0.24884756  1
  Fe  Fe160  1  0.10735499  0.75041177  0.37325649  1
  Fe  Fe161  1  0.85859540  0.74984659  0.50200002  1
  Fe  Fe162  1  0.14243576  0.58271038  0.24816098  1
  Fe  Fe163  1  0.10716663  0.41722896  0.62385158  1
  Fe  Fe164  1  0.10776604  0.74927011  0.62344451  1
  Fe  Fe165  1  0.60775891  0.75006746  0.12321008  1
  Fe  Fe166  1  0.85775645  0.08336672  0.00200118  1
  Fe  Fe167  1  0.39160569  0.91661682  0.37608476  1
  Fe  Fe168  1  0.85784343  0.41605521  0.75174999  1
  Fe  Fe169  1  0.10728136  0.75055617  0.12271964  1
  Fe  Fe170  1  0.64218410  0.58380923  0.24815453  1
  Fe  Fe171  1  0.89194952  0.91599801  0.87632497  1
  Fe  Fe172  1  0.35624958  0.08334808  0.50067291  1
  Fe  Fe173  1  0.64376506  0.24973779  0.49843919  1
  Fe  Fe174  1  0.85727889  0.41672290  0.50207897  1
  Fe  Fe175  1  0.35701451  0.75010463  0.75175438  1
  Fe  Fe176  1  0.89307537  0.58384192  0.87721816  1
  Fe  Fe177  1  0.14144562  0.58293691  0.49849983  1
  Fe  Fe178  1  0.10733279  0.08347273  0.37318660  1
  Fe  Fe179  1  0.89281697  0.25019539  0.87691967  1
  Fe  Fe180  1  0.14178693  0.25024140  0.24785145  1
  Fe  Fe181  1  0.14297865  0.24980449  0.74918393  1
  Fe  Fe182  1  0.14236727  0.24937871  0.49802530  1
  Fe  Fe183  1  0.85786418  0.75014459  0.00220325  1
  Fe  Fe184  1  0.89311014  0.25020411  0.12628574  1
  Fe  Fe185  1  0.10622215  0.08355351  0.12300150  1
  Fe  Fe186  1  0.60732048  0.41631200  0.87275346  1
  Fe  Fe187  1  0.14178909  0.25062310  0.99742059  1
  Fe  Fe188  1  0.14243539  0.91742193  0.49782168  1
  Fe  Fe189  1  0.35663132  0.41660965  0.25170729  1
  Fe  Fe190  1  0.14241172  0.91703202  0.24805046  1
  Fe  Fe191  1  0.14174416  0.58258936  0.99767567  1
  P  P192  1  0.05372500  0.24923041  0.11022138  1
  P  P193  1  0.05406673  0.24914181  0.36081853  1
  P  P194  1  0.05579847  0.25061445  0.61109231  1
  P  P195  1  0.05336289  0.24975903  0.85997766  1
  P  P196  1  0.05543717  0.58343755  0.11051187  1
  P  P197  1  0.05490461  0.58384005  0.36054480  1
  P  P198  1  0.05289981  0.58277962  0.60986853  1
  P  P199  1  0.05285335  0.58435936  0.86108672  1
  P  P200  1  0.05455619  0.91735099  0.11132776  1
  P  P201  1  0.05545910  0.91723392  0.36071531  1
  P  P202  1  0.05450468  0.91624755  0.60947495  1
  P  P203  1  0.05084120  0.91597912  0.85984864  1
  P  P204  1  0.55417058  0.24962507  0.10900657  1
  P  P205  1  0.55523541  0.25026043  0.36139669  1
  P  P206  1  0.55449634  0.25077108  0.60916368  1
  P  P207  1  0.55353160  0.25028784  0.86085673  1
  P  P208  1  0.55437443  0.58422832  0.11070580  1
  P  P209  1  0.55442000  0.58272205  0.35965146  1
  P  P210  1  0.55356801  0.58337330  0.61017980  1
  P  P211  1  0.55361044  0.58231451  0.85975824  1
  P  P212  1  0.55519608  0.91617402  0.11076407  1
  P  P213  1  0.55240032  0.91712336  0.35976173  1
  P  P214  1  0.55482131  0.91586463  0.61147915  1
  P  P215  1  0.55280112  0.91721449  0.85901539  1
  P  P216  1  0.44699104  0.08367997  0.14051308  1
  P  P217  1  0.44562145  0.08226775  0.39069315  1
  P  P218  1  0.44449991  0.08367675  0.63910797  1
  P  P219  1  0.44504574  0.08332512  0.88856756  1
  P  P220  1  0.44581101  0.41647032  0.14098628  1
  P  P221  1  0.44635683  0.41677731  0.38884210  1
  P  P222  1  0.44786040  0.41653833  0.64015939  1
  P  P223  1  0.44622187  0.41566277  0.88876781  1
  P  P224  1  0.44780352  0.74991270  0.14025375  1
  P  P225  1  0.44635883  0.75109516  0.39001748  1
  P  P226  1  0.44679481  0.74953987  0.64049610  1
  P  P227  1  0.44513261  0.75088373  0.88899366  1
  P  P228  1  0.94589972  0.08441429  0.13956836  1
  P  P229  1  0.94663905  0.08398725  0.38933509  1
  P  P230  1  0.94518694  0.08358085  0.63926041  1
  P  P231  1  0.94422007  0.08333944  0.88910718  1
  P  P232  1  0.94696975  0.41575122  0.14017468  1
  P  P233  1  0.94602097  0.41565450  0.39083820  1
  P  P234  1  0.94622985  0.41738892  0.63930347  1
  P  P235  1  0.94542930  0.41639720  0.88860005  1
  P  P236  1  0.94736683  0.74994341  0.13960540  1
  P  P237  1  0.94773208  0.75007823  0.39017942  1
  P  P238  1  0.94728777  0.74906526  0.63852086  1
  P  P239  1  0.94691300  0.75015194  0.89076329  1
  P  P240  1  0.19381893  0.08349467  0.23538067  1
  P  P241  1  0.19655165  0.08340213  0.48446497  1
  P  P242  1  0.19796754  0.08384323  0.73571064  1
  P  P243  1  0.19436994  0.08431681  0.98596145  1
  P  P244  1  0.19708477  0.41612631  0.23525353  1
  P  P245  1  0.19460207  0.41659360  0.48667366  1
  P  P246  1  0.19718665  0.41565777  0.73457320  1
  P  P247  1  0.19588471  0.41660256  0.98443254  1
  P  P248  1  0.19402382  0.75032679  0.23570905  1
  P  P249  1  0.19378797  0.74989143  0.48605289  1
  P  P250  1  0.19555504  0.75043661  0.73608273  1
  P  P251  1  0.19387917  0.74918469  0.98515907  1
  P  P252  1  0.69879472  0.08237168  0.23511678  1
  P  P253  1  0.69869933  0.08445864  0.48511603  1
  P  P254  1  0.69847291  0.08270136  0.73511893  1
  P  P255  1  0.69847032  0.08454079  0.98485896  1
  P  P256  1  0.69580049  0.41739118  0.23607604  1
  P  P257  1  0.69625217  0.41587712  0.48587376  1
  P  P258  1  0.69674410  0.41636719  0.73558508  1
  P  P259  1  0.69596638  0.41548832  0.98412995  1
  P  P260  1  0.69600695  0.75013081  0.23441976  1
  P  P261  1  0.69743917  0.74984053  0.48670683  1
  P  P262  1  0.69658232  0.75093199  0.73455886  1
  P  P263  1  0.69724431  0.74992145  0.98555839  1
  P  P264  1  0.30271576  0.25024994  0.01402333  1
  P  P265  1  0.30138891  0.25080863  0.26481216  1
  P  P266  1  0.30169670  0.24898575  0.51456499  1
  P  P267  1  0.30307455  0.25036644  0.76516735  1
  P  P268  1  0.30123708  0.58356289  0.01522543  1
  P  P269  1  0.30134673  0.58272061  0.26511080  1
  P  P270  1  0.30110123  0.58351325  0.51492100  1
  P  P271  1  0.30318475  0.58330977  0.76461312  1
  P  P272  1  0.30395521  0.91654181  0.01424057  1
  P  P273  1  0.30177915  0.91641486  0.26527372  1
  P  P274  1  0.30277143  0.91735527  0.51348563  1
  P  P275  1  0.30368379  0.91661271  0.76573986  1
  P  P276  1  0.80445988  0.24959175  0.01450350  1
  P  P277  1  0.80625722  0.24921595  0.26438906  1
  P  P278  1  0.80439748  0.25037552  0.51353179  1
  P  P279  1  0.80468202  0.25041759  0.76513078  1
  P  P280  1  0.80525797  0.58398645  0.01386282  1
  P  P281  1  0.80163575  0.58374778  0.26524118  1
  P  P282  1  0.80487768  0.58314145  0.51566870  1
  P  P283  1  0.80621521  0.58254154  0.76406582  1
  P  P284  1  0.80561451  0.91639038  0.01381810  1
  P  P285  1  0.80225104  0.91688977  0.26507577  1
  P  P286  1  0.80436949  0.91648252  0.51468464  1
  P  P287  1  0.80307152  0.91703239  0.76528552  1
  O  O288  1  0.05811815  0.25024578  0.18699489  1
  O  O289  1  0.05875459  0.24962575  0.43756165  1
  O  O290  1  0.05989107  0.24946594  0.68787108  1
  O  O291  1  0.05796801  0.25006317  0.93670923  1
  O  O292  1  0.05960640  0.58233824  0.18736992  1
  O  O293  1  0.05826486  0.58279525  0.43735669  1
  O  O294  1  0.05596834  0.58277699  0.68665167  1
  O  O295  1  0.05738349  0.58308433  0.93775121  1
  O  O296  1  0.05841802  0.91716299  0.18810572  1
  O  O297  1  0.05876822  0.91766761  0.43755220  1
  O  O298  1  0.05708833  0.91722817  0.68630271  1
  O  O299  1  0.05451064  0.91718179  0.93654123  1
  O  O300  1  0.55761271  0.24936709  0.18585672  1
  O  O301  1  0.55978025  0.24946540  0.43810706  1
  O  O302  1  0.55724983  0.24970365  0.68601741  1
  O  O303  1  0.55876642  0.24935491  0.93744295  1
  O  O304  1  0.55839880  0.58373031  0.18747759  1
  O  O305  1  0.55775545  0.58320081  0.43644714  1
  O  O306  1  0.55632272  0.58335393  0.68693956  1
  O  O307  1  0.55668605  0.58290086  0.93656777  1
  O  O308  1  0.55951659  0.91721417  0.18753901  1
  O  O309  1  0.55645231  0.91729412  0.43654560  1
  O  O310  1  0.55935597  0.91717873  0.68816838  1
  O  O311  1  0.55689348  0.91739754  0.93580370  1
  O  O312  1  0.44353816  0.08370391  0.06368822  1
  O  O313  1  0.44241330  0.08328475  0.31388734  1
  O  O314  1  0.43973328  0.08359910  0.56240138  1
  O  O315  1  0.44113144  0.08378992  0.81173242  1
  O  O316  1  0.44273197  0.41644409  0.06411309  1
  O  O317  1  0.44052286  0.41651383  0.31223098  1
  O  O318  1  0.44367753  0.41643776  0.56340227  1
  O  O319  1  0.44119170  0.41618704  0.81208340  1
  O  O320  1  0.44348078  0.74971047  0.06351708  1
  O  O321  1  0.44298597  0.75037593  0.31326885  1
  O  O322  1  0.44258856  0.74984725  0.56376289  1
  O  O323  1  0.44073361  0.74998884  0.81224557  1
  O  O324  1  0.94129772  0.08370893  0.06282267  1
  O  O325  1  0.94212100  0.08297952  0.31260589  1
  O  O326  1  0.94126653  0.08386770  0.56243837  1
  O  O327  1  0.94073596  0.08317751  0.81220747  1
  O  O328  1  0.94384462  0.41651158  0.06339011  1
  O  O329  1  0.94328819  0.41658731  0.31401623  1
  O  O330  1  0.94168273  0.41624446  0.56260879  1
  O  O331  1  0.94202671  0.41606917  0.81180263  1
  O  O332  1  0.94207799  0.75004170  0.06298917  1
  O  O333  1  0.94381843  0.75000733  0.31346087  1
  O  O334  1  0.94265902  0.75002782  0.56184879  1
  O  O335  1  0.94399674  0.75026701  0.81395508  1
  O  O336  1  0.19003466  0.08357666  0.06271048  1
  O  O337  1  0.19048649  0.08348271  0.31221630  1
  O  O338  1  0.19382945  0.08335125  0.56124373  1
  O  O339  1  0.19372966  0.08302887  0.81236290  1
  O  O340  1  0.19324263  0.41637739  0.06119572  1
  O  O341  1  0.19350985  0.41595620  0.31197351  1
  O  O342  1  0.19090468  0.41699496  0.56340920  1
  O  O343  1  0.19335716  0.41664962  0.81129275  1
  O  O344  1  0.18988327  0.75039172  0.06200860  1
  O  O345  1  0.19073196  0.75050680  0.31257712  1
  O  O346  1  0.19054962  0.74971188  0.56296958  1
  O  O347  1  0.19037467  0.75042291  0.81275162  1
  O  O348  1  0.69477366  0.08401989  0.06153031  1
  O  O349  1  0.69473406  0.08301125  0.31178792  1
  O  O350  1  0.69474951  0.08398368  0.56179036  1
  O  O351  1  0.69461244  0.08328790  0.81180578  1
  O  O352  1  0.69309642  0.41630799  0.06096892  1
  O  O353  1  0.69212364  0.41687472  0.31289942  1
  O  O354  1  0.69183237  0.41673199  0.56264498  1
  O  O355  1  0.69159015  0.41647697  0.81223377  1
  O  O356  1  0.69207717  0.74977485  0.06217240  1
  O  O357  1  0.69367124  0.75017072  0.31132168  1
  O  O358  1  0.69219196  0.74977149  0.56329345  1
  O  O359  1  0.69359085  0.74982283  0.81140002  1
  O  O360  1  0.30513705  0.25024512  0.18811692  1
  O  O361  1  0.30547391  0.24978885  0.43788880  1
  O  O362  1  0.30633136  0.25047062  0.68843552  1
  O  O363  1  0.30817709  0.24992408  0.93738908  1
  O  O364  1  0.30510069  0.58356082  0.18840090  1
  O  O365  1  0.30511697  0.58355987  0.43822800  1
  O  O366  1  0.30603471  0.58348198  0.68783323  1
  O  O367  1  0.30575396  0.58389801  0.93853240  1
  O  O368  1  0.30576784  0.91632486  0.18852533  1
  O  O369  1  0.30728729  0.91644991  0.43684645  1
  O  O370  1  0.30575816  0.91625772  0.68880342  1
  O  O371  1  0.30885346  0.91652786  0.93755094  1
  O  O372  1  0.80999851  0.25017293  0.18758749  1
  O  O373  1  0.80869110  0.25027510  0.43684303  1
  O  O374  1  0.80727530  0.25092403  0.68829193  1
  O  O375  1  0.80892300  0.25043711  0.93778988  1
  O  O376  1  0.80576948  0.58336638  0.18850642  1
  O  O377  1  0.80718241  0.58349978  0.43884029  1
  O  O378  1  0.81024927  0.58333337  0.68728859  1
  O  O379  1  0.80954033  0.58371101  0.93704963  1
  O  O380  1  0.80597624  0.91646844  0.18833243  1
  O  O381  1  0.80742216  0.91592901  0.43792140  1
  O  O382  1  0.80681384  0.91611787  0.68857492  1
  O  O383  1  0.80932430  0.91586719  0.93702737  1
  O  O384  1  0.23224287  0.25048541  0.03722891  1
  O  O385  1  0.23125699  0.24984060  0.28928131  1
  O  O386  1  0.23164308  0.24925594  0.53910033  1
  O  O387  1  0.23289668  0.25014765  0.78993720  1
  O  O388  1  0.23107800  0.58319600  0.03915860  1
  O  O389  1  0.23120141  0.58301139  0.28956460  1
  O  O390  1  0.23105212  0.58362594  0.53943414  1
  O  O391  1  0.23344388  0.58311596  0.78988433  1
  O  O392  1  0.23371035  0.91651730  0.03761669  1
  O  O393  1  0.23150141  0.91671853  0.28911987  1
  O  O394  1  0.23245857  0.91721242  0.53748489  1
  O  O395  1  0.23413922  0.91696051  0.79165316  1
  O  O396  1  0.73421618  0.24997728  0.03854948  1
  O  O397  1  0.73618304  0.24984595  0.28851972  1
  O  O398  1  0.73430222  0.25035825  0.53808887  1
  O  O399  1  0.73499100  0.24981798  0.79036765  1
  O  O400  1  0.73518656  0.58285088  0.03775674  1
  O  O401  1  0.73171095  0.58412578  0.28990016  1
  O  O402  1  0.73531250  0.58281227  0.54128911  1
  O  O403  1  0.73609871  0.58365278  0.78816437  1
  O  O404  1  0.73561771  0.91711325  0.03810721  1
  O  O405  1  0.73235739  0.91642661  0.29006129  1
  O  O406  1  0.73471472  0.91740176  0.53993669  1
  O  O407  1  0.73304560  0.91661608  0.79009334  1
  O  O408  1  0.26374169  0.08361632  0.21055370  1
  O  O409  1  0.26639115  0.08327632  0.45911894  1
  O  O410  1  0.26805397  0.08368365  0.71129441  1
  O  O411  1  0.26444547  0.08408856  0.96208003  1
  O  O412  1  0.26691252  0.41647038  0.21001007  1
  O  O413  1  0.26443874  0.41608729  0.46177044  1
  O  O414  1  0.26731296  0.41617716  0.71011690  1
  O  O415  1  0.26543508  0.41654510  0.95891132  1
  O  O416  1  0.26388265  0.74999720  0.21066957  1
  O  O417  1  0.26365725  0.75001288  0.46120669  1
  O  O418  1  0.26601997  0.75053766  0.71260892  1
  O  O419  1  0.26396887  0.74975443  0.96129125  1
  O  O420  1  0.76886640  0.08309550  0.21054422  1
  O  O421  1  0.76881173  0.08361395  0.46064519  1
  O  O422  1  0.76861689  0.08377042  0.71069811  1
  O  O423  1  0.76860129  0.08358349  0.96058759  1
  O  O424  1  0.76566613  0.41641296  0.21124764  1
  O  O425  1  0.76668355  0.41688011  0.46221678  1
  O  O426  1  0.76725647  0.41605689  0.71234094  1
  O  O427  1  0.76576452  0.41652250  0.95931898  1
  O  O428  1  0.76558508  0.75015984  0.20864781  1
  O  O429  1  0.76785197  0.74951619  0.46304626  1
  O  O430  1  0.76648132  0.75053828  0.70988759  1
  O  O431  1  0.76760908  0.75028294  0.96196015  1
  O  O432  1  0.01627655  0.08378144  0.16314192  1
  O  O433  1  0.01702202  0.08386191  0.41305998  1
  O  O434  1  0.01525658  0.08314824  0.66341337  1
  O  O435  1  0.01416977  0.08361823  0.91371832  1
  O  O436  1  0.01657128  0.41557302  0.16550637  1
  O  O437  1  0.01575877  0.41648867  0.41579260  1
  O  O438  1  0.01655808  0.41677065  0.66329012  1
  O  O439  1  0.01522697  0.41664520  0.91356169  1
  O  O440  1  0.01783312  0.74978433  0.16275696  1
  O  O441  1  0.01799077  0.75027541  0.41410495  1
  O  O442  1  0.01760498  0.74899533  0.66245920  1
  O  O443  1  0.01683193  0.75031096  0.91592662  1
  O  O444  1  0.51669245  0.08354854  0.16550005  1
  O  O445  1  0.51538632  0.08283092  0.41581231  1
  O  O446  1  0.51476403  0.08368227  0.66274205  1
  O  O447  1  0.51502871  0.08304505  0.91311444  1
  O  O448  1  0.51565871  0.41643888  0.16560384  1
  O  O449  1  0.51698530  0.41686463  0.41162789  1
  O  O450  1  0.51808205  0.41635192  0.66423330  1
  O  O451  1  0.51654729  0.41613249  0.91254829  1
  O  O452  1  0.51789165  0.75041963  0.16445448  1
  O  O453  1  0.51614111  0.75068952  0.41505435  1
  O  O454  1  0.51697114  0.74987092  0.66463868  1
  O  O455  1  0.51524217  0.75036202  0.91309609  1
  O  O456  1  0.48435898  0.25005742  0.08424647  1
  O  O457  1  0.48508452  0.25004782  0.33737836  1
  O  O458  1  0.48475476  0.25071881  0.58397623  1
  O  O459  1  0.48319102  0.25008187  0.83707739  1
  O  O460  1  0.48446429  0.58323054  0.08600437  1
  O  O461  1  0.48456639  0.58348464  0.33483177  1
  O  O462  1  0.48411618  0.58297636  0.58412829  1
  O  O463  1  0.48389702  0.58279135  0.83472574  1
  O  O464  1  0.48514883  0.91639314  0.08657714  1
  O  O465  1  0.48230649  0.91682086  0.33536269  1
  O  O466  1  0.48458898  0.91599620  0.58765534  1
  O  O467  1  0.48267764  0.91705301  0.83487155  1
  O  O468  1  0.98340294  0.24980075  0.08633335  1
  O  O469  1  0.98366073  0.24937853  0.33732479  1
  O  O470  1  0.98565808  0.25022204  0.58706797  1
  O  O471  1  0.98296881  0.24958483  0.83650682  1
  O  O472  1  0.98531892  0.58327598  0.08664270  1
  O  O473  1  0.98498438  0.58320056  0.33575348  1
  O  O474  1  0.98296300  0.58330622  0.58484356  1
  O  O475  1  0.98260171  0.58388431  0.83709735  1
  O  O476  1  0.98458128  0.91747518  0.08701714  1
  O  O477  1  0.98560694  0.91674726  0.33569073  1
  O  O478  1  0.98485971  0.91682110  0.58413098  1
  O  O479  1  0.98092589  0.91580462  0.83491528  1
  O  O480  1  0.08749024  0.31398700  0.07657740  1
  O  O481  1  0.08732681  0.31420725  0.32713880  1
  O  O482  1  0.08899273  0.31596126  0.57841454  1
  O  O483  1  0.08684833  0.31466688  0.82649429  1
  O  O484  1  0.08899984  0.64860415  0.07782849  1
  O  O485  1  0.08845027  0.64919280  0.32823567  1
  O  O486  1  0.08744127  0.64753444  0.57738885  1
  O  O487  1  0.08590851  0.64976022  0.82830723  1
  O  O488  1  0.08793617  0.98250278  0.07822373  1
  O  O489  1  0.08901275  0.98239336  0.32778939  1
  O  O490  1  0.08906937  0.98112746  0.57684579  1
  O  O491  1  0.08456480  0.98100213  0.82667198  1
  O  O492  1  0.58858970  0.31459350  0.07664346  1
  O  O493  1  0.58876181  0.31541436  0.32854585  1
  O  O494  1  0.58890131  0.31596106  0.57740447  1
  O  O495  1  0.58688574  0.31547005  0.82775349  1
  O  O496  1  0.58772355  0.64959687  0.07784411  1
  O  O497  1  0.58890148  0.64770282  0.32722783  1
  O  O498  1  0.58762499  0.64872459  0.57803760  1
  O  O499  1  0.58793351  0.64734353  0.82736308  1
  O  O500  1  0.58875281  0.98121134  0.07729784  1
  O  O501  1  0.58631292  0.98212901  0.32682704  1
  O  O502  1  0.58804651  0.98089641  0.57769101  1
  O  O503  1  0.58670763  0.98218562  0.82601763  1
  O  O504  1  0.41266202  0.01868492  0.17281939  1
  O  O505  1  0.41159876  0.01689636  0.42272277  1
  O  O506  1  0.41086791  0.01870932  0.67240880  1
  O  O507  1  0.41133022  0.01808623  0.92120635  1
  O  O508  1  0.41170512  0.35142848  0.17355531  1
  O  O509  1  0.41346744  0.35168740  0.42274685  1
  O  O510  1  0.41389315  0.35157607  0.67305143  1
  O  O511  1  0.41307775  0.35042273  0.92197245  1
  O  O512  1  0.41426237  0.68475670  0.17324786  1
  O  O513  1  0.41222042  0.68603515  0.42267317  1
  O  O514  1  0.41305365  0.68441112  0.67322248  1
  O  O515  1  0.41151071  0.68588894  0.92243888  1
  O  O516  1  0.91234792  0.01962450  0.17345722  1
  O  O517  1  0.91319593  0.01903783  0.42284231  1
  O  O518  1  0.91113399  0.01869984  0.67208521  1
  O  O519  1  0.91065627  0.01823437  0.92207798  1
  O  O520  1  0.91269809  0.35064730  0.17205526  1
  O  O521  1  0.91239939  0.35027398  0.42314902  1
  O  O522  1  0.91243717  0.35259205  0.67292338  1
  O  O523  1  0.91194744  0.35112167  0.92155570  1
  O  O524  1  0.91424906  0.68494442  0.17315860  1
  O  O525  1  0.91402499  0.68506736  0.42314266  1
  O  O526  1  0.91380233  0.68411857  0.67155447  1
  O  O527  1  0.91293467  0.68501996  0.92335798  1
  O  O528  1  0.16006572  0.01833011  0.20259044  1
  O  O529  1  0.16217689  0.01849340  0.45196176  1
  O  O530  1  0.16424005  0.01886795  0.70254385  1
  O  O531  1  0.16095271  0.01928611  0.95237260  1
  O  O532  1  0.16319900  0.35095512  0.20257497  1
  O  O533  1  0.16065971  0.35144989  0.45398953  1
  O  O534  1  0.16321997  0.35048894  0.70241518  1
  O  O535  1  0.16150641  0.35154363  0.95217456  1
  O  O536  1  0.15988759  0.68522647  0.20331628  1
  O  O537  1  0.15989638  0.68483507  0.45330290  1
  O  O538  1  0.16221359  0.68531854  0.70262133  1
  O  O539  1  0.16049635  0.68380621  0.95257177  1
  O  O540  1  0.66529342  0.01713069  0.20247220  1
  O  O541  1  0.66454417  0.01951611  0.45231166  1
  O  O542  1  0.66518796  0.01740701  0.70241170  1
  O  O543  1  0.66430960  0.01971975  0.95190738  1
  O  O544  1  0.66176167  0.35244740  0.20320290  1
  O  O545  1  0.66326774  0.35062010  0.45263915  1
  O  O546  1  0.66324731  0.35148860  0.70212981  1
  O  O547  1  0.66241344  0.34994161  0.95195407  1
  O  O548  1  0.66159596  0.68502013  0.20221296  1
  O  O549  1  0.66400948  0.68488533  0.45330249  1
  O  O550  1  0.66230231  0.68609353  0.70161549  1
  O  O551  1  0.66418610  0.68484334  0.95193983  1
  O  O552  1  0.33601268  0.31533371  0.04722654  1
  O  O553  1  0.33478185  0.31600285  0.29770836  1
  O  O554  1  0.33553162  0.31396756  0.54768165  1
  O  O555  1  0.33690729  0.31556682  0.79781660  1
  O  O556  1  0.33461044  0.64855786  0.04863254  1
  O  O557  1  0.33501246  0.64782110  0.29810042  1
  O  O558  1  0.33500075  0.64848920  0.54768368  1
  O  O559  1  0.33700976  0.64850920  0.79714614  1
  O  O560  1  0.33718705  0.98166138  0.04760644  1
  O  O561  1  0.33563813  0.98143161  0.29810661  1
  O  O562  1  0.33621957  0.98251675  0.54636508  1
  O  O563  1  0.33832168  0.98172707  0.79751172  1
  O  O564  1  0.83816713  0.31440874  0.04813661  1
  O  O565  1  0.84026692  0.31382771  0.29796294  1
  O  O566  1  0.83775092  0.31561956  0.54678613  1
  O  O567  1  0.83871594  0.31546680  0.79780347  1
  O  O568  1  0.83822093  0.64932546  0.04705765  1
  O  O569  1  0.83580828  0.64872825  0.29776415  1
  O  O570  1  0.83931282  0.64812581  0.54805334  1
  O  O571  1  0.84036029  0.64731762  0.79735046  1
  O  O572  1  0.83944516  0.98166643  0.04633738  1
  O  O573  1  0.83640420  0.98199112  0.29741403  1
  O  O574  1  0.83894774  0.98157262  0.54649646  1
  O  O575  1  0.83706351  0.98215605  0.79756757  1
  O  O576  1  0.41296370  0.14879981  0.17296708  1
  O  O577  1  0.41099381  0.14710373  0.42338869  1
  O  O578  1  0.41114831  0.14880194  0.67237270  1
  O  O579  1  0.41154149  0.14857940  0.92160428  1
  O  O580  1  0.41158185  0.48151647  0.17342230  1
  O  O581  1  0.41334153  0.48188306  0.42247990  1
  O  O582  1  0.41390025  0.48149193  0.67296947  1
  O  O583  1  0.41283937  0.48070215  0.92236331  1
  O  O584  1  0.41371388  0.81479711  0.17301994  1
  O  O585  1  0.41246592  0.81641151  0.42225140  1
  O  O586  1  0.41257954  0.81439303  0.67341940  1
  O  O587  1  0.41203697  0.81637197  0.92169964  1
  O  O588  1  0.91286149  0.14964227  0.17257771  1
  O  O589  1  0.91319569  0.14904772  0.42254133  1
  O  O590  1  0.91172873  0.14867046  0.67238194  1
  O  O591  1  0.91048384  0.14856423  0.92189617  1
  O  O592  1  0.91307353  0.48086365  0.17299906  1
  O  O593  1  0.91126100  0.48040501  0.42327223  1
  O  O594  1  0.91297483  0.48261360  0.67215107  1
  O  O595  1  0.91157254  0.48148235  0.92127014  1
  O  O596  1  0.91451408  0.81506864  0.17325799  1
  O  O597  1  0.91400479  0.81507559  0.42315970  1
  O  O598  1  0.91423161  0.81411594  0.67226534  1
  O  O599  1  0.91267582  0.81512374  0.92328431  1
  O  O600  1  0.08683649  0.18398960  0.07718189  1
  O  O601  1  0.08742167  0.18420981  0.32749086  1
  O  O602  1  0.08942586  0.18574148  0.57745707  1
  O  O603  1  0.08693508  0.18480151  0.82667801  1
  O  O604  1  0.08891221  0.51845715  0.07693413  1
  O  O605  1  0.08904144  0.51902835  0.32735258  1
  O  O606  1  0.08658612  0.51750857  0.57730247  1
  O  O607  1  0.08634726  0.51963883  0.82714735  1
  O  O608  1  0.08799827  0.85221061  0.07824168  1
  O  O609  1  0.08953282  0.85212630  0.32827690  1
  O  O610  1  0.08857108  0.85097307  0.57766372  1
  O  O611  1  0.08505554  0.85089225  0.82785270  1
  O  O612  1  0.58829903  0.18462616  0.07623555  1
  O  O613  1  0.58860116  0.18515556  0.32793489  1
  O  O614  1  0.58891124  0.18581363  0.57651198  1
  O  O615  1  0.58675395  0.18531547  0.82695111  1
  O  O616  1  0.58855133  0.51927903  0.07785076  1
  O  O617  1  0.58833989  0.51758514  0.32713827  1
  O  O618  1  0.58813551  0.51825206  0.57821163  1
  O  O619  1  0.58763092  0.51712351  0.82752301  1
  O  O620  1  0.58868140  0.85085705  0.07801547  1
  O  O621  1  0.58676475  0.85221606  0.32724320  1
  O  O622  1  0.58813118  0.85048141  0.57877824  1
  O  O623  1  0.58696158  0.85223799  0.82649031  1
  O  O624  1  0.33564368  0.18528780  0.04796854  1
  O  O625  1  0.33559815  0.18589314  0.29757909  1
  O  O626  1  0.33543052  0.18382028  0.54691885  1
  O  O627  1  0.33710718  0.18542143  0.79799426  1
  O  O628  1  0.33510618  0.51845206  0.04777444  1
  O  O629  1  0.33497829  0.51752011  0.29764841  1
  O  O630  1  0.33499633  0.51837839  0.54752775  1
  O  O631  1  0.33726847  0.51798647  0.79669839  1
  O  O632  1  0.33715876  0.85145043  0.04769456  1
  O  O633  1  0.33533400  0.85141116  0.29842290  1
  O  O634  1  0.33603947  0.85243244  0.54738596  1
  O  O635  1  0.33799094  0.85149914  0.79790476  1
  O  O636  1  0.83805566  0.18439478  0.04734959  1
  O  O637  1  0.83965658  0.18379557  0.29702843  1
  O  O638  1  0.83815459  0.18545714  0.54662674  1
  O  O639  1  0.83928226  0.18542717  0.79711963  1
  O  O640  1  0.83909842  0.51902839  0.04697639  1
  O  O641  1  0.83543207  0.51869310  0.29811657  1
  O  O642  1  0.83935002  0.51792710  0.54761782  1
  O  O643  1  0.83926038  0.51708081  0.79683989  1
  O  O644  1  0.83884258  0.85127233  0.04724465  1
  O  O645  1  0.83647349  0.85192705  0.29763985  1
  O  O646  1  0.83795330  0.85118631  0.54753379  1
  O  O647  1  0.83727492  0.85211961  0.79826948  1
  O  O648  1  0.15979670  0.14858946  0.20273139  1
  O  O649  1  0.16230623  0.14844825  0.45198023  1
  O  O650  1  0.16417553  0.14891871  0.70311196  1
  O  O651  1  0.16089961  0.14949333  0.95310653  1
  O  O652  1  0.16286719  0.48112056  0.20286006  1
  O  O653  1  0.16114616  0.48178919  0.45362507  1
  O  O654  1  0.16275761  0.48046281  0.70164262  1
  O  O655  1  0.16177012  0.48188724  0.95221784  1
  O  O656  1  0.16034579  0.81550735  0.20275867  1
  O  O657  1  0.15993937  0.81508987  0.45341984  1
  O  O658  1  0.16203126  0.81532895  0.70268815  1
  O  O659  1  0.15989209  0.81389576  0.95154444  1
  O  O660  1  0.66489023  0.14735772  0.20210518  1
  O  O661  1  0.66534805  0.14962357  0.45226352  1
  O  O662  1  0.66431849  0.14753375  0.70220032  1
  O  O663  1  0.66516599  0.14980260  0.95199208  1
  O  O664  1  0.66264104  0.48282980  0.20334329  1
  O  O665  1  0.66223781  0.48062566  0.45250920  1
  O  O666  1  0.66375337  0.48148589  0.70187668  1
  O  O667  1  0.66122094  0.48004731  0.95126521  1
  O  O668  1  0.66162258  0.81529586  0.20236607  1
  O  O669  1  0.66431335  0.81496606  0.45316888  1
  O  O670  1  0.66255371  0.81620610  0.70269901  1
  O  O671  1  0.66372964  0.81495659  0.95229745  1
