# generated using pymatgen
data_Na2MnFe(PO4)2
_symmetry_space_group_name_H-M   'P 1'
_cell_length_a   21.08327713
_cell_length_b   18.93517588
_cell_length_c   20.04191352
_cell_angle_alpha   89.99972308
_cell_angle_beta   90.00125237
_cell_angle_gamma   90.00435931
_symmetry_Int_Tables_number   1
_chemical_formula_structural   Na2MnFe(PO4)2
_chemical_formula_sum   'Na96 Mn48 Fe48 P96 O384'
_cell_volume   8001.04371833
_cell_formula_units_Z   48
loop_
 _symmetry_equiv_pos_site_id
 _symmetry_equiv_pos_as_xyz
  1  'x, y, z'
loop_
 _atom_site_type_symbol
 _atom_site_label
 _atom_site_symmetry_multiplicity
 _atom_site_fract_x
 _atom_site_fract_y
 _atom_site_fract_z
 _atom_site_occupancy
  Na  Na0  1  -0.00131714  0.00019303  0.00050379  1
  Na  Na1  1  -0.00238841  -0.00054727  0.25053580  1
  Na  Na2  1  0.00042833  0.00024453  0.50016582  1
  Na  Na3  1  -0.00037715  -0.00012255  0.74878959  1
  Na  Na4  1  -0.00061413  0.33277838  -0.00050991  1
  Na  Na5  1  0.00141433  0.33431738  0.25010992  1
  Na  Na6  1  0.00028395  0.33285239  0.50048386  1
  Na  Na7  1  0.00081984  0.33305632  0.74927774  1
  Na  Na8  1  0.00138683  0.66762553  -0.00013394  1
  Na  Na9  1  -0.00145111  0.66605200  0.25033229  1
  Na  Na10  1  -0.00053658  0.66689646  0.49986400  1
  Na  Na11  1  0.00033744  0.66675734  0.75075534  1
  Na  Na12  1  0.50049775  0.00064572  -0.00080026  1
  Na  Na13  1  0.49867227  -0.00080487  0.25113929  1
  Na  Na14  1  0.49973012  -0.00054795  0.50061769  1
  Na  Na15  1  0.50094431  0.00025406  0.74991056  1
  Na  Na16  1  0.49881944  0.33275744  -0.00008500  1
  Na  Na17  1  0.50053952  0.33329900  0.24924245  1
  Na  Na18  1  0.49917467  0.33329647  0.50010170  1
  Na  Na19  1  0.49961125  0.33400250  0.75073550  1
  Na  Na20  1  0.50105939  0.66749636  0.00032415  1
  Na  Na21  1  0.50044770  0.66711201  0.24999349  1
  Na  Na22  1  0.50034506  0.66750828  0.49950188  1
  Na  Na23  1  0.49907187  0.66701715  0.74946989  1
  Na  Na24  1  0.25145457  -0.00005120  0.12484246  1
  Na  Na25  1  0.25215067  0.00030165  0.37433314  1
  Na  Na26  1  0.24897148  -0.00069191  0.62482644  1
  Na  Na27  1  0.24950971  -0.00007009  0.87519306  1
  Na  Na28  1  0.25076045  0.33382210  0.12606697  1
  Na  Na29  1  0.24885658  0.33321919  0.37301867  1
  Na  Na30  1  0.24962319  0.33338015  0.62501944  1
  Na  Na31  1  0.25039643  0.33354789  0.87648350  1
  Na  Na32  1  0.24912633  0.66726749  0.12448261  1
  Na  Na33  1  0.24996732  0.66787361  0.37521848  1
  Na  Na34  1  0.25020358  0.66758626  0.62550724  1
  Na  Na35  1  0.24879671  0.66690883  0.87571521  1
  Na  Na36  1  0.75053236  0.00019374  0.12382304  1
  Na  Na37  1  0.75169124  0.00081420  0.37474423  1
  Na  Na38  1  0.75028874  -0.00029308  0.62618793  1
  Na  Na39  1  0.75087772  0.00068947  0.87611075  1
  Na  Na40  1  0.74954628  0.33291221  0.12504611  1
  Na  Na41  1  0.74995571  0.33281555  0.37427121  1
  Na  Na42  1  0.75238417  0.33398991  0.62547778  1
  Na  Na43  1  0.75045944  0.33292760  0.87377684  1
  Na  Na44  1  0.75121993  0.66640850  0.12476724  1
  Na  Na45  1  0.74953951  0.66637347  0.37563692  1
  Na  Na46  1  0.75015963  0.66724861  0.62481931  1
  Na  Na47  1  0.75014618  0.66628367  0.87446748  1
  Na  Na48  1  -0.00092368  0.16596780  -0.00055558  1
  Na  Na49  1  -0.00295551  0.16731856  0.25085845  1
  Na  Na50  1  -0.00141417  0.16686068  0.50007631  1
  Na  Na51  1  0.00009676  0.16580747  0.74934020  1
  Na  Na52  1  -0.00158146  0.50069820  0.00012449  1
  Na  Na53  1  -0.00027922  0.49971636  0.24929696  1
  Na  Na54  1  -0.00136887  0.50072547  0.50066206  1
  Na  Na55  1  -0.00197835  0.50103318  0.75028027  1
  Na  Na56  1  0.00096829  0.83343024  0.00023977  1
  Na  Na57  1  0.00158224  0.83247649  0.25091894  1
  Na  Na58  1  0.00302534  0.83243899  0.49970777  1
  Na  Na59  1  0.00262898  0.83300576  0.74934610  1
  Na  Na60  1  0.50245331  0.16586621  -0.00064501  1
  Na  Na61  1  0.50083153  0.16691085  0.25010179  1
  Na  Na62  1  0.50033029  0.16624112  0.49929906  1
  Na  Na63  1  0.49907974  0.16731587  0.75092683  1
  Na  Na64  1  0.49776435  0.50113401  0.00042902  1
  Na  Na65  1  0.50155504  0.49923982  0.24908601  1
  Na  Na66  1  0.49840998  0.50030373  0.50052646  1
  Na  Na67  1  0.49725477  0.50039189  0.74976036  1
  Na  Na68  1  0.49921113  0.83338449  -0.00057650  1
  Na  Na69  1  0.49733772  0.83408790  0.25115508  1
  Na  Na70  1  0.50100280  0.83252974  0.50065412  1
  Na  Na71  1  0.50217816  0.83218522  0.74912274  1
  Na  Na72  1  0.25246795  0.16538225  0.12478609  1
  Na  Na73  1  0.24943948  0.16734957  0.37420270  1
  Na  Na74  1  0.24867525  0.16673095  0.62533312  1
  Na  Na75  1  0.24826259  0.16695481  0.87538580  1
  Na  Na76  1  0.24827980  0.50035527  0.12519611  1
  Na  Na77  1  0.24949582  0.49982479  0.37424105  1
  Na  Na78  1  0.25213508  0.49909814  0.62513357  1
  Na  Na79  1  0.25234806  0.49894953  0.87602775  1
  Na  Na80  1  0.25067519  0.83294985  0.12548323  1
  Na  Na81  1  0.25013560  0.83318933  0.37433396  1
  Na  Na82  1  0.24853422  0.83318822  0.62461256  1
  Na  Na83  1  0.24828394  0.83333555  0.87593439  1
  Na  Na84  1  0.75028758  0.16615881  0.12441388  1
  Na  Na85  1  0.74978878  0.16701260  0.37460226  1
  Na  Na86  1  0.75343279  0.16483408  0.62592808  1
  Na  Na87  1  0.74955135  0.16693007  0.87506526  1
  Na  Na88  1  0.75212084  0.50039719  0.12472817  1
  Na  Na89  1  0.75247999  0.50011211  0.37470606  1
  Na  Na90  1  0.75221115  0.50073402  0.62509527  1
  Na  Na91  1  0.75325625  0.49973923  0.87457176  1
  Na  Na92  1  0.75063873  0.83236519  0.12427707  1
  Na  Na93  1  0.74815341  0.83332109  0.37546005  1
  Na  Na94  1  0.74652117  0.83419875  0.62566504  1
  Na  Na95  1  0.74854357  0.83345337  0.87473776  1
  Mn  Mn96  1  0.39244468  0.24998771  0.37728908  1
  Mn  Mn97  1  0.89201457  0.91572515  0.37781184  1
  Mn  Mn98  1  0.85829279  0.41657521  0.25241076  1
  Mn  Mn99  1  0.89243706  0.91600583  0.62717151  1
  Mn  Mn100  1  0.10746763  0.08339051  0.37233979  1
  Mn  Mn101  1  0.14203395  0.24896100  0.24699170  1
  Mn  Mn102  1  0.10767872  0.41627822  0.87271186  1
  Mn  Mn103  1  0.39236019  0.91628554  0.87621105  1
  Mn  Mn104  1  0.64194455  0.91683536  0.99751332  1
  Mn  Mn105  1  0.35727114  0.08381812  0.50264900  1
  Mn  Mn106  1  0.35744710  0.41703180  0.25220331  1
  Mn  Mn107  1  0.60806934  0.08353968  0.62299620  1
  Mn  Mn108  1  0.85838067  0.74994596  0.00179647  1
  Mn  Mn109  1  0.39148046  0.58358795  0.62717597  1
  Mn  Mn110  1  0.64286816  0.58236642  0.99724176  1
  Mn  Mn111  1  0.85789712  0.75130247  0.75193725  1
  Mn  Mn112  1  0.39206695  0.91683410  0.62748688  1
  Mn  Mn113  1  0.64285906  0.58303396  0.49762986  1
  Mn  Mn114  1  0.14197421  0.58302978  0.49754954  1
  Mn  Mn115  1  0.39202963  0.25010331  0.87758124  1
  Mn  Mn116  1  0.60819225  0.08289505  0.37271696  1
  Mn  Mn117  1  0.14269537  0.58291025  0.74804198  1
  Mn  Mn118  1  0.60761361  0.41701364  0.62234609  1
  Mn  Mn119  1  0.60869352  0.41742555  0.37342494  1
  Mn  Mn120  1  0.14123308  0.58374405  0.24773659  1
  Mn  Mn121  1  0.10715456  0.08351804  0.12331516  1
  Mn  Mn122  1  0.85856547  0.41637246  0.75235014  1
  Mn  Mn123  1  0.60828997  0.41645923  0.12185810  1
  Mn  Mn124  1  0.64324026  0.24998934  0.49870771  1
  Mn  Mn125  1  0.64252837  0.24992868  0.74707521  1
  Mn  Mn126  1  0.85752524  0.75075849  0.50255972  1
  Mn  Mn127  1  0.35843472  0.08380838  0.00215104  1
  Mn  Mn128  1  0.60746148  0.41762030  0.87324392  1
  Mn  Mn129  1  0.10816045  0.41728059  0.62270333  1
  Mn  Mn130  1  0.39231982  0.58353587  0.37697082  1
  Mn  Mn131  1  0.39080584  0.24952520  0.62709970  1
  Mn  Mn132  1  0.89266017  0.24951048  0.87743681  1
  Mn  Mn133  1  0.64189484  0.91650180  0.24734069  1
  Mn  Mn134  1  0.89189261  0.91612276  0.12781693  1
  Mn  Mn135  1  0.39177319  0.58378507  0.12771600  1
  Mn  Mn136  1  0.35723814  0.74963320  0.00213867  1
  Mn  Mn137  1  0.10765492  0.08290611  0.62266582  1
  Mn  Mn138  1  0.14199145  0.24992811  0.99876604  1
  Mn  Mn139  1  0.14325809  0.91733462  0.24805415  1
  Mn  Mn140  1  0.64211619  0.58335522  0.74804848  1
  Mn  Mn141  1  0.89182688  0.25084490  0.37758211  1
  Mn  Mn142  1  0.14170426  0.91681868  0.99795871  1
  Mn  Mn143  1  0.60776747  0.75090133  0.12342464  1
  Fe  Fe144  1  0.14230504  0.91717415  0.74875148  1
  Fe  Fe145  1  0.85778377  0.75053109  0.25204380  1
  Fe  Fe146  1  0.35723566  0.41623798  0.75219731  1
  Fe  Fe147  1  0.64281034  0.25029676  0.24777360  1
  Fe  Fe148  1  0.35673008  0.74975966  0.50160111  1
  Fe  Fe149  1  0.64390140  0.58315969  0.24839057  1
  Fe  Fe150  1  0.60743623  0.08306272  0.12381879  1
  Fe  Fe151  1  0.85863936  0.41615072  0.50193579  1
  Fe  Fe152  1  0.10682395  0.08246889  0.87326445  1
  Fe  Fe153  1  0.35682965  0.41666860  0.00240793  1
  Fe  Fe154  1  0.85636161  0.08279753  0.25130518  1
  Fe  Fe155  1  0.39295698  0.91604703  0.37760788  1
  Fe  Fe156  1  0.60802012  0.08287161  0.87274531  1
  Fe  Fe157  1  0.89345225  0.58356186  0.12658192  1
  Fe  Fe158  1  0.10714758  0.75068238  0.87302603  1
  Fe  Fe159  1  0.35679988  0.75040084  0.75202301  1
  Fe  Fe160  1  0.89184105  0.25060596  0.12640292  1
  Fe  Fe161  1  0.10718862  0.74970560  0.12404240  1
  Fe  Fe162  1  0.89306751  0.58388070  0.62669807  1
  Fe  Fe163  1  0.39195164  0.58399551  0.87687714  1
  Fe  Fe164  1  0.10647387  0.41681200  0.12293426  1
  Fe  Fe165  1  0.14285235  0.24966211  0.74870748  1
  Fe  Fe166  1  0.14199541  0.24986343  0.49822657  1
  Fe  Fe167  1  0.89276445  0.58358181  0.37649605  1
  Fe  Fe168  1  0.14316166  0.91705737  0.49761957  1
  Fe  Fe169  1  0.85797017  0.41574691  0.00168346  1
  Fe  Fe170  1  0.64296090  0.91689099  0.74881489  1
  Fe  Fe171  1  0.39380160  0.24915602  0.12654977  1
  Fe  Fe172  1  0.10737469  0.74923599  0.37302487  1
  Fe  Fe173  1  0.35878235  0.08307980  0.25148388  1
  Fe  Fe174  1  0.60666550  0.74952215  0.62309229  1
  Fe  Fe175  1  0.60687954  0.74971231  0.37294870  1
  Fe  Fe176  1  0.89302569  0.91604062  0.87593179  1
  Fe  Fe177  1  0.10710224  0.41725767  0.37410360  1
  Fe  Fe178  1  0.64251724  0.91725249  0.49843017  1
  Fe  Fe179  1  0.35649919  0.08308270  0.75182137  1
  Fe  Fe180  1  0.14206839  0.58279792  0.99842835  1
  Fe  Fe181  1  0.85736688  0.08319354  0.50169108  1
  Fe  Fe182  1  0.85691673  0.08412032  0.00168844  1
  Fe  Fe183  1  0.10803871  0.74949643  0.62331488  1
  Fe  Fe184  1  0.89339386  0.25019347  0.62656610  1
  Fe  Fe185  1  0.39251909  0.91737762  0.12649580  1
  Fe  Fe186  1  0.64320223  0.25054693  0.99858894  1
  Fe  Fe187  1  0.35716390  0.75006842  0.25214601  1
  Fe  Fe188  1  0.85759889  0.08249852  0.75252774  1
  Fe  Fe189  1  0.89328717  0.58430638  0.87699903  1
  Fe  Fe190  1  0.60714796  0.74979922  0.87302847  1
  Fe  Fe191  1  0.35676592  0.41670343  0.50078168  1
  P  P192  1  0.05128189  0.25017722  0.11006603  1
  P  P193  1  0.05422948  0.25073440  0.36096306  1
  P  P194  1  0.05435623  0.24965968  0.61064713  1
  P  P195  1  0.05405740  0.24865302  0.85939244  1
  P  P196  1  0.05280903  0.58349016  0.10965620  1
  P  P197  1  0.05210889  0.58315683  0.36029620  1
  P  P198  1  0.05258047  0.58413050  0.61038327  1
  P  P199  1  0.05355535  0.58374444  0.86137895  1
  P  P200  1  0.05319005  0.91633912  0.11071111  1
  P  P201  1  0.05477064  0.91615713  0.36112352  1
  P  P202  1  0.05560215  0.91594978  0.61029764  1
  P  P203  1  0.05281417  0.91719462  0.85952043  1
  P  P204  1  0.55468129  0.24906038  0.11033487  1
  P  P205  1  0.55473155  0.25033270  0.35935782  1
  P  P206  1  0.55253629  0.24993140  0.60974674  1
  P  P207  1  0.55510875  0.24999939  0.86122497  1
  P  P208  1  0.55466310  0.58365878  0.11092770  1
  P  P209  1  0.55429586  0.58405660  0.35924727  1
  P  P210  1  0.55301892  0.58404819  0.60984789  1
  P  P211  1  0.55162828  0.58374165  0.85996142  1
  P  P212  1  0.55183824  0.91744132  0.11012152  1
  P  P213  1  0.55365115  0.91563009  0.36153239  1
  P  P214  1  0.55525622  0.91611359  0.61080209  1
  P  P215  1  0.55424272  0.91643166  0.85924674  1
  P  P216  1  0.44782329  0.08361491  0.14022060  1
  P  P217  1  0.44579354  0.08244906  0.38928524  1
  P  P218  1  0.44577849  0.08331937  0.64120228  1
  P  P219  1  0.44681471  0.08304981  0.88853504  1
  P  P220  1  0.44548835  0.41581270  0.13870153  1
  P  P221  1  0.44648818  0.41683187  0.39050350  1
  P  P222  1  0.44416527  0.41627992  0.63963853  1
  P  P223  1  0.44420326  0.41764785  0.88996949  1
  P  P224  1  0.44577460  0.75097126  0.14069490  1
  P  P225  1  0.44568366  0.75045643  0.38973929  1
  P  P226  1  0.44537489  0.75030330  0.63936473  1
  P  P227  1  0.44622323  0.74957306  0.88856968  1
  P  P228  1  0.94413660  0.08439817  0.13966504  1
  P  P229  1  0.94436450  0.08318763  0.38969292  1
  P  P230  1  0.94453303  0.08364205  0.63923121  1
  P  P231  1  0.94587524  0.08172192  0.88909865  1
  P  P232  1  0.94625070  0.41648187  0.13840410  1
  P  P233  1  0.94729742  0.41747889  0.39057356  1
  P  P234  1  0.94592675  0.41665239  0.63878713  1
  P  P235  1  0.94628183  0.41704312  0.89052704  1
  P  P236  1  0.94736434  0.74934415  0.14059658  1
  P  P237  1  0.94668531  0.74941347  0.38918381  1
  P  P238  1  0.94830508  0.74979762  0.63990832  1
  P  P239  1  0.94805023  0.75098903  0.88948522  1
  P  P240  1  0.19867715  0.08291273  0.23462175  1
  P  P241  1  0.19634969  0.08325968  0.48476666  1
  P  P242  1  0.19597976  0.08308524  0.73644592  1
  P  P243  1  0.19596917  0.08327810  0.98456973  1
  P  P244  1  0.19396952  0.41676772  0.23521537  1
  P  P245  1  0.19706270  0.41612360  0.48423110  1
  P  P246  1  0.19788498  0.41602761  0.73562640  1
  P  P247  1  0.19588626  0.41714286  0.98670559  1
  P  P248  1  0.19600037  0.75027045  0.23555354  1
  P  P249  1  0.19565692  0.75057494  0.48546357  1
  P  P250  1  0.19565596  0.75074636  0.73600912  1
  P  P251  1  0.19393953  0.74919031  0.98596834  1
  P  P252  1  0.69692798  0.08358603  0.23420287  1
  P  P253  1  0.69806132  0.08276781  0.48536024  1
  P  P254  1  0.69686972  0.08238347  0.73654709  1
  P  P255  1  0.69563784  0.08430895  0.98584392  1
  P  P256  1  0.69698843  0.41736716  0.23491882  1
  P  P257  1  0.69937911  0.41667322  0.48513423  1
  P  P258  1  0.69695888  0.41727858  0.73475974  1
  P  P259  1  0.69873831  0.41600813  0.98456959  1
  P  P260  1  0.69717621  0.74896341  0.23616222  1
  P  P261  1  0.69449183  0.75068130  0.48572673  1
  P  P262  1  0.69455539  0.75048871  0.73566152  1
  P  P263  1  0.69613379  0.74959404  0.98419722  1
  P  P264  1  0.30409440  0.25066251  0.01617124  1
  P  P265  1  0.30513712  0.24904465  0.26344045  1
  P  P266  1  0.30135476  0.25096826  0.51447163  1
  P  P267  1  0.30197937  0.24950319  0.76532504  1
  P  P268  1  0.30288911  0.58294460  0.01425690  1
  P  P269  1  0.30265046  0.58442043  0.26504546  1
  P  P270  1  0.30297424  0.58369286  0.51456106  1
  P  P271  1  0.30386575  0.58383315  0.76585706  1
  P  P272  1  0.30395003  0.91652075  0.01545945  1
  P  P273  1  0.30626477  0.91664315  0.26427487  1
  P  P274  1  0.30340813  0.91560364  0.51380319  1
  P  P275  1  0.30170963  0.91640800  0.76483961  1
  P  P276  1  0.80310933  0.25000661  0.01496707  1
  P  P277  1  0.80334634  0.24922964  0.26356639  1
  P  P278  1  0.80460907  0.24989339  0.51549699  1
  P  P279  1  0.80520524  0.24883873  0.76394537  1
  P  P280  1  0.80601033  0.58275059  0.01428688  1
  P  P281  1  0.80516596  0.58445263  0.26434125  1
  P  P282  1  0.80586429  0.58305919  0.51441696  1
  P  P283  1  0.80577181  0.58432999  0.76451098  1
  P  P284  1  0.80464150  0.91708935  0.01338432  1
  P  P285  1  0.80315421  0.91626147  0.26490704  1
  P  P286  1  0.80184871  0.91687060  0.51542096  1
  P  P287  1  0.80292095  0.91695895  0.76582530  1
  O  O288  1  0.05514727  0.24941660  0.18677039  1
  O  O289  1  0.05848464  0.24962090  0.43790833  1
  O  O290  1  0.05948623  0.24960161  0.68732721  1
  O  O291  1  0.05678747  0.24949057  0.93618237  1
  O  O292  1  0.05580215  0.58331777  0.18643509  1
  O  O293  1  0.05559956  0.58343532  0.43697254  1
  O  O294  1  0.05644732  0.58336250  0.68709234  1
  O  O295  1  0.05807009  0.58279219  0.93802140  1
  O  O296  1  0.05662747  0.91711852  0.18746069  1
  O  O297  1  0.05905675  0.91710414  0.43789243  1
  O  O298  1  0.05958607  0.91706647  0.68710614  1
  O  O299  1  0.05585772  0.91756409  0.93625849  1
  O  O300  1  0.55951700  0.25018786  0.18707077  1
  O  O301  1  0.55796538  0.25010635  0.43615492  1
  O  O302  1  0.55601955  0.25008054  0.68656536  1
  O  O303  1  0.55940681  0.25061163  0.93797852  1
  O  O304  1  0.55963065  0.58323547  0.18760152  1
  O  O305  1  0.55710605  0.58308151  0.43605809  1
  O  O306  1  0.55604826  0.58322527  0.68659983  1
  O  O307  1  0.55584225  0.58299114  0.93668479  1
  O  O308  1  0.55543035  0.91657905  0.18685855  1
  O  O309  1  0.55851784  0.91675519  0.43819440  1
  O  O310  1  0.55942335  0.91712374  0.68751627  1
  O  O311  1  0.55650126  0.91670937  0.93613594  1
  O  O312  1  0.44471500  0.08383915  0.06344410  1
  O  O313  1  0.44210384  0.08330606  0.31252594  1
  O  O314  1  0.44238911  0.08324182  0.56435934  1
  O  O315  1  0.44080194  0.08324989  0.81197307  1
  O  O316  1  0.44101633  0.41684048  0.06194756  1
  O  O317  1  0.44331271  0.41675731  0.31370054  1
  O  O318  1  0.43950408  0.41608057  0.56286171  1
  O  O319  1  0.44008611  0.41643608  0.81311057  1
  O  O320  1  0.44294592  0.74979324  0.06385180  1
  O  O321  1  0.44096584  0.74972514  0.31306996  1
  O  O322  1  0.44043133  0.75034429  0.56268061  1
  O  O323  1  0.44118380  0.75031967  0.81189638  1
  O  O324  1  0.94028136  0.08379448  0.06281097  1
  O  O325  1  0.93974797  0.08298446  0.31287089  1
  O  O326  1  0.94051052  0.08261943  0.56241766  1
  O  O327  1  0.94151665  0.08251572  0.81233883  1
  O  O328  1  0.94178589  0.41580520  0.06177863  1
  O  O329  1  0.94384339  0.41653907  0.31367799  1
  O  O330  1  0.94249057  0.41624956  0.56202791  1
  O  O331  1  0.94368109  0.41610373  0.81367701  1
  O  O332  1  0.94385600  0.75047583  0.06392125  1
  O  O333  1  0.94180315  0.75049102  0.31253544  1
  O  O334  1  0.94427382  0.75084753  0.56324238  1
  O  O335  1  0.94444770  0.75094718  0.81284476  1
  O  O336  1  0.19273586  0.08298639  0.06131125  1
  O  O337  1  0.19403197  0.08311695  0.31129510  1
  O  O338  1  0.19349269  0.08318051  0.56148228  1
  O  O339  1  0.19143233  0.08277235  0.81314625  1
  O  O340  1  0.19057764  0.41666162  0.06336598  1
  O  O341  1  0.18960497  0.41714297  0.31200458  1
  O  O342  1  0.19371101  0.41696290  0.56100191  1
  O  O343  1  0.19406453  0.41677049  0.81234217  1
  O  O344  1  0.18996657  0.75001511  0.06276796  1
  O  O345  1  0.19091135  0.74975709  0.31227130  1
  O  O346  1  0.19132179  0.74946494  0.56222696  1
  O  O347  1  0.19066389  0.75015404  0.81275289  1
  O  O348  1  0.69091114  0.08302093  0.06254366  1
  O  O349  1  0.69360554  0.08303268  0.31090081  1
  O  O350  1  0.69455052  0.08298503  0.56210110  1
  O  O351  1  0.69207655  0.08321196  0.81320126  1
  O  O352  1  0.69479970  0.41706918  0.06131570  1
  O  O353  1  0.69431571  0.41734353  0.31163681  1
  O  O354  1  0.69514453  0.41716779  0.56181950  1
  O  O355  1  0.69335499  0.41742181  0.81149825  1
  O  O356  1  0.69310747  0.74971673  0.06103623  1
  O  O357  1  0.69203457  0.74972699  0.31277756  1
  O  O358  1  0.69049205  0.74968991  0.56253217  1
  O  O359  1  0.69055656  0.74909435  0.81244104  1
  O  O360  1  0.30972410  0.24928847  0.18677629  1
  O  O361  1  0.30532219  0.25037517  0.43778445  1
  O  O362  1  0.30498803  0.24941573  0.68866336  1
  O  O363  1  0.30666751  0.24975515  0.93924273  1
  O  O364  1  0.30553074  0.58395498  0.18825649  1
  O  O365  1  0.30569262  0.58396793  0.43780590  1
  O  O366  1  0.30635156  0.58418911  0.68907508  1
  O  O367  1  0.30774850  0.58392136  0.93760505  1
  O  O368  1  0.30974029  0.91680099  0.18744304  1
  O  O369  1  0.30827444  0.91591190  0.43711250  1
  O  O370  1  0.30529006  0.91620004  0.68816413  1
  O  O371  1  0.30713302  0.91639259  0.93867215  1
  O  O372  1  0.80795765  0.25038286  0.18668289  1
  O  O373  1  0.80636468  0.25024046  0.43889634  1
  O  O374  1  0.80959479  0.24963473  0.68722358  1
  O  O375  1  0.80664198  0.24995808  0.93831783  1
  O  O376  1  0.80990277  0.58389829  0.18759976  1
  O  O377  1  0.80979972  0.58386357  0.43757843  1
  O  O378  1  0.81008068  0.58476940  0.68768969  1
  O  O379  1  0.81028649  0.58407464  0.93746571  1
  O  O380  1  0.80591923  0.91566074  0.18807010  1
  O  O381  1  0.80579441  0.91579104  0.43874944  1
  O  O382  1  0.80665135  0.91585527  0.68909160  1
  O  O383  1  0.80880769  0.91608402  0.93673540  1
  O  O384  1  0.23442977  0.24985704  0.04139227  1
  O  O385  1  0.23496021  0.24983665  0.28725156  1
  O  O386  1  0.23132530  0.25034981  0.53921878  1
  O  O387  1  0.23208187  0.24993427  0.79061465  1
  O  O388  1  0.23260658  0.58335687  0.03816577  1
  O  O389  1  0.23303126  0.58406099  0.29033551  1
  O  O390  1  0.23349241  0.58341100  0.54048743  1
  O  O391  1  0.23417736  0.58324857  0.79129557  1
  O  O392  1  0.23416694  0.91640879  0.04027329  1
  O  O393  1  0.23624258  0.91659336  0.28872421  1
  O  O394  1  0.23310017  0.91617284  0.53754407  1
  O  O395  1  0.23173080  0.91659261  0.78980039  1
  O  O396  1  0.73302687  0.24963744  0.03959858  1
  O  O397  1  0.73303020  0.24978516  0.28728550  1
  O  O398  1  0.73519110  0.24956983  0.54196880  1
  O  O399  1  0.73522327  0.24941201  0.78809990  1
  O  O400  1  0.73589309  0.58345842  0.03822110  1
  O  O401  1  0.73488898  0.58341884  0.28817860  1
  O  O402  1  0.73578933  0.58395229  0.53856289  1
  O  O403  1  0.73564075  0.58342314  0.78835237  1
  O  O404  1  0.73461737  0.91670109  0.03788406  1
  O  O405  1  0.73358882  0.91688631  0.29035967  1
  O  O406  1  0.73187304  0.91676954  0.54005451  1
  O  O407  1  0.73286193  0.91695552  0.79024688  1
  O  O408  1  0.26884931  0.08260685  0.21074077  1
  O  O409  1  0.26597976  0.08360759  0.45935424  1
  O  O410  1  0.26616801  0.08300254  0.71206232  1
  O  O411  1  0.26584878  0.08351856  0.95990855  1
  O  O412  1  0.26419949  0.41688332  0.21173569  1
  O  O413  1  0.26700830  0.41663323  0.45926755  1
  O  O414  1  0.26796512  0.41626995  0.71120122  1
  O  O415  1  0.26629571  0.41645486  0.96329261  1
  O  O416  1  0.26642672  0.75051267  0.21229589  1
  O  O417  1  0.26600531  0.75035824  0.46164085  1
  O  O418  1  0.26613563  0.75022028  0.71259362  1
  O  O419  1  0.26406564  0.75013091  0.96195225  1
  O  O420  1  0.76696971  0.08288569  0.20955619  1
  O  O421  1  0.76800673  0.08360708  0.46050862  1
  O  O422  1  0.76722618  0.08207947  0.71292960  1
  O  O423  1  0.76617238  0.08422251  0.96243221  1
  O  O424  1  0.76671738  0.41694858  0.20960303  1
  O  O425  1  0.76939144  0.41631263  0.46054741  1
  O  O426  1  0.76687964  0.41739885  0.71039558  1
  O  O427  1  0.76875800  0.41600966  0.96002332  1
  O  O428  1  0.76746437  0.74946732  0.21217162  1
  O  O429  1  0.76464992  0.74993749  0.46176944  1
  O  O430  1  0.76463418  0.75060162  0.71140159  1
  O  O431  1  0.76595539  0.74967860  0.95944196  1
  O  O432  1  0.01405755  0.08332312  0.16432432  1
  O  O433  1  0.01459051  0.08325806  0.41333528  1
  O  O434  1  0.01472607  0.08286653  0.66297331  1
  O  O435  1  0.01620870  0.08271193  0.91295627  1
  O  O436  1  0.01648901  0.41695915  0.16257698  1
  O  O437  1  0.01732294  0.41708905  0.41532264  1
  O  O438  1  0.01573066  0.41703634  0.66390408  1
  O  O439  1  0.01598910  0.41660570  0.91563651  1
  O  O440  1  0.01751319  0.74926017  0.16511263  1
  O  O441  1  0.01704607  0.74954764  0.41285206  1
  O  O442  1  0.01834496  0.74986078  0.66442843  1
  O  O443  1  0.01807796  0.75093602  0.91425774  1
  O  O444  1  0.51777088  0.08334140  0.16539257  1
  O  O445  1  0.51570147  0.08255338  0.41390845  1
  O  O446  1  0.51562441  0.08351472  0.66570209  1
  O  O447  1  0.51736080  0.08277381  0.91143297  1
  O  O448  1  0.51562840  0.41601746  0.16253395  1
  O  O449  1  0.51623932  0.41709590  0.41548191  1
  O  O450  1  0.51429777  0.41697844  0.66349990  1
  O  O451  1  0.51425242  0.41702281  0.91417465  1
  O  O452  1  0.51549732  0.75055621  0.16586902  1
  O  O453  1  0.51608037  0.75002018  0.41327686  1
  O  O454  1  0.51589814  0.75001847  0.66249570  1
  O  O455  1  0.51655275  0.75028277  0.91235966  1
  O  O456  1  0.48430526  0.24942268  0.08671691  1
  O  O457  1  0.48490268  0.25034536  0.33462931  1
  O  O458  1  0.48288815  0.24947066  0.58470587  1
  O  O459  1  0.48490466  0.25044162  0.83722968  1
  O  O460  1  0.48444278  0.58411049  0.08737310  1
  O  O461  1  0.48460165  0.58326512  0.33403236  1
  O  O462  1  0.48334728  0.58415745  0.58470415  1
  O  O463  1  0.48159541  0.58359528  0.83544782  1
  O  O464  1  0.48195694  0.91730612  0.08507948  1
  O  O465  1  0.48330051  0.91578406  0.33797743  1
  O  O466  1  0.48511097  0.91644657  0.58681887  1
  O  O467  1  0.48465767  0.91623940  0.83361003  1
  O  O468  1  0.98133388  0.25001700  0.08519986  1
  O  O469  1  0.98430639  0.25071698  0.33691000  1
  O  O470  1  0.98390311  0.24965747  0.58737129  1
  O  O471  1  0.98433199  0.24935287  0.83433160  1
  O  O472  1  0.98272914  0.58386695  0.08497508  1
  O  O473  1  0.98223136  0.58303508  0.33516854  1
  O  O474  1  0.98258721  0.58391773  0.58578428  1
  O  O475  1  0.98323073  0.58391394  0.83745738  1
  O  O476  1  0.98344330  0.91655101  0.08573136  1
  O  O477  1  0.98473082  0.91605958  0.33706442  1
  O  O478  1  0.98548573  0.91650336  0.58617839  1
  O  O479  1  0.98295317  0.91659327  0.83422720  1
  O  O480  1  0.08523883  0.31525841  0.07756842  1
  O  O481  1  0.08778790  0.31605597  0.32870941  1
  O  O482  1  0.08766564  0.31469954  0.57723301  1
  O  O483  1  0.08868682  0.31344612  0.82672674  1
  O  O484  1  0.08709509  0.64847078  0.07741433  1
  O  O485  1  0.08600235  0.64823294  0.32751486  1
  O  O486  1  0.08634304  0.64920334  0.57780711  1
  O  O487  1  0.08700071  0.64889683  0.82854472  1
  O  O488  1  0.08709895  0.98126096  0.07776248  1
  O  O489  1  0.08806585  0.98114075  0.32748353  1
  O  O490  1  0.08952932  0.98071230  0.57688965  1
  O  O491  1  0.08665231  0.98228967  0.82660856  1
  O  O492  1  0.58834906  0.31375843  0.07638896  1
  O  O493  1  0.58890898  0.31536194  0.32684382  1
  O  O494  1  0.58652508  0.31503720  0.57726312  1
  O  O495  1  0.58855095  0.31501517  0.82793567  1
  O  O496  1  0.58820551  0.64869465  0.07792484  1
  O  O497  1  0.58809106  0.64961115  0.32726081  1
  O  O498  1  0.58717459  0.64923303  0.57782250  1
  O  O499  1  0.58548197  0.64885387  0.82744086  1
  O  O500  1  0.58588898  0.98258214  0.07786093  1
  O  O501  1  0.58691630  0.98046874  0.32768193  1
  O  O502  1  0.58899250  0.98096239  0.57718713  1
  O  O503  1  0.58869688  0.98146489  0.82703482  1
  O  O504  1  0.41350051  0.01864656  0.17262451  1
  O  O505  1  0.41207212  0.01726314  0.42189426  1
  O  O506  1  0.41172052  0.01821004  0.67374124  1
  O  O507  1  0.41364063  0.01804723  0.92201154  1
  O  O508  1  0.41227818  0.35045636  0.17138769  1
  O  O509  1  0.41230910  0.35183501  0.42311376  1
  O  O510  1  0.41096264  0.35117061  0.67318670  1
  O  O511  1  0.41012894  0.35285160  0.92324770  1
  O  O512  1  0.41116614  0.68631849  0.17362950  1
  O  O513  1  0.41206055  0.68557021  0.42326193  1
  O  O514  1  0.41181562  0.68550686  0.67281938  1
  O  O515  1  0.41323287  0.68434516  0.92201878  1
  O  O516  1  0.90970515  0.01966750  0.17270032  1
  O  O517  1  0.91088653  0.01819240  0.42314541  1
  O  O518  1  0.91065669  0.01885350  0.67272292  1
  O  O519  1  0.91272969  0.01643749  0.92196087  1
  O  O520  1  0.91304509  0.35153376  0.17218409  1
  O  O521  1  0.91314949  0.35271580  0.42341500  1
  O  O522  1  0.91248382  0.35136722  0.67169053  1
  O  O523  1  0.91186221  0.35212467  0.92314095  1
  O  O524  1  0.91336324  0.68418018  0.17280898  1
  O  O525  1  0.91342483  0.68418179  0.42194969  1
  O  O526  1  0.91435136  0.68482849  0.67236175  1
  O  O527  1  0.91428628  0.68598770  0.92238900  1
  O  O528  1  0.16489332  0.01795317  0.20182131  1
  O  O529  1  0.16261076  0.01793757  0.45231143  1
  O  O530  1  0.16249126  0.01814536  0.70304832  1
  O  O531  1  0.16191681  0.01828979  0.95173788  1
  O  O532  1  0.16043174  0.35177634  0.20196459  1
  O  O533  1  0.16292157  0.35110956  0.45188124  1
  O  O534  1  0.16399478  0.35101498  0.70311747  1
  O  O535  1  0.16253505  0.35211902  0.95327918  1
  O  O536  1  0.16258952  0.68535562  0.20197669  1
  O  O537  1  0.16208284  0.68565366  0.45185436  1
  O  O538  1  0.16225724  0.68573497  0.70236159  1
  O  O539  1  0.16083664  0.68383742  0.95309776  1
  O  O540  1  0.66266417  0.01871378  0.20128723  1
  O  O541  1  0.66451961  0.01754874  0.45255517  1
  O  O542  1  0.66339550  0.01727322  0.70361556  1
  O  O543  1  0.66232552  0.01938928  0.95202239  1
  O  O544  1  0.66269590  0.35231189  0.20255557  1
  O  O545  1  0.66532662  0.35165026  0.45269978  1
  O  O546  1  0.66327482  0.35210088  0.70211522  1
  O  O547  1  0.66472322  0.35087254  0.95250250  1
  O  O548  1  0.66410792  0.68372131  0.20299839  1
  O  O549  1  0.66052687  0.68605566  0.45214916  1
  O  O550  1  0.66088315  0.68573341  0.70192635  1
  O  O551  1  0.66193530  0.68467810  0.95156344  1
  O  O552  1  0.33813411  0.31583582  0.04812964  1
  O  O553  1  0.33858548  0.31412198  0.29673768  1
  O  O554  1  0.33493925  0.31615852  0.54700557  1
  O  O555  1  0.33625910  0.31448970  0.79775963  1
  O  O556  1  0.33639309  0.64792534  0.04767674  1
  O  O557  1  0.33676542  0.64954071  0.29725033  1
  O  O558  1  0.33696218  0.64894452  0.54696017  1
  O  O559  1  0.33774083  0.64911923  0.79839969  1
  O  O560  1  0.33814685  0.98165871  0.04778640  1
  O  O561  1  0.34012315  0.98163533  0.29717988  1
  O  O562  1  0.33686748  0.98059325  0.54719884  1
  O  O563  1  0.33575317  0.98145299  0.79741059  1
  O  O564  1  0.83689496  0.31507982  0.04795623  1
  O  O565  1  0.83694854  0.31402361  0.29709066  1
  O  O566  1  0.83925034  0.31497063  0.54767850  1
  O  O567  1  0.83894612  0.31372180  0.79721714  1
  O  O568  1  0.83999085  0.64743049  0.04785494  1
  O  O569  1  0.83821118  0.64959855  0.29778095  1
  O  O570  1  0.83986513  0.64784606  0.54781402  1
  O  O571  1  0.83887994  0.64954624  0.79788293  1
  O  O572  1  0.83791938  0.98255178  0.04590671  1
  O  O573  1  0.83766739  0.98142092  0.29661078  1
  O  O574  1  0.83583155  0.98197754  0.54763843  1
  O  O575  1  0.83722149  0.98183596  0.79822498  1
  O  O576  1  0.41388236  0.14868400  0.17295166  1
  O  O577  1  0.41221250  0.14756199  0.42238282  1
  O  O578  1  0.41132818  0.14814857  0.67370408  1
  O  O579  1  0.41412863  0.14816566  0.92251198  1
  O  O580  1  0.41196324  0.48073650  0.17222478  1
  O  O581  1  0.41201219  0.48173530  0.42287917  1
  O  O582  1  0.41014200  0.48115942  0.67262420  1
  O  O583  1  0.41071764  0.48302904  0.92247647  1
  O  O584  1  0.41190589  0.81636851  0.17252389  1
  O  O585  1  0.41240829  0.81553877  0.42316431  1
  O  O586  1  0.41236399  0.81534669  0.67310399  1
  O  O587  1  0.41257553  0.81443977  0.92194790  1
  O  O588  1  0.91085363  0.14980740  0.17232262  1
  O  O589  1  0.91091401  0.14819799  0.42266084  1
  O  O590  1  0.91151755  0.14900146  0.67211722  1
  O  O591  1  0.91190240  0.14643622  0.92266706  1
  O  O592  1  0.91290932  0.48182592  0.17122514  1
  O  O593  1  0.91335315  0.48269131  0.42258969  1
  O  O594  1  0.91198978  0.48185078  0.67112906  1
  O  O595  1  0.91213705  0.48220366  0.92239439  1
  O  O596  1  0.91348194  0.81415075  0.17402127  1
  O  O597  1  0.91344513  0.81421118  0.42322443  1
  O  O598  1  0.91463689  0.81488085  0.67301322  1
  O  O599  1  0.91434697  0.81609896  0.92222352  1
  O  O600  1  0.08518915  0.18515702  0.07732173  1
  O  O601  1  0.08766619  0.18576336  0.32733603  1
  O  O602  1  0.08751048  0.18466903  0.57702275  1
  O  O603  1  0.08781680  0.18329366  0.82721715  1
  O  O604  1  0.08656370  0.51841986  0.07674993  1
  O  O605  1  0.08599561  0.51802007  0.32789361  1
  O  O606  1  0.08634710  0.51912953  0.57740119  1
  O  O607  1  0.08655249  0.51870735  0.82755491  1
  O  O608  1  0.08697297  0.85100580  0.07861444  1
  O  O609  1  0.08850202  0.85091155  0.32874032  1
  O  O610  1  0.08907659  0.85058538  0.57789618  1
  O  O611  1  0.08749907  0.85232614  0.82726466  1
  O  O612  1  0.58785124  0.18370001  0.07760556  1
  O  O613  1  0.58885148  0.18528554  0.32673247  1
  O  O614  1  0.58688287  0.18485211  0.57757539  1
  O  O615  1  0.58831924  0.18465378  0.82834943  1
  O  O616  1  0.58766765  0.51853273  0.07713024  1
  O  O617  1  0.58922975  0.51950742  0.32661608  1
  O  O618  1  0.58705649  0.51910079  0.57697547  1
  O  O619  1  0.58536795  0.51871808  0.82691784  1
  O  O620  1  0.58589343  0.85250987  0.07730211  1
  O  O621  1  0.58677496  0.85036965  0.32832175  1
  O  O622  1  0.58864367  0.85079029  0.57811547  1
  O  O623  1  0.58874171  0.85138725  0.82731417  1
  O  O624  1  0.33901849  0.18581973  0.04827251  1
  O  O625  1  0.33818823  0.18377317  0.29666513  1
  O  O626  1  0.33527642  0.18604201  0.54754387  1
  O  O627  1  0.33576993  0.18431387  0.79801989  1
  O  O628  1  0.33616132  0.51780584  0.04738718  1
  O  O629  1  0.33694849  0.51938986  0.29732716  1
  O  O630  1  0.33735880  0.51852434  0.54640461  1
  O  O631  1  0.33846140  0.51884852  0.79786679  1
  O  O632  1  0.33822207  0.85170790  0.04805377  1
  O  O633  1  0.33977719  0.85138794  0.29729916  1
  O  O634  1  0.33638915  0.85044312  0.54719790  1
  O  O635  1  0.33545102  0.85128649  0.79768719  1
  O  O636  1  0.83724028  0.18506031  0.04765643  1
  O  O637  1  0.83636119  0.18394370  0.29627983  1
  O  O638  1  0.83934842  0.18483437  0.54743170  1
  O  O639  1  0.83838594  0.18351729  0.79691357  1
  O  O640  1  0.83917488  0.51725279  0.04689306  1
  O  O641  1  0.83919782  0.51959613  0.29758285  1
  O  O642  1  0.83917150  0.51767933  0.54700162  1
  O  O643  1  0.84009712  0.51960931  0.79734323  1
  O  O644  1  0.83826813  0.85222860  0.04690767  1
  O  O645  1  0.83707113  0.85115560  0.29764903  1
  O  O646  1  0.83555269  0.85187820  0.54870256  1
  O  O647  1  0.83682041  0.85201263  0.79893757  1
  O  O648  1  0.16495889  0.14785800  0.20151016  1
  O  O649  1  0.16202200  0.14837893  0.45257073  1
  O  O650  1  0.16260340  0.14830914  0.70341648  1
  O  O651  1  0.16157814  0.14821235  0.95228087  1
  O  O652  1  0.16038134  0.48172718  0.20195848  1
  O  O653  1  0.16278171  0.48110184  0.45148690  1
  O  O654  1  0.16428757  0.48111581  0.70250083  1
  O  O655  1  0.16314136  0.48234463  0.95311109  1
  O  O656  1  0.16257143  0.81521891  0.20224475  1
  O  O657  1  0.16222813  0.81566612  0.45251089  1
  O  O658  1  0.16246565  0.81583920  0.70282689  1
  O  O659  1  0.15992606  0.81395095  0.95258657  1
  O  O660  1  0.66321365  0.14872355  0.20159195  1
  O  O661  1  0.66383897  0.14766941  0.45279301  1
  O  O662  1  0.66390220  0.14733151  0.70257429  1
  O  O663  1  0.66239876  0.14946092  0.95284340  1
  O  O664  1  0.66331073  0.48267774  0.20241973  1
  O  O665  1  0.66578233  0.48175976  0.45209157  1
  O  O666  1  0.66311286  0.48231182  0.70202766  1
  O  O667  1  0.66502511  0.48105339  0.95146085  1
  O  O668  1  0.66366752  0.81397500  0.20256126  1
  O  O669  1  0.66124299  0.81611376  0.45303954  1
  O  O670  1  0.66083445  0.81588724  0.70350381  1
  O  O671  1  0.66178316  0.81462486  0.95195173  1
