# generated using pymatgen
data_Na2MnFe(PO4)2
_symmetry_space_group_name_H-M   'P 1'
_cell_length_a   21.08499685
_cell_length_b   18.93743626
_cell_length_c   20.04433694
_cell_angle_alpha   89.99903729
_cell_angle_beta   89.99480008
_cell_angle_gamma   90.00098839
_symmetry_Int_Tables_number   1
_chemical_formula_structural   Na2MnFe(PO4)2
_chemical_formula_sum   'Na96 Mn48 Fe48 P96 O384'
_cell_volume   8003.61919152
_cell_formula_units_Z   48
loop_
 _symmetry_equiv_pos_site_id
 _symmetry_equiv_pos_as_xyz
  1  'x, y, z'
loop_
 _atom_site_type_symbol
 _atom_site_label
 _atom_site_symmetry_multiplicity
 _atom_site_fract_x
 _atom_site_fract_y
 _atom_site_fract_z
 _atom_site_occupancy
  Na  Na0  1  0.00036388  -0.00020186  0.00016522  1
  Na  Na1  1  -0.00329114  -0.00108110  0.25040500  1
  Na  Na2  1  -0.00103212  -0.00030309  0.49982021  1
  Na  Na3  1  0.00290253  0.00065611  0.75023339  1
  Na  Na4  1  0.00055451  0.33399927  -0.00012885  1
  Na  Na5  1  -0.00092313  0.33350213  0.25003135  1
  Na  Na6  1  0.00108154  0.33411200  0.50010327  1
  Na  Na7  1  0.00155873  0.33387535  0.75027652  1
  Na  Na8  1  -0.00150603  0.66574104  -0.00032013  1
  Na  Na9  1  -0.00076011  0.66691646  0.24880925  1
  Na  Na10  1  -0.00189019  0.66577387  0.50119525  1
  Na  Na11  1  -0.00045686  0.66622481  0.74975247  1
  Na  Na12  1  0.49953224  -0.00014020  0.00086342  1
  Na  Na13  1  0.50122383  0.00066534  0.24922237  1
  Na  Na14  1  0.50067350  0.00039409  0.49923827  1
  Na  Na15  1  0.49952294  0.00001565  0.75027971  1
  Na  Na16  1  0.49912177  0.33360649  0.00041296  1
  Na  Na17  1  0.50062374  0.33371535  0.24909539  1
  Na  Na18  1  0.49991488  0.33364830  0.49966918  1
  Na  Na19  1  0.49895045  0.33386799  0.75084266  1
  Na  Na20  1  0.49888170  0.66586203  0.00004622  1
  Na  Na21  1  0.49988877  0.66571952  0.25045321  1
  Na  Na22  1  0.50177205  0.66692822  0.49992422  1
  Na  Na23  1  0.50010945  0.66626076  0.74995808  1
  Na  Na24  1  0.25111124  0.00005919  0.12484647  1
  Na  Na25  1  0.25209585  0.00082318  0.37614042  1
  Na  Na26  1  0.24845179  -0.00045117  0.62447859  1
  Na  Na27  1  0.24935099  -0.00044577  0.87492579  1
  Na  Na28  1  0.24891971  0.33284398  0.12435130  1
  Na  Na29  1  0.25062529  0.33385420  0.37530960  1
  Na  Na30  1  0.24777110  0.33317795  0.62457243  1
  Na  Na31  1  0.25034587  0.33443085  0.87563327  1
  Na  Na32  1  0.25133634  0.66675554  0.12554900  1
  Na  Na33  1  0.24857380  0.66571393  0.37408302  1
  Na  Na34  1  0.24947413  0.66618418  0.62397065  1
  Na  Na35  1  0.24986652  0.66584984  0.87560134  1
  Na  Na36  1  0.75034941  0.00045438  0.12450267  1
  Na  Na37  1  0.74995949  0.00021008  0.37432508  1
  Na  Na38  1  0.74917943  -0.00045310  0.62514912  1
  Na  Na39  1  0.75016790  0.00028673  0.87580832  1
  Na  Na40  1  0.74924225  0.33342170  0.12428342  1
  Na  Na41  1  0.75044501  0.33397086  0.37612846  1
  Na  Na42  1  0.74964058  0.33357256  0.62514993  1
  Na  Na43  1  0.75064948  0.33480076  0.87518616  1
  Na  Na44  1  0.75245610  0.66746840  0.12592135  1
  Na  Na45  1  0.75074510  0.66602444  0.37386729  1
  Na  Na46  1  0.75205930  0.66713683  0.62564585  1
  Na  Na47  1  0.75152583  0.66669701  0.87417875  1
  Na  Na48  1  0.00163495  0.16625638  0.00054004  1
  Na  Na49  1  -0.00278321  0.16756316  0.25088615  1
  Na  Na50  1  0.00108157  0.16648161  0.49997610  1
  Na  Na51  1  0.00442169  0.16607250  0.74970853  1
  Na  Na52  1  0.00013536  0.49920539  0.00013112  1
  Na  Na53  1  -0.00178649  0.50032105  0.24967852  1
  Na  Na54  1  -0.00145218  0.50045046  0.49961478  1
  Na  Na55  1  0.00083234  0.49917986  0.75065890  1
  Na  Na56  1  -0.00122284  0.83402756  -0.00085774  1
  Na  Na57  1  -0.00107599  0.83328063  0.24866417  1
  Na  Na58  1  -0.00124992  0.83316504  0.50145651  1
  Na  Na59  1  -0.00113140  0.83383551  0.74987279  1
  Na  Na60  1  0.49907365  0.16666018  0.00137749  1
  Na  Na61  1  0.50106054  0.16619029  0.24882104  1
  Na  Na62  1  0.50104019  0.16628297  0.49930641  1
  Na  Na63  1  0.49880663  0.16700462  0.75038826  1
  Na  Na64  1  0.49848661  0.49994595  -0.00096812  1
  Na  Na65  1  0.49972289  0.50023092  0.25052275  1
  Na  Na66  1  0.50112958  0.49965072  0.49957435  1
  Na  Na67  1  0.49946890  0.49985309  0.75057942  1
  Na  Na68  1  0.50047821  0.83340759  0.00106659  1
  Na  Na69  1  0.50158989  0.83298948  0.24948944  1
  Na  Na70  1  0.50037707  0.83354550  0.49999110  1
  Na  Na71  1  0.50020378  0.83342322  0.74992199  1
  Na  Na72  1  0.25259822  0.16571524  0.12431980  1
  Na  Na73  1  0.25089199  0.16650811  0.37559102  1
  Na  Na74  1  0.24725738  0.16770340  0.62500167  1
  Na  Na75  1  0.24928009  0.16687646  0.87477942  1
  Na  Na76  1  0.24961611  0.50048159  0.12449975  1
  Na  Na77  1  0.24978346  0.50010021  0.37524348  1
  Na  Na78  1  0.24948590  0.50019133  0.62455362  1
  Na  Na79  1  0.25103749  0.49938226  0.87599743  1
  Na  Na80  1  0.24892834  0.83416454  0.12583716  1
  Na  Na81  1  0.25042940  0.83293581  0.37471842  1
  Na  Na82  1  0.24854844  0.83372286  0.62370259  1
  Na  Na83  1  0.24916203  0.83377778  0.87516420  1
  Na  Na84  1  0.74881174  0.16684523  0.12489146  1
  Na  Na85  1  0.74951022  0.16669258  0.37494673  1
  Na  Na86  1  0.74949508  0.16660534  0.62546472  1
  Na  Na87  1  0.74891885  0.16681750  0.87505912  1
  Na  Na88  1  0.75201650  0.49884020  0.12478727  1
  Na  Na89  1  0.75167261  0.49973484  0.37525886  1
  Na  Na90  1  0.74921650  0.50025140  0.62485617  1
  Na  Na91  1  0.74999778  0.49961742  0.87456804  1
  Na  Na92  1  0.75086307  0.83350958  0.12498628  1
  Na  Na93  1  0.74945353  0.83399965  0.37404230  1
  Na  Na94  1  0.75235845  0.83239167  0.62552709  1
  Na  Na95  1  0.75305592  0.83250190  0.87555915  1
  Mn  Mn96  1  0.64176146  0.25034888  0.49757707  1
  Mn  Mn97  1  0.85775922  0.41715202  0.50312524  1
  Mn  Mn98  1  0.14194680  0.91700925  0.24853172  1
  Mn  Mn99  1  0.39256371  0.58327717  0.62699424  1
  Mn  Mn100  1  0.60823293  0.74900073  0.12236096  1
  Mn  Mn101  1  0.39140509  0.25046712  0.62732072  1
  Mn  Mn102  1  0.64241261  0.91581495  0.49736577  1
  Mn  Mn103  1  0.89333314  0.25032735  0.62772792  1
  Mn  Mn104  1  0.14211747  0.24992825  0.24833327  1
  Mn  Mn105  1  0.35803278  0.74986585  0.50128716  1
  Mn  Mn106  1  0.39199476  0.91644172  0.62738070  1
  Mn  Mn107  1  0.60903748  0.74939414  0.62235819  1
  Mn  Mn108  1  0.35829018  0.75022665  0.00199993  1
  Mn  Mn109  1  0.89262389  0.58301664  0.87741778  1
  Mn  Mn110  1  0.64179385  0.25049767  0.99697464  1
  Mn  Mn111  1  0.14163235  0.91659174  0.49657183  1
  Mn  Mn112  1  0.60787900  0.41651001  0.37223454  1
  Mn  Mn113  1  0.35746370  0.41613918  0.25167793  1
  Mn  Mn114  1  0.64259657  0.58365639  0.99809481  1
  Mn  Mn115  1  0.10784899  0.08353436  0.12397562  1
  Mn  Mn116  1  0.64272457  0.58268890  0.24747689  1
  Mn  Mn117  1  0.35792880  0.08367102  0.50196412  1
  Mn  Mn118  1  0.35769725  0.75012825  0.25304250  1
  Mn  Mn119  1  0.64235083  0.58350403  0.74814447  1
  Mn  Mn120  1  0.85822319  0.08380085  0.00209792  1
  Mn  Mn121  1  0.10698815  0.74943577  0.62290330  1
  Mn  Mn122  1  0.89339519  0.24928832  0.87678103  1
  Mn  Mn123  1  0.39237215  0.91594398  0.12761393  1
  Mn  Mn124  1  0.35772599  0.74962283  0.75240254  1
  Mn  Mn125  1  0.14104562  0.58332975  0.49724588  1
  Mn  Mn126  1  0.35664233  0.08354612  0.75239669  1
  Mn  Mn127  1  0.10682918  0.08234299  0.37167784  1
  Mn  Mn128  1  0.60779492  0.08383800  0.62311313  1
  Mn  Mn129  1  0.10761615  0.74972210  0.87249511  1
  Mn  Mn130  1  0.64291315  0.91599440  0.99720591  1
  Mn  Mn131  1  0.89161176  0.24975930  0.12751632  1
  Mn  Mn132  1  0.14275788  0.24952238  0.99800244  1
  Mn  Mn133  1  0.85789833  0.75025795  0.25315524  1
  Mn  Mn134  1  0.64132493  0.25025981  0.74855795  1
  Mn  Mn135  1  0.10670032  0.41751547  0.37200362  1
  Mn  Mn136  1  0.64251423  0.91652648  0.74914606  1
  Mn  Mn137  1  0.39276824  0.25055487  0.12768545  1
  Mn  Mn138  1  0.10703307  0.74995262  0.12238042  1
  Mn  Mn139  1  0.85885855  0.08384315  0.75292047  1
  Mn  Mn140  1  0.14262166  0.58369176  0.99817033  1
  Mn  Mn141  1  0.35753493  0.41654752  0.50214796  1
  Mn  Mn142  1  0.85742002  0.08314496  0.50243349  1
  Mn  Mn143  1  0.89245959  0.91718695  0.62801385  1
  Fe  Fe144  1  0.10780994  0.08375203  0.62270133  1
  Fe  Fe145  1  0.39272393  0.58312959  0.12713295  1
  Fe  Fe146  1  0.85783004  0.74984203  0.75258298  1
  Fe  Fe147  1  0.89267592  0.58376777  0.37688676  1
  Fe  Fe148  1  0.10870975  0.08337256  0.87364775  1
  Fe  Fe149  1  0.10612217  0.75001813  0.37365431  1
  Fe  Fe150  1  0.10736333  0.41677978  0.62383808  1
  Fe  Fe151  1  0.14254769  0.91596513  0.74840288  1
  Fe  Fe152  1  0.14238379  0.25005404  0.49727102  1
  Fe  Fe153  1  0.64300504  0.91742773  0.24831459  1
  Fe  Fe154  1  0.39274318  0.58358748  0.37658796  1
  Fe  Fe155  1  0.60714413  0.41661754  0.62416086  1
  Fe  Fe156  1  0.39320711  0.24982566  0.37631987  1
  Fe  Fe157  1  0.60639436  0.41673759  0.87321056  1
  Fe  Fe158  1  0.60735319  0.08362809  0.12294477  1
  Fe  Fe159  1  0.10808661  0.41650276  0.87298376  1
  Fe  Fe160  1  0.85606416  0.08423072  0.25166473  1
  Fe  Fe161  1  0.89158565  0.91617320  0.37679009  1
  Fe  Fe162  1  0.85748471  0.41638493  0.75200460  1
  Fe  Fe163  1  0.60621172  0.08314952  0.87399158  1
  Fe  Fe164  1  0.60790636  0.75021109  0.37359777  1
  Fe  Fe165  1  0.39240792  0.58365689  0.87626189  1
  Fe  Fe166  1  0.89166800  0.25002670  0.37731542  1
  Fe  Fe167  1  0.14295007  0.58318188  0.74848393  1
  Fe  Fe168  1  0.85770265  0.74952799  0.00145901  1
  Fe  Fe169  1  0.89247211  0.58225253  0.62724195  1
  Fe  Fe170  1  0.64363119  0.58388539  0.49815791  1
  Fe  Fe171  1  0.85713204  0.41547567  0.25129092  1
  Fe  Fe172  1  0.60736879  0.08307703  0.37255781  1
  Fe  Fe173  1  0.39199225  0.91661703  0.87661102  1
  Fe  Fe174  1  0.35868207  0.08328475  0.25196546  1
  Fe  Fe175  1  0.14311636  0.25072784  0.74843492  1
  Fe  Fe176  1  0.35738492  0.41644134  0.00202053  1
  Fe  Fe177  1  0.35679791  0.41695399  0.75171987  1
  Fe  Fe178  1  0.85769212  0.41688098  0.00156078  1
  Fe  Fe179  1  0.60776599  0.41698299  0.12301915  1
  Fe  Fe180  1  0.10645519  0.41663853  0.12363208  1
  Fe  Fe181  1  0.89255937  0.91681284  0.12662346  1
  Fe  Fe182  1  0.39396653  0.91652649  0.37590995  1
  Fe  Fe183  1  0.35740755  0.08305719  0.00090904  1
  Fe  Fe184  1  0.89277580  0.58302253  0.12652376  1
  Fe  Fe185  1  0.85737797  0.74990440  0.50092418  1
  Fe  Fe186  1  0.89385573  0.91770398  0.87660415  1
  Fe  Fe187  1  0.60775155  0.75015811  0.87372277  1
  Fe  Fe188  1  0.39171806  0.24980001  0.87635493  1
  Fe  Fe189  1  0.64275995  0.25005657  0.24905251  1
  Fe  Fe190  1  0.14236566  0.91684523  0.99831644  1
  Fe  Fe191  1  0.14196587  0.58318413  0.24819966  1
  P  P192  1  0.05326797  0.25072349  0.11048208  1
  P  P193  1  0.05228978  0.25005430  0.36093129  1
  P  P194  1  0.05607760  0.25080338  0.61072796  1
  P  P195  1  0.05513292  0.25026224  0.85984073  1
  P  P196  1  0.05305262  0.58241521  0.11107555  1
  P  P197  1  0.05185485  0.58450381  0.35919216  1
  P  P198  1  0.05313453  0.58211537  0.61148891  1
  P  P199  1  0.05437260  0.58241546  0.85966625  1
  P  P200  1  0.05264841  0.91697975  0.10961546  1
  P  P201  1  0.05080478  0.91535446  0.35986575  1
  P  P202  1  0.05480398  0.91710550  0.61109471  1
  P  P203  1  0.05454128  0.91713557  0.86073439  1
  P  P204  1  0.55541027  0.25039010  0.11140750  1
  P  P205  1  0.55285549  0.24942245  0.35894739  1
  P  P206  1  0.55285449  0.25124764  0.61013961  1
  P  P207  1  0.55135197  0.24996350  0.86082449  1
  P  P208  1  0.55234389  0.58209834  0.10981082  1
  P  P209  1  0.55387984  0.58403765  0.36116712  1
  P  P210  1  0.55461229  0.58208946  0.60946417  1
  P  P211  1  0.55236558  0.58330393  0.86056538  1
  P  P212  1  0.55530938  0.91734849  0.11118024  1
  P  P213  1  0.55358925  0.91665220  0.35928114  1
  P  P214  1  0.55366795  0.91671025  0.60997777  1
  P  P215  1  0.55190319  0.91666691  0.86077576  1
  P  P216  1  0.44601895  0.08318722  0.13926310  1
  P  P217  1  0.44697384  0.08343210  0.38814303  1
  P  P218  1  0.44635781  0.08362144  0.64027830  1
  P  P219  1  0.44640366  0.08328231  0.89046755  1
  P  P220  1  0.44689123  0.41758999  0.13880627  1
  P  P221  1  0.44628237  0.41643999  0.38942810  1
  P  P222  1  0.44687552  0.41694307  0.64072569  1
  P  P223  1  0.44499200  0.41660077  0.88908310  1
  P  P224  1  0.44671943  0.74887590  0.14031375  1
  P  P225  1  0.44833684  0.75022765  0.38956587  1
  P  P226  1  0.44732096  0.74961005  0.64007314  1
  P  P227  1  0.44795572  0.75020585  0.88985228  1
  P  P228  1  0.94575646  0.08265168  0.14093805  1
  P  P229  1  0.94427005  0.08336408  0.38883144  1
  P  P230  1  0.94858118  0.08386775  0.64024147  1
  P  P231  1  0.94919975  0.08312818  0.88999195  1
  P  P232  1  0.94549120  0.41710151  0.13931083  1
  P  P233  1  0.94444267  0.41663845  0.38865607  1
  P  P234  1  0.94735340  0.41712155  0.64082836  1
  P  P235  1  0.94679009  0.41627147  0.88942356  1
  P  P236  1  0.94464623  0.75001861  0.13818783  1
  P  P237  1  0.94674787  0.74981153  0.39047146  1
  P  P238  1  0.94422225  0.74883059  0.63960739  1
  P  P239  1  0.94511372  0.75067919  0.88924243  1
  P  P240  1  0.19877015  0.08331803  0.23519429  1
  P  P241  1  0.19488910  0.08422659  0.48549812  1
  P  P242  1  0.19449991  0.08323596  0.73571401  1
  P  P243  1  0.19730775  0.08258735  0.98495714  1
  P  P244  1  0.19552988  0.41753667  0.23421850  1
  P  P245  1  0.19464310  0.41622098  0.48574970  1
  P  P246  1  0.19618419  0.41722464  0.73595522  1
  P  P247  1  0.19602996  0.41677076  0.98601668  1
  P  P248  1  0.19478284  0.74924671  0.23625782  1
  P  P249  1  0.19550050  0.74964900  0.48346662  1
  P  P250  1  0.19651594  0.74940019  0.73486104  1
  P  P251  1  0.19665250  0.75063617  0.98528457  1
  P  P252  1  0.69551882  0.08360189  0.23563552  1
  P  P253  1  0.69576728  0.08320618  0.48399778  1
  P  P254  1  0.69563756  0.08325936  0.73664407  1
  P  P255  1  0.69502951  0.08338283  0.98523932  1
  P  P256  1  0.69738751  0.41585886  0.23457083  1
  P  P257  1  0.69541762  0.41790435  0.48637752  1
  P  P258  1  0.69573149  0.41672195  0.73572770  1
  P  P259  1  0.69612163  0.41738050  0.98519784  1
  P  P260  1  0.69553349  0.75071095  0.23612590  1
  P  P261  1  0.69806671  0.74884344  0.48414419  1
  P  P262  1  0.69714513  0.75020663  0.73652564  1
  P  P263  1  0.69812361  0.74948992  0.98434023  1
  P  P264  1  0.30531881  0.24988592  0.01353649  1
  P  P265  1  0.30407611  0.24938965  0.26568234  1
  P  P266  1  0.30307289  0.25004946  0.51401319  1
  P  P267  1  0.30214900  0.25113536  0.76533767  1
  P  P268  1  0.30575376  0.58262101  0.01463326  1
  P  P269  1  0.30356922  0.58283021  0.26457633  1
  P  P270  1  0.30419596  0.58343625  0.51371171  1
  P  P271  1  0.30262135  0.58250716  0.76532432  1
  P  P272  1  0.30348874  0.91728810  0.01394029  1
  P  P273  1  0.30413553  0.91746246  0.26604885  1
  P  P274  1  0.30467469  0.91654737  0.51355576  1
  P  P275  1  0.30211980  0.91643557  0.76528826  1
  P  P276  1  0.80347588  0.25086124  0.01454303  1
  P  P277  1  0.80232605  0.25015741  0.26535153  1
  P  P278  1  0.80416106  0.24993213  0.51481389  1
  P  P279  1  0.80333518  0.25103218  0.76532384  1
  P  P280  1  0.80442587  0.58311561  0.01530529  1
  P  P281  1  0.80551764  0.58201085  0.26420808  1
  P  P282  1  0.80446027  0.58450406  0.51453167  1
  P  P283  1  0.80502184  0.58244867  0.76381054  1
  P  P284  1  0.80577779  0.91627625  0.01423613  1
  P  P285  1  0.80377832  0.91787156  0.26394234  1
  P  P286  1  0.80449253  0.91566050  0.51398230  1
  P  P287  1  0.80464593  0.91653415  0.76626453  1
  O  O288  1  0.05610880  0.25005320  0.18724896  1
  O  O289  1  0.05747993  0.25004372  0.43756940  1
  O  O290  1  0.06007522  0.25093768  0.68755408  1
  O  O291  1  0.05736543  0.25036126  0.93668318  1
  O  O292  1  0.05748466  0.58312819  0.18771261  1
  O  O293  1  0.05521654  0.58348760  0.43596337  1
  O  O294  1  0.05831839  0.58277362  0.68807905  1
  O  O295  1  0.05726550  0.58312181  0.93646952  1
  O  O296  1  0.05651372  0.91682340  0.18632542  1
  O  O297  1  0.05478110  0.91625285  0.43654428  1
  O  O298  1  0.05901753  0.91619595  0.68786172  1
  O  O299  1  0.05893135  0.91646147  0.93747866  1
  O  O300  1  0.55957053  0.25046975  0.18811365  1
  O  O301  1  0.55627999  0.25011946  0.43568389  1
  O  O302  1  0.55560953  0.25071943  0.68691833  1
  O  O303  1  0.55488772  0.25018742  0.93752977  1
  O  O304  1  0.55640235  0.58249872  0.18651157  1
  O  O305  1  0.55897786  0.58361118  0.43774212  1
  O  O306  1  0.55722071  0.58313623  0.68629782  1
  O  O307  1  0.55600918  0.58321113  0.93718808  1
  O  O308  1  0.55961796  0.91704477  0.18789318  1
  O  O309  1  0.55668532  0.91670614  0.43603487  1
  O  O310  1  0.55694519  0.91662469  0.68673778  1
  O  O311  1  0.55576718  0.91642879  0.93747786  1
  O  O312  1  0.44086441  0.08293856  0.06264920  1
  O  O313  1  0.44277443  0.08352415  0.31141240  1
  O  O314  1  0.44346573  0.08365610  0.56345529  1
  O  O315  1  0.44275992  0.08329013  0.81374088  1
  O  O316  1  0.44204714  0.41671137  0.06216327  1
  O  O317  1  0.44335978  0.41660511  0.31267781  1
  O  O318  1  0.44314251  0.41683261  0.56399730  1
  O  O319  1  0.44029825  0.41658653  0.81238126  1
  O  O320  1  0.44358509  0.74995966  0.06355299  1
  O  O321  1  0.44461713  0.74994342  0.31287354  1
  O  O322  1  0.44380657  0.74968219  0.56334113  1
  O  O323  1  0.44442759  0.75021639  0.81315947  1
  O  O324  1  0.94352683  0.08378744  0.06412753  1
  O  O325  1  0.93977339  0.08373875  0.31210269  1
  O  O326  1  0.94393945  0.08369987  0.56359074  1
  O  O327  1  0.94555052  0.08379850  0.81333269  1
  O  O328  1  0.94131597  0.41635734  0.06257431  1
  O  O329  1  0.94071485  0.41592308  0.31190757  1
  O  O330  1  0.94350947  0.41677906  0.56407027  1
  O  O331  1  0.94177697  0.41635084  0.81281213  1
  O  O332  1  0.94132635  0.74981729  0.06141971  1
  O  O333  1  0.94372804  0.75014310  0.31363104  1
  O  O334  1  0.94053759  0.74955363  0.56284156  1
  O  O335  1  0.94151390  0.74974001  0.81241081  1
  O  O336  1  0.19376959  0.08313418  0.06164427  1
  O  O337  1  0.19405062  0.08315565  0.31186210  1
  O  O338  1  0.19081280  0.08342422  0.56229957  1
  O  O339  1  0.19136361  0.08309486  0.81259999  1
  O  O340  1  0.19073240  0.41685966  0.06262405  1
  O  O341  1  0.19260608  0.41706201  0.31105677  1
  O  O342  1  0.19074050  0.41727089  0.56250769  1
  O  O343  1  0.19221230  0.41723820  0.81271707  1
  O  O344  1  0.19349368  0.75005151  0.06208229  1
  O  O345  1  0.19008423  0.74980071  0.31292299  1
  O  O346  1  0.19198546  0.74951315  0.56025185  1
  O  O347  1  0.19385311  0.74945066  0.81163926  1
  O  O348  1  0.69085629  0.08344272  0.06201931  1
  O  O349  1  0.69099400  0.08332643  0.31237123  1
  O  O350  1  0.69285277  0.08329089  0.56084273  1
  O  O351  1  0.69023862  0.08334563  0.81336888  1
  O  O352  1  0.69114577  0.41724135  0.06188594  1
  O  O353  1  0.69374291  0.41697419  0.31133060  1
  O  O354  1  0.69128683  0.41686108  0.56305736  1
  O  O355  1  0.69023343  0.41670551  0.81244497  1
  O  O356  1  0.69402871  0.74961208  0.06107160  1
  O  O357  1  0.69112848  0.74995489  0.31284702  1
  O  O358  1  0.69506244  0.74954651  0.56095566  1
  O  O359  1  0.69148317  0.75004868  0.81316244  1
  O  O360  1  0.30718877  0.25015097  0.18882718  1
  O  O361  1  0.30883710  0.24998157  0.43742518  1
  O  O362  1  0.30526552  0.25053754  0.68859576  1
  O  O363  1  0.30869307  0.25014752  0.93675090  1
  O  O364  1  0.30863279  0.58306291  0.18786903  1
  O  O365  1  0.30926945  0.58354124  0.43697401  1
  O  O366  1  0.30618891  0.58308759  0.68860335  1
  O  O367  1  0.30989454  0.58343125  0.93783735  1
  O  O368  1  0.30696423  0.91655299  0.18919319  1
  O  O369  1  0.31018040  0.91643359  0.43689066  1
  O  O370  1  0.30583210  0.91652300  0.68855909  1
  O  O371  1  0.30850030  0.91638240  0.93725894  1
  O  O372  1  0.80557122  0.25010597  0.18860734  1
  O  O373  1  0.80841948  0.25000085  0.43801942  1
  O  O374  1  0.80668311  0.25015466  0.68855590  1
  O  O375  1  0.80704790  0.25019015  0.93784368  1
  O  O376  1  0.80949851  0.58296574  0.18745654  1
  O  O377  1  0.80889635  0.58354948  0.43778118  1
  O  O378  1  0.80844468  0.58212589  0.68703665  1
  O  O379  1  0.80689784  0.58279739  0.93846342  1
  O  O380  1  0.80832460  0.91694151  0.18727196  1
  O  O381  1  0.80823757  0.91642380  0.43716235  1
  O  O382  1  0.80713319  0.91754359  0.68937783  1
  O  O383  1  0.81017633  0.91755739  0.93751806  1
  O  O384  1  0.23547888  0.24950066  0.03845849  1
  O  O385  1  0.23431955  0.25019655  0.29067117  1
  O  O386  1  0.23269833  0.25016173  0.53729568  1
  O  O387  1  0.23210689  0.25082897  0.79006602  1
  O  O388  1  0.23560098  0.58350360  0.03853768  1
  O  O389  1  0.23306619  0.58273788  0.28786113  1
  O  O390  1  0.23400567  0.58337099  0.53716776  1
  O  O391  1  0.23260575  0.58265378  0.79005670  1
  O  O392  1  0.23316927  0.91726547  0.03781665  1
  O  O393  1  0.23439446  0.91713396  0.29116226  1
  O  O394  1  0.23437565  0.91663916  0.53671057  1
  O  O395  1  0.23191456  0.91649563  0.78942549  1
  O  O396  1  0.73372151  0.25040577  0.03932660  1
  O  O397  1  0.73226286  0.25024399  0.29024025  1
  O  O398  1  0.73414704  0.24995086  0.53880073  1
  O  O399  1  0.73368888  0.25099491  0.79056963  1
  O  O400  1  0.73490211  0.58334789  0.04106996  1
  O  O401  1  0.73542726  0.58270957  0.28827243  1
  O  O402  1  0.73426727  0.58371296  0.53863167  1
  O  O403  1  0.73519287  0.58293166  0.78876363  1
  O  O404  1  0.73563398  0.91682984  0.03816142  1
  O  O405  1  0.73336148  0.91747301  0.28763781  1
  O  O406  1  0.73467294  0.91581010  0.53873797  1
  O  O407  1  0.73505377  0.91647619  0.79174718  1
  O  O408  1  0.26888922  0.08309199  0.21104095  1
  O  O409  1  0.26496474  0.08390060  0.46158943  1
  O  O410  1  0.26439420  0.08349145  0.71076225  1
  O  O411  1  0.26731918  0.08330287  0.96018196  1
  O  O412  1  0.26523997  0.41673949  0.20911558  1
  O  O413  1  0.26459861  0.41676482  0.46135502  1
  O  O414  1  0.26643385  0.41702800  0.71153806  1
  O  O415  1  0.26658921  0.41675064  0.96296639  1
  O  O416  1  0.26492218  0.75002510  0.21230937  1
  O  O417  1  0.26534520  0.74937450  0.45887517  1
  O  O418  1  0.26594490  0.74972793  0.70886682  1
  O  O419  1  0.26628947  0.74999040  0.96007904  1
  O  O420  1  0.76596804  0.08372483  0.21185275  1
  O  O421  1  0.76551856  0.08335613  0.45920232  1
  O  O422  1  0.76580205  0.08325451  0.71292232  1
  O  O423  1  0.76523256  0.08358670  0.96152077  1
  O  O424  1  0.76753974  0.41598430  0.21027582  1
  O  O425  1  0.76544449  0.41743096  0.46221042  1
  O  O426  1  0.76616778  0.41675402  0.71241145  1
  O  O427  1  0.76665041  0.41741798  0.96200598  1
  O  O428  1  0.76571842  0.75050438  0.21234530  1
  O  O429  1  0.76788310  0.74969298  0.45890635  1
  O  O430  1  0.76762966  0.74998015  0.71345044  1
  O  O431  1  0.76833906  0.74934466  0.96047637  1
  O  O432  1  0.01528538  0.08332857  0.16671200  1
  O  O433  1  0.01431535  0.08303216  0.41300233  1
  O  O434  1  0.01882455  0.08388840  0.66392836  1
  O  O435  1  0.01922281  0.08331440  0.91468596  1
  O  O436  1  0.01570562  0.41669936  0.16348952  1
  O  O437  1  0.01435588  0.41717221  0.41327723  1
  O  O438  1  0.01751945  0.41656705  0.66493756  1
  O  O439  1  0.01730424  0.41648586  0.91267221  1
  O  O440  1  0.01448350  0.75026054  0.16297253  1
  O  O441  1  0.01652482  0.74958310  0.41582767  1
  O  O442  1  0.01426459  0.74972812  0.66390881  1
  O  O443  1  0.01506951  0.74962676  0.91367112  1
  O  O444  1  0.51659235  0.08358165  0.16224003  1
  O  O445  1  0.51727561  0.08329205  0.41222128  1
  O  O446  1  0.51591322  0.08373168  0.66560293  1
  O  O447  1  0.51648821  0.08325013  0.91521884  1
  O  O448  1  0.51713435  0.41699959  0.16278956  1
  O  O449  1  0.51599653  0.41654791  0.41454423  1
  O  O450  1  0.51689093  0.41701425  0.66528520  1
  O  O451  1  0.51553612  0.41665572  0.91268168  1
  O  O452  1  0.51644229  0.74904629  0.16522494  1
  O  O453  1  0.51839516  0.75041214  0.41435501  1
  O  O454  1  0.51711927  0.74931532  0.66484778  1
  O  O455  1  0.51788504  0.74986189  0.91510134  1
  O  O456  1  0.48533884  0.25026167  0.08730174  1
  O  O457  1  0.48287659  0.24987646  0.33416940  1
  O  O458  1  0.48338409  0.25047378  0.58439123  1
  O  O459  1  0.48130275  0.25019318  0.83602486  1
  O  O460  1  0.48237436  0.58282208  0.08527970  1
  O  O461  1  0.48345498  0.58337041  0.33750623  1
  O  O462  1  0.48498520  0.58311652  0.58416422  1
  O  O463  1  0.48227644  0.58309669  0.83580077  1
  O  O464  1  0.48518938  0.91665830  0.08728596  1
  O  O465  1  0.48357701  0.91677624  0.33433252  1
  O  O466  1  0.48405461  0.91688259  0.58475291  1
  O  O467  1  0.48185530  0.91685354  0.83598838  1
  O  O468  1  0.98370470  0.25022931  0.08504948  1
  O  O469  1  0.98186734  0.25031515  0.33751181  1
  O  O470  1  0.98600465  0.25070078  0.58647111  1
  O  O471  1  0.98564923  0.24999368  0.83399070  1
  O  O472  1  0.98285302  0.58267479  0.08688073  1
  O  O473  1  0.98175387  0.58384235  0.33476788  1
  O  O474  1  0.98277083  0.58245218  0.58780811  1
  O  O475  1  0.98456268  0.58285293  0.83493561  1
  O  O476  1  0.98248456  0.91677466  0.08551767  1
  O  O477  1  0.98071561  0.91573893  0.33546311  1
  O  O478  1  0.98469993  0.91667377  0.58710713  1
  O  O479  1  0.98423747  0.91695201  0.83676802  1
  O  O480  1  0.08729990  0.31591899  0.07829238  1
  O  O481  1  0.08566652  0.31502986  0.32761574  1
  O  O482  1  0.08951313  0.31606704  0.57784430  1
  O  O483  1  0.08936271  0.31548718  0.82763677  1
  O  O484  1  0.08648828  0.64732661  0.07750626  1
  O  O485  1  0.08551962  0.64974767  0.32683623  1
  O  O486  1  0.08629748  0.64710448  0.57773592  1
  O  O487  1  0.08866256  0.64718600  0.82678710  1
  O  O488  1  0.08648073  0.98218513  0.07709836  1
  O  O489  1  0.08469074  0.98028206  0.32666154  1
  O  O490  1  0.08797333  0.98240156  0.57818993  1
  O  O491  1  0.08815163  0.98219312  0.82798564  1
  O  O492  1  0.58863167  0.31560273  0.07819362  1
  O  O493  1  0.58722310  0.31429292  0.32620156  1
  O  O494  1  0.58673696  0.31666886  0.57810348  1
  O  O495  1  0.58537885  0.31498772  0.82821737  1
  O  O496  1  0.58643916  0.64710205  0.07703995  1
  O  O497  1  0.58694733  0.64913431  0.32779384  1
  O  O498  1  0.58977015  0.64659121  0.57682222  1
  O  O499  1  0.58623299  0.64841414  0.82791715  1
  O  O500  1  0.58838131  0.98260948  0.07817069  1
  O  O501  1  0.58766613  0.98167016  0.32656762  1
  O  O502  1  0.58787409  0.98164113  0.57751977  1
  O  O503  1  0.58572084  0.98185911  0.82828959  1
  O  O504  1  0.41299577  0.01822576  0.17300830  1
  O  O505  1  0.41359239  0.01832180  0.42120593  1
  O  O506  1  0.41215941  0.01862638  0.67265011  1
  O  O507  1  0.41244426  0.01819204  0.92319862  1
  O  O508  1  0.41325475  0.35274171  0.17228398  1
  O  O509  1  0.41247244  0.35100362  0.42166353  1
  O  O510  1  0.41272212  0.35206151  0.67351398  1
  O  O511  1  0.41173301  0.35156217  0.92259958  1
  O  O512  1  0.41268151  0.68364102  0.17235390  1
  O  O513  1  0.41452427  0.68515653  0.42232433  1
  O  O514  1  0.41320886  0.68456785  0.67258690  1
  O  O515  1  0.41372061  0.68510045  0.92208146  1
  O  O516  1  0.91153632  0.01725973  0.17247322  1
  O  O517  1  0.91087076  0.01796827  0.42159086  1
  O  O518  1  0.91507809  0.01888065  0.67337912  1
  O  O519  1  0.91519894  0.01811736  0.92244661  1
  O  O520  1  0.91171506  0.35226386  0.17285234  1
  O  O521  1  0.91098901  0.35173379  0.42210270  1
  O  O522  1  0.91337543  0.35225180  0.67381770  1
  O  O523  1  0.91349554  0.35133173  0.92293575  1
  O  O524  1  0.91108483  0.68494506  0.17117990  1
  O  O525  1  0.91250303  0.68460708  0.42259086  1
  O  O526  1  0.91100210  0.68340497  0.67229848  1
  O  O527  1  0.91078986  0.68599333  0.92238605  1
  O  O528  1  0.16482336  0.01834884  0.20239770  1
  O  O529  1  0.16129879  0.01929973  0.45206918  1
  O  O530  1  0.16082350  0.01808622  0.70296718  1
  O  O531  1  0.16344591  0.01753856  0.95229354  1
  O  O532  1  0.16089275  0.35267668  0.20185747  1
  O  O533  1  0.16126902  0.35090502  0.45302052  1
  O  O534  1  0.16251200  0.35215646  0.70298134  1
  O  O535  1  0.16293153  0.35172604  0.95242462  1
  O  O536  1  0.16183009  0.68377764  0.20314866  1
  O  O537  1  0.16105529  0.68482468  0.45094481  1
  O  O538  1  0.16244736  0.68399570  0.70278774  1
  O  O539  1  0.16228856  0.68571165  0.95284396  1
  O  O540  1  0.66227890  0.01859292  0.20212227  1
  O  O541  1  0.66178403  0.01812111  0.45143986  1
  O  O542  1  0.66241971  0.01812134  0.70342273  1
  O  O543  1  0.66153047  0.01835422  0.95209135  1
  O  O544  1  0.66348271  0.35072803  0.20231789  1
  O  O545  1  0.66172291  0.35309625  0.45283474  1
  O  O546  1  0.66225868  0.35181802  0.70226656  1
  O  O547  1  0.66268675  0.35248900  0.95160334  1
  O  O548  1  0.66242557  0.68550208  0.20269661  1
  O  O549  1  0.66423546  0.68355558  0.45186954  1
  O  O550  1  0.66414941  0.68515488  0.70286845  1
  O  O551  1  0.66427252  0.68456691  0.95146980  1
  O  O552  1  0.33875164  0.31512084  0.04657167  1
  O  O553  1  0.33859366  0.31424195  0.29819330  1
  O  O554  1  0.33606118  0.31518452  0.54762885  1
  O  O555  1  0.33617172  0.31612228  0.79777637  1
  O  O556  1  0.33976197  0.64727806  0.04801185  1
  O  O557  1  0.33698213  0.64774057  0.29823213  1
  O  O558  1  0.33750586  0.64844103  0.54703652  1
  O  O559  1  0.33672188  0.64743320  0.79833269  1
  O  O560  1  0.33694059  0.98246997  0.04676032  1
  O  O561  1  0.33846468  0.98256418  0.29798706  1
  O  O562  1  0.33770684  0.98169418  0.54699756  1
  O  O563  1  0.33597819  0.98137430  0.79822847  1
  O  O564  1  0.83714172  0.31618419  0.04690885  1
  O  O565  1  0.83640632  0.31515634  0.29795793  1
  O  O566  1  0.83772822  0.31502711  0.54779043  1
  O  O567  1  0.83751427  0.31629306  0.79724428  1
  O  O568  1  0.83897387  0.64812243  0.04734595  1
  O  O569  1  0.83942566  0.64689726  0.29759952  1
  O  O570  1  0.83766295  0.64988697  0.54712775  1
  O  O571  1  0.83908324  0.64745370  0.79636876  1
  O  O572  1  0.83959280  0.98101490  0.04781576  1
  O  O573  1  0.83690935  0.98299903  0.29703081  1
  O  O574  1  0.83817548  0.98060783  0.54733606  1
  O  O575  1  0.83911384  0.98141773  0.79889742  1
  O  O576  1  0.41268925  0.14813114  0.17279295  1
  O  O577  1  0.41366637  0.14866495  0.42133166  1
  O  O578  1  0.41205337  0.14866399  0.67253921  1
  O  O579  1  0.41247627  0.14838698  0.92307099  1
  O  O580  1  0.41361613  0.48272867  0.17190398  1
  O  O581  1  0.41218804  0.48149003  0.42189592  1
  O  O582  1  0.41285520  0.48195395  0.67340552  1
  O  O583  1  0.41172743  0.48176728  0.92227417  1
  O  O584  1  0.41265164  0.81388923  0.17294783  1
  O  O585  1  0.41459619  0.81552445  0.42191390  1
  O  O586  1  0.41337724  0.81462379  0.67272345  1
  O  O587  1  0.41410380  0.81534763  0.92257268  1
  O  O588  1  0.91069265  0.14728021  0.17342895  1
  O  O589  1  0.91112659  0.14856844  0.42216763  1
  O  O590  1  0.91523151  0.14894170  0.67335474  1
  O  O591  1  0.91529313  0.14806736  0.92295974  1
  O  O592  1  0.91200801  0.48219477  0.17218339  1
  O  O593  1  0.91089363  0.48213451  0.42109256  1
  O  O594  1  0.91356626  0.48213549  0.67357933  1
  O  O595  1  0.91336028  0.48121886  0.92298104  1
  O  O596  1  0.91087692  0.81514981  0.17103757  1
  O  O597  1  0.91237240  0.81466209  0.42298966  1
  O  O598  1  0.91012200  0.81355351  0.67287131  1
  O  O599  1  0.91188325  0.81610340  0.92168675  1
  O  O600  1  0.08781276  0.18573809  0.07825898  1
  O  O601  1  0.08540755  0.18501468  0.32733761  1
  O  O602  1  0.08972025  0.18571305  0.57772640  1
  O  O603  1  0.08983248  0.18533928  0.82792627  1
  O  O604  1  0.08646737  0.51724186  0.07815325  1
  O  O605  1  0.08613612  0.51978661  0.32610677  1
  O  O606  1  0.08618410  0.51696258  0.57811712  1
  O  O607  1  0.08836901  0.51721722  0.82750247  1
  O  O608  1  0.08665373  0.85221396  0.07645859  1
  O  O609  1  0.08441986  0.85016793  0.32744547  1
  O  O610  1  0.08821708  0.85209512  0.57776405  1
  O  O611  1  0.08783803  0.85211876  0.82709218  1
  O  O612  1  0.58874536  0.18515956  0.07843825  1
  O  O613  1  0.58694204  0.18440620  0.32649568  1
  O  O614  1  0.58758387  0.18648404  0.57775370  1
  O  O615  1  0.58507080  0.18478459  0.82832382  1
  O  O616  1  0.58592588  0.51701083  0.07705101  1
  O  O617  1  0.58724688  0.51906519  0.32748603  1
  O  O618  1  0.58828259  0.51653928  0.57767377  1
  O  O619  1  0.58617249  0.51818123  0.82787638  1
  O  O620  1  0.58898516  0.85234792  0.07798675  1
  O  O621  1  0.58781305  0.85161810  0.32695592  1
  O  O622  1  0.58772255  0.85150291  0.57756663  1
  O  O623  1  0.58583621  0.85155119  0.82811779  1
  O  O624  1  0.33925028  0.18479172  0.04597022  1
  O  O625  1  0.33803454  0.18418924  0.29792374  1
  O  O626  1  0.33611806  0.18505881  0.54770621  1
  O  O627  1  0.33625507  0.18619808  0.79817063  1
  O  O628  1  0.33877701  0.51713788  0.04747843  1
  O  O629  1  0.33698563  0.51781907  0.29779258  1
  O  O630  1  0.33739813  0.51835750  0.54709748  1
  O  O631  1  0.33666687  0.51753207  0.79791492  1
  O  O632  1  0.33674800  0.85232894  0.04766514  1
  O  O633  1  0.33859354  0.85256950  0.29860877  1
  O  O634  1  0.33760173  0.85132916  0.54700538  1
  O  O635  1  0.33598126  0.85148191  0.79819132  1
  O  O636  1  0.83753414  0.18592479  0.04737142  1
  O  O637  1  0.83623597  0.18507267  0.29797616  1
  O  O638  1  0.83771701  0.18492021  0.54789387  1
  O  O639  1  0.83749776  0.18606001  0.79808897  1
  O  O640  1  0.83880146  0.51798648  0.04744536  1
  O  O641  1  0.83867896  0.51671921  0.29694730  1
  O  O642  1  0.83847609  0.51988347  0.54830929  1
  O  O643  1  0.83844768  0.51724700  0.79682832  1
  O  O644  1  0.83883154  0.85076540  0.04692983  1
  O  O645  1  0.83730282  0.85299588  0.29775295  1
  O  O646  1  0.83820755  0.85037416  0.54623107  1
  O  O647  1  0.83920353  0.85141014  0.79787012  1
  O  O648  1  0.16526228  0.14850579  0.20233368  1
  O  O649  1  0.16144714  0.14943063  0.45271073  1
  O  O650  1  0.16072235  0.14858010  0.70334322  1
  O  O651  1  0.16303322  0.14743574  0.95211791  1
  O  O652  1  0.16156936  0.48280572  0.20200984  1
  O  O653  1  0.16075229  0.48100469  0.45239223  1
  O  O654  1  0.16261266  0.48224742  0.70265721  1
  O  O655  1  0.16284462  0.48167972  0.95230804  1
  O  O656  1  0.16107767  0.81423219  0.20304962  1
  O  O657  1  0.16146070  0.81468281  0.45080338  1
  O  O658  1  0.16197828  0.81444347  0.70283342  1
  O  O659  1  0.16275889  0.81583358  0.95309507  1
  O  O660  1  0.66225033  0.14881310  0.20259258  1
  O  O661  1  0.66136027  0.14809100  0.45150744  1
  O  O662  1  0.66235403  0.14844179  0.70341558  1
  O  O663  1  0.66118482  0.14819623  0.95200971  1
  O  O664  1  0.66356355  0.48074814  0.20123998  1
  O  O665  1  0.66240530  0.48331535  0.45341477  1
  O  O666  1  0.66241298  0.48171311  0.70231842  1
  O  O667  1  0.66281519  0.48236504  0.95181653  1
  O  O668  1  0.66235561  0.81589901  0.20323078  1
  O  O669  1  0.66331163  0.81349226  0.45149410  1
  O  O670  1  0.66435337  0.81531401  0.70291781  1
  O  O671  1  0.66443242  0.81448843  0.95129096  1
