# generated using pymatgen
data_Na2MnFe(PO4)2
_symmetry_space_group_name_H-M   'P 1'
_cell_length_a   21.08378015
_cell_length_b   18.93626403
_cell_length_c   20.04286215
_cell_angle_alpha   90.00020421
_cell_angle_beta   90.00021420
_cell_angle_gamma   89.99978617
_symmetry_Int_Tables_number   1
_chemical_formula_structural   Na2MnFe(PO4)2
_chemical_formula_sum   'Na96 Mn48 Fe48 P96 O384'
_cell_volume   8002.07318060
_cell_formula_units_Z   48
loop_
 _symmetry_equiv_pos_site_id
 _symmetry_equiv_pos_as_xyz
  1  'x, y, z'
loop_
 _atom_site_type_symbol
 _atom_site_label
 _atom_site_symmetry_multiplicity
 _atom_site_fract_x
 _atom_site_fract_y
 _atom_site_fract_z
 _atom_site_occupancy
  Na  Na0  1  0.00034229  -0.00047726  0.00046648  1
  Na  Na1  1  -0.00051019  -0.00036884  0.24975637  1
  Na  Na2  1  0.00086316  0.00031096  0.49978837  1
  Na  Na3  1  0.00202928  -0.00008552  0.75001091  1
  Na  Na4  1  -0.00203700  0.33302584  -0.00099048  1
  Na  Na5  1  -0.00353185  0.33261854  0.25051038  1
  Na  Na6  1  -0.00194380  0.33302021  0.50057986  1
  Na  Na7  1  0.00024379  0.33384405  0.74971389  1
  Na  Na8  1  0.00179493  0.66717030  -0.00008467  1
  Na  Na9  1  -0.00050821  0.66641141  0.24949416  1
  Na  Na10  1  -0.00158874  0.66614170  0.50082631  1
  Na  Na11  1  -0.00058201  0.66620686  0.74961456  1
  Na  Na12  1  0.50156146  0.00028763  0.00019118  1
  Na  Na13  1  0.50133013  0.00028898  0.24988104  1
  Na  Na14  1  0.49813831  -0.00068240  0.50009991  1
  Na  Na15  1  0.49840814  -0.00090817  0.74992164  1
  Na  Na16  1  0.49968465  0.33365943  -0.00071738  1
  Na  Na17  1  0.49937668  0.33272911  0.25122327  1
  Na  Na18  1  0.50096383  0.33325285  0.49969836  1
  Na  Na19  1  0.50104076  0.33390661  0.75005554  1
  Na  Na20  1  0.49863795  0.66636788  -0.00028430  1
  Na  Na21  1  0.49946574  0.66672630  0.24965696  1
  Na  Na22  1  0.50033951  0.66668010  0.50050484  1
  Na  Na23  1  0.49984117  0.66663095  0.74952510  1
  Na  Na24  1  0.24921898  -0.00100046  0.12563130  1
  Na  Na25  1  0.24871143  -0.00035556  0.37443865  1
  Na  Na26  1  0.24893828  -0.00042128  0.62451517  1
  Na  Na27  1  0.25002546  -0.00026591  0.87489310  1
  Na  Na28  1  0.25320771  0.33449862  0.12551383  1
  Na  Na29  1  0.25067721  0.33348007  0.37508373  1
  Na  Na30  1  0.24902009  0.33322258  0.62400560  1
  Na  Na31  1  0.25042038  0.33349290  0.87534403  1
  Na  Na32  1  0.24879341  0.66561871  0.12468655  1
  Na  Na33  1  0.25131956  0.66751967  0.37503178  1
  Na  Na34  1  0.25137148  0.66683391  0.62457239  1
  Na  Na35  1  0.25287218  0.66783181  0.87577067  1
  Na  Na36  1  0.75024306  0.00035618  0.12552932  1
  Na  Na37  1  0.75000651  -0.00020046  0.37453563  1
  Na  Na38  1  0.75211717  0.00102319  0.62606317  1
  Na  Na39  1  0.74976702  -0.00032469  0.87491294  1
  Na  Na40  1  0.75067579  0.33353904  0.12443689  1
  Na  Na41  1  0.75225036  0.33354307  0.37408581  1
  Na  Na42  1  0.75043298  0.33377271  0.62501320  1
  Na  Na43  1  0.74796674  0.33307847  0.87608324  1
  Na  Na44  1  0.74943806  0.66664558  0.12434327  1
  Na  Na45  1  0.75206041  0.66751760  0.37486666  1
  Na  Na46  1  0.74843350  0.66564461  0.62582171  1
  Na  Na47  1  0.74833397  0.66656565  0.87509234  1
  Na  Na48  1  -0.00248869  0.16698956  0.00040673  1
  Na  Na49  1  -0.00344444  0.16666889  0.24913418  1
  Na  Na50  1  -0.00051037  0.16629481  0.50068007  1
  Na  Na51  1  0.00210170  0.16534209  0.74937276  1
  Na  Na52  1  0.00064916  0.49986515  -0.00067491  1
  Na  Na53  1  -0.00278473  0.50063136  0.24984445  1
  Na  Na54  1  -0.00191590  0.49929146  0.50002032  1
  Na  Na55  1  -0.00045085  0.49974388  0.75021287  1
  Na  Na56  1  0.00155185  0.83402925  -0.00048837  1
  Na  Na57  1  0.00237957  0.83308654  0.25092925  1
  Na  Na58  1  -0.00028332  0.83432393  0.50042381  1
  Na  Na59  1  0.00098732  0.83379246  0.74987847  1
  Na  Na60  1  0.50081637  0.16656538  -0.00027151  1
  Na  Na61  1  0.50142135  0.16612039  0.25139250  1
  Na  Na62  1  0.50121750  0.16612069  0.50080962  1
  Na  Na63  1  0.50238449  0.16580811  0.74859406  1
  Na  Na64  1  0.50040634  0.49867965  -0.00034611  1
  Na  Na65  1  0.49901131  0.50012700  0.25056373  1
  Na  Na66  1  0.50032843  0.50028841  0.50012033  1
  Na  Na67  1  0.49910249  0.50044716  0.74975477  1
  Na  Na68  1  0.49913507  0.83399482  -0.00004764  1
  Na  Na69  1  0.49985652  0.83412424  0.24902459  1
  Na  Na70  1  0.49787164  0.83451524  0.49941899  1
  Na  Na71  1  0.49822090  0.83379814  0.75123181  1
  Na  Na72  1  0.25092677  0.16633070  0.12614538  1
  Na  Na73  1  0.24980352  0.16628135  0.37432011  1
  Na  Na74  1  0.24815384  0.16665274  0.62466903  1
  Na  Na75  1  0.24854869  0.16745095  0.87546544  1
  Na  Na76  1  0.25069887  0.50018459  0.12456714  1
  Na  Na77  1  0.25145014  0.49905525  0.37599765  1
  Na  Na78  1  0.24962623  0.50012220  0.62396133  1
  Na  Na79  1  0.25244248  0.49901451  0.87471160  1
  Na  Na80  1  0.25147650  0.83337579  0.12489706  1
  Na  Na81  1  0.24889305  0.83506202  0.37428284  1
  Na  Na82  1  0.25115375  0.83412704  0.62427102  1
  Na  Na83  1  0.25104969  0.83416396  0.87599371  1
  Na  Na84  1  0.75120450  0.16509457  0.12565379  1
  Na  Na85  1  0.75035508  0.16618141  0.37379083  1
  Na  Na86  1  0.74784508  0.16741165  0.62506011  1
  Na  Na87  1  0.74899235  0.16600753  0.87552977  1
  Na  Na88  1  0.75000678  0.50002416  0.12378053  1
  Na  Na89  1  0.75180908  0.49947864  0.37480094  1
  Na  Na90  1  0.74973449  0.50029760  0.62556867  1
  Na  Na91  1  0.74975245  0.49940316  0.87643115  1
  Na  Na92  1  0.74880346  0.83430821  0.12479042  1
  Na  Na93  1  0.75087018  0.83399355  0.37509188  1
  Na  Na94  1  0.75272853  0.83209833  0.62645126  1
  Na  Na95  1  0.74821876  0.83437184  0.87398622  1
  Mn  Mn96  1  0.89139177  0.58363154  0.62793836  1
  Mn  Mn97  1  0.14179306  0.58382956  0.49717086  1
  Mn  Mn98  1  0.89275187  0.91608189  0.87748860  1
  Mn  Mn99  1  0.39231579  0.24975862  0.87652372  1
  Mn  Mn100  1  0.64162789  0.24920106  0.99820161  1
  Mn  Mn101  1  0.10725967  0.74978353  0.37293858  1
  Mn  Mn102  1  0.10662027  0.08365920  0.12272794  1
  Mn  Mn103  1  0.35779306  0.41573904  0.50249484  1
  Mn  Mn104  1  0.35703205  0.08409357  0.75242110  1
  Mn  Mn105  1  0.39240340  0.24973334  0.62732757  1
  Mn  Mn106  1  0.14137065  0.24936947  0.49691354  1
  Mn  Mn107  1  0.60856349  0.41669070  0.37262817  1
  Mn  Mn108  1  0.60742085  0.75070760  0.62282359  1
  Mn  Mn109  1  0.39182647  0.58281984  0.12758061  1
  Mn  Mn110  1  0.10617556  0.41615214  0.37225727  1
  Mn  Mn111  1  0.35809253  0.75092699  0.50191914  1
  Mn  Mn112  1  0.14315051  0.58342886  0.74791592  1
  Mn  Mn113  1  0.85798709  0.08419235  0.75245020  1
  Mn  Mn114  1  0.85847273  0.75017161  0.25166192  1
  Mn  Mn115  1  0.60748061  0.75000126  0.12236455  1
  Mn  Mn116  1  0.64156633  0.91656995  0.74737264  1
  Mn  Mn117  1  0.60775168  0.08224637  0.62220070  1
  Mn  Mn118  1  0.60847645  0.41679522  0.62278224  1
  Mn  Mn119  1  0.10766495  0.41666865  0.12316931  1
  Mn  Mn120  1  0.89244361  0.91654896  0.37755867  1
  Mn  Mn121  1  0.35750379  0.74958609  0.25223610  1
  Mn  Mn122  1  0.10826446  0.41666143  0.87277579  1
  Mn  Mn123  1  0.89163999  0.24996810  0.87661688  1
  Mn  Mn124  1  0.10831500  0.74965489  0.62278220  1
  Mn  Mn125  1  0.64245782  0.58355769  0.24811541  1
  Mn  Mn126  1  0.85767073  0.75117216  0.00196117  1
  Mn  Mn127  1  0.10914776  0.74959568  0.87238038  1
  Mn  Mn128  1  0.64299331  0.25005541  0.24733988  1
  Mn  Mn129  1  0.14158638  0.25044362  0.24759809  1
  Mn  Mn130  1  0.39289752  0.24919349  0.37778229  1
  Mn  Mn131  1  0.64264644  0.91661609  0.49834448  1
  Mn  Mn132  1  0.64124215  0.58432586  0.99726881  1
  Mn  Mn133  1  0.35824144  0.08355940  0.25253136  1
  Mn  Mn134  1  0.14214968  0.25045127  0.99873293  1
  Mn  Mn135  1  0.35873409  0.08377015  0.00254213  1
  Mn  Mn136  1  0.85704636  0.41620549  0.00217463  1
  Mn  Mn137  1  0.85750477  0.74903115  0.75315355  1
  Mn  Mn138  1  0.14202994  0.58318908  0.24859347  1
  Mn  Mn139  1  0.60829210  0.75092121  0.37320366  1
  Mn  Mn140  1  0.89269653  0.58403327  0.12649749  1
  Mn  Mn141  1  0.89193742  0.24912740  0.62790977  1
  Mn  Mn142  1  0.10808712  0.08365815  0.87356382  1
  Mn  Mn143  1  0.39257251  0.58352917  0.62726441  1
  Fe  Fe144  1  0.85743155  0.08295640  0.50170647  1
  Fe  Fe145  1  0.39263770  0.91694301  0.37601953  1
  Fe  Fe146  1  0.39142805  0.91700020  0.62689775  1
  Fe  Fe147  1  0.89198327  0.24965330  0.37748544  1
  Fe  Fe148  1  0.10686698  0.41646430  0.62351557  1
  Fe  Fe149  1  0.35736175  0.74999587  0.00198180  1
  Fe  Fe150  1  0.35673724  0.08341633  0.50114163  1
  Fe  Fe151  1  0.35708950  0.41659305  0.75111222  1
  Fe  Fe152  1  0.39290995  0.58339190  0.87619413  1
  Fe  Fe153  1  0.89287592  0.91635420  0.12642031  1
  Fe  Fe154  1  0.39276035  0.91680491  0.87725813  1
  Fe  Fe155  1  0.14382266  0.91667942  0.74810020  1
  Fe  Fe156  1  0.14364033  0.58328088  0.99775573  1
  Fe  Fe157  1  0.14366000  0.91650568  0.99884321  1
  Fe  Fe158  1  0.60783180  0.08256737  0.37416716  1
  Fe  Fe159  1  0.85677604  0.41657013  0.50226129  1
  Fe  Fe160  1  0.89242811  0.58369405  0.87684321  1
  Fe  Fe161  1  0.10761648  0.08342280  0.62258450  1
  Fe  Fe162  1  0.85728191  0.41663852  0.25118827  1
  Fe  Fe163  1  0.89388859  0.91688537  0.62640991  1
  Fe  Fe164  1  0.85760455  0.75032693  0.50226795  1
  Fe  Fe165  1  0.85672037  0.08294874  0.25218044  1
  Fe  Fe166  1  0.39321073  0.24931905  0.12668021  1
  Fe  Fe167  1  0.60750640  0.08313626  0.87331421  1
  Fe  Fe168  1  0.14302736  0.91682050  0.49826576  1
  Fe  Fe169  1  0.60576598  0.74988653  0.87350367  1
  Fe  Fe170  1  0.64233528  0.91669601  0.99836806  1
  Fe  Fe171  1  0.14273897  0.91676142  0.24766300  1
  Fe  Fe172  1  0.60650201  0.41688948  0.87264676  1
  Fe  Fe173  1  0.89149449  0.24967064  0.12663827  1
  Fe  Fe174  1  0.14227041  0.25019427  0.74832018  1
  Fe  Fe175  1  0.85673222  0.41684230  0.75192029  1
  Fe  Fe176  1  0.10806356  0.75018920  0.12315888  1
  Fe  Fe177  1  0.39347043  0.91798345  0.12685916  1
  Fe  Fe178  1  0.39292954  0.58392250  0.37692316  1
  Fe  Fe179  1  0.60691057  0.41609270  0.12402579  1
  Fe  Fe180  1  0.64254952  0.91657389  0.24831964  1
  Fe  Fe181  1  0.85665345  0.08243318  0.00150695  1
  Fe  Fe182  1  0.89166688  0.58316869  0.37731829  1
  Fe  Fe183  1  0.64373698  0.24994888  0.49833679  1
  Fe  Fe184  1  0.64222888  0.58266554  0.74925567  1
  Fe  Fe185  1  0.35812083  0.41671064  0.25193018  1
  Fe  Fe186  1  0.10644259  0.08396930  0.37310669  1
  Fe  Fe187  1  0.60774287  0.08373757  0.12357920  1
  Fe  Fe188  1  0.35781968  0.74988969  0.75208937  1
  Fe  Fe189  1  0.35819221  0.41678068  0.00193876  1
  Fe  Fe190  1  0.64350545  0.58328071  0.49790741  1
  Fe  Fe191  1  0.64235147  0.25070397  0.74851303  1
  P  P192  1  0.05086646  0.25020991  0.11006322  1
  P  P193  1  0.05103774  0.24900270  0.35982019  1
  P  P194  1  0.05454108  0.25017517  0.61123014  1
  P  P195  1  0.05364311  0.25008107  0.85929712  1
  P  P196  1  0.05466356  0.58390827  0.10925197  1
  P  P197  1  0.05084721  0.58301266  0.36009170  1
  P  P198  1  0.05324310  0.58213263  0.61020452  1
  P  P199  1  0.05372554  0.58325277  0.86063883  1
  P  P200  1  0.05430223  0.91609702  0.11062097  1
  P  P201  1  0.05536719  0.91788177  0.36077359  1
  P  P202  1  0.05508113  0.91723630  0.61059204  1
  P  P203  1  0.05605555  0.91659449  0.86045069  1
  P  P204  1  0.55238068  0.25001441  0.11056793  1
  P  P205  1  0.55574929  0.24893517  0.36161653  1
  P  P206  1  0.55560794  0.25022246  0.61006386  1
  P  P207  1  0.55392528  0.24980560  0.85934762  1
  P  P208  1  0.55294627  0.58230233  0.11011390  1
  P  P209  1  0.55369490  0.58373272  0.36109405  1
  P  P210  1  0.55555144  0.58334775  0.61036263  1
  P  P211  1  0.55224041  0.58346171  0.85962842  1
  P  P212  1  0.55434390  0.91761345  0.11060926  1
  P  P213  1  0.55304877  0.91754078  0.35965245  1
  P  P214  1  0.55118102  0.91627141  0.60973162  1
  P  P215  1  0.55322384  0.91654996  0.86147200  1
  P  P216  1  0.44829537  0.08350021  0.14007704  1
  P  P217  1  0.44752127  0.08236063  0.39075448  1
  P  P218  1  0.44506146  0.08266991  0.63882330  1
  P  P219  1  0.44802763  0.08299391  0.88961560  1
  P  P220  1  0.44624167  0.41547620  0.13968012  1
  P  P221  1  0.44592167  0.41729813  0.38934577  1
  P  P222  1  0.44646335  0.41633457  0.64069507  1
  P  P223  1  0.44564689  0.41722863  0.88870088  1
  P  P224  1  0.44513319  0.75103239  0.13856900  1
  P  P225  1  0.44675913  0.75054454  0.38947709  1
  P  P226  1  0.44567425  0.75109305  0.64076366  1
  P  P227  1  0.44528253  0.74984597  0.88925918  1
  P  P228  1  0.94370733  0.08224632  0.13905050  1
  P  P229  1  0.94557842  0.08365385  0.38952175  1
  P  P230  1  0.94690278  0.08217889  0.63890870  1
  P  P231  1  0.94612830  0.08308898  0.89088932  1
  P  P232  1  0.94568697  0.41626549  0.14015211  1
  P  P233  1  0.94363595  0.41629588  0.38950813  1
  P  P234  1  0.94515033  0.41639971  0.63995862  1
  P  P235  1  0.94494111  0.41753993  0.88860377  1
  P  P236  1  0.94852536  0.75144861  0.13947808  1
  P  P237  1  0.94583714  0.74952445  0.39090595  1
  P  P238  1  0.94561066  0.75111926  0.63932908  1
  P  P239  1  0.94734815  0.74921977  0.89014173  1
  P  P240  1  0.19508810  0.08301721  0.23611363  1
  P  P241  1  0.19555003  0.08247345  0.48486813  1
  P  P242  1  0.19566372  0.08319674  0.73453903  1
  P  P243  1  0.19710398  0.08275975  0.98579530  1
  P  P244  1  0.19809985  0.41672876  0.23514076  1
  P  P245  1  0.19486428  0.41644228  0.48550158  1
  P  P246  1  0.19729094  0.41629515  0.73432191  1
  P  P247  1  0.19819121  0.41724836  0.98536042  1
  P  P248  1  0.19585964  0.75069559  0.23443238  1
  P  P249  1  0.19682964  0.75122661  0.48467745  1
  P  P250  1  0.19891187  0.75080599  0.73505649  1
  P  P251  1  0.19695782  0.75026875  0.98652246  1
  P  P252  1  0.69571800  0.08235578  0.23592681  1
  P  P253  1  0.69775802  0.08341949  0.48453630  1
  P  P254  1  0.69503061  0.08398665  0.73618017  1
  P  P255  1  0.69554134  0.08219765  0.98594864  1
  P  P256  1  0.69769386  0.41672578  0.23416634  1
  P  P257  1  0.69809538  0.41656915  0.48501303  1
  P  P258  1  0.69611054  0.41697403  0.73667916  1
  P  P259  1  0.69371501  0.41644621  0.98569537  1
  P  P260  1  0.69683369  0.75087052  0.23494394  1
  P  P261  1  0.69838937  0.74978357  0.48555661  1
  P  P262  1  0.69463533  0.74897500  0.73655433  1
  P  P263  1  0.69549275  0.75148405  0.98398039  1
  P  P264  1  0.30443913  0.25070282  0.01585970  1
  P  P265  1  0.30490904  0.25055261  0.26419242  1
  P  P266  1  0.30311302  0.24850825  0.51484584  1
  P  P267  1  0.30161677  0.25067997  0.76460562  1
  P  P268  1  0.30436399  0.58331871  0.01338606  1
  P  P269  1  0.30399953  0.58245416  0.26595494  1
  P  P270  1  0.30462595  0.58350789  0.51393274  1
  P  P271  1  0.30443216  0.58330890  0.76533394  1
  P  P272  1  0.30496429  0.91646605  0.01470993  1
  P  P273  1  0.30411010  0.91703014  0.26422280  1
  P  P274  1  0.30416677  0.91819503  0.51372580  1
  P  P275  1  0.30432383  0.91637118  0.76462533  1
  P  P276  1  0.80335007  0.24858906  0.01539800  1
  P  P277  1  0.80554139  0.24961941  0.26392348  1
  P  P278  1  0.80373401  0.24926641  0.51380953  1
  P  P279  1  0.80156950  0.25079347  0.76523789  1
  P  P280  1  0.80390443  0.58399586  0.01374663  1
  P  P281  1  0.80423463  0.58280402  0.26499290  1
  P  P282  1  0.80346821  0.58337506  0.51421446  1
  P  P283  1  0.80230246  0.58231224  0.76627194  1
  P  P284  1  0.80251449  0.91727666  0.01538210  1
  P  P285  1  0.80361500  0.91720834  0.26371483  1
  P  P286  1  0.80430682  0.91710148  0.51593722  1
  P  P287  1  0.80463380  0.91692036  0.76412237  1
  O  O288  1  0.05495154  0.25019238  0.18673573  1
  O  O289  1  0.05498642  0.24959357  0.43654326  1
  O  O290  1  0.05883760  0.25021236  0.68796744  1
  O  O291  1  0.05657266  0.25030521  0.93611176  1
  O  O292  1  0.05711053  0.58297482  0.18608115  1
  O  O293  1  0.05500166  0.58288868  0.43677231  1
  O  O294  1  0.05690863  0.58289203  0.68698267  1
  O  O295  1  0.05952567  0.58333966  0.93727515  1
  O  O296  1  0.05868201  0.91668028  0.18736268  1
  O  O297  1  0.05925937  0.91712184  0.43755077  1
  O  O298  1  0.05976008  0.91633806  0.68730961  1
  O  O299  1  0.06058586  0.91652567  0.93722226  1
  O  O300  1  0.55598769  0.25007020  0.18729002  1
  O  O301  1  0.56024335  0.24985614  0.43836217  1
  O  O302  1  0.55969605  0.25067815  0.68684684  1
  O  O303  1  0.55634249  0.24981829  0.93616496  1
  O  O304  1  0.55608241  0.58310969  0.18689775  1
  O  O305  1  0.55929320  0.58352332  0.43777685  1
  O  O306  1  0.55956340  0.58291514  0.68713086  1
  O  O307  1  0.55541634  0.58333081  0.93637539  1
  O  O308  1  0.55893183  0.91676818  0.18730643  1
  O  O309  1  0.55675969  0.91676958  0.43634787  1
  O  O310  1  0.55540975  0.91634483  0.68641010  1
  O  O311  1  0.55780289  0.91669817  0.93812585  1
  O  O312  1  0.44483720  0.08339028  0.06338994  1
  O  O313  1  0.44404279  0.08330356  0.31401147  1
  O  O314  1  0.44081623  0.08350315  0.56215007  1
  O  O315  1  0.44387188  0.08344930  0.81295024  1
  O  O316  1  0.44194433  0.41645909  0.06288270  1
  O  O317  1  0.44191063  0.41665579  0.31255228  1
  O  O318  1  0.44333255  0.41608657  0.56388388  1
  O  O319  1  0.44063866  0.41644722  0.81205758  1
  O  O320  1  0.44117864  0.75020981  0.06177226  1
  O  O321  1  0.44397146  0.75030558  0.31269202  1
  O  O322  1  0.44300589  0.75045060  0.56393942  1
  O  O323  1  0.44120466  0.74994297  0.81251557  1
  O  O324  1  0.94007666  0.08213594  0.06227197  1
  O  O325  1  0.94087047  0.08267754  0.31281466  1
  O  O326  1  0.94175981  0.08307833  0.56227155  1
  O  O327  1  0.94347893  0.08293701  0.81402862  1
  O  O328  1  0.94296683  0.41681399  0.06332040  1
  O  O329  1  0.94014922  0.41662658  0.31272002  1
  O  O330  1  0.93993027  0.41634716  0.56322843  1
  O  O331  1  0.94061677  0.41683057  0.81183598  1
  O  O332  1  0.94465564  0.75133958  0.06282582  1
  O  O333  1  0.94337267  0.75037465  0.31404971  1
  O  O334  1  0.94114060  0.75027402  0.56258385  1
  O  O335  1  0.94383674  0.74984955  0.81334660  1
  O  O336  1  0.19363581  0.08314672  0.06255244  1
  O  O337  1  0.19068971  0.08405247  0.31283070  1
  O  O338  1  0.19108438  0.08330062  0.56161145  1
  O  O339  1  0.19334850  0.08347503  0.81135115  1
  O  O340  1  0.19413832  0.41680915  0.06200790  1
  O  O341  1  0.19338276  0.41627243  0.31181444  1
  O  O342  1  0.19026973  0.41660529  0.56222014  1
  O  O343  1  0.19402527  0.41677044  0.81110046  1
  O  O344  1  0.19240378  0.75018259  0.06316870  1
  O  O345  1  0.19289274  0.75017396  0.31123147  1
  O  O346  1  0.19400639  0.75034146  0.56147389  1
  O  O347  1  0.19547771  0.75028829  0.81180145  1
  O  O348  1  0.69106341  0.08323156  0.06270587  1
  O  O349  1  0.69115040  0.08270478  0.31255824  1
  O  O350  1  0.69397490  0.08268181  0.56130374  1
  O  O351  1  0.69081882  0.08266814  0.81296902  1
  O  O352  1  0.68953806  0.41641559  0.06245999  1
  O  O353  1  0.69410312  0.41643770  0.31090982  1
  O  O354  1  0.69462627  0.41670045  0.56172625  1
  O  O355  1  0.69121902  0.41706385  0.81335860  1
  O  O356  1  0.69269340  0.75042525  0.06081694  1
  O  O357  1  0.69402044  0.75056419  0.31172532  1
  O  O358  1  0.69438347  0.75029963  0.56225583  1
  O  O359  1  0.68961707  0.75016468  0.81321728  1
  O  O360  1  0.30961039  0.24951173  0.18747904  1
  O  O361  1  0.30675926  0.24911501  0.43807975  1
  O  O362  1  0.30553335  0.24983639  0.68797859  1
  O  O363  1  0.30723394  0.24963920  0.93904509  1
  O  O364  1  0.30669254  0.58320736  0.18908318  1
  O  O365  1  0.30916312  0.58357593  0.43719124  1
  O  O366  1  0.30677962  0.58326174  0.68852227  1
  O  O367  1  0.30915981  0.58332417  0.93675039  1
  O  O368  1  0.30943917  0.91759271  0.18757826  1
  O  O369  1  0.30881107  0.91750421  0.43703332  1
  O  O370  1  0.30828258  0.91700512  0.68784623  1
  O  O371  1  0.30964955  0.91751801  0.93793158  1
  O  O372  1  0.80888154  0.24955671  0.18707434  1
  O  O373  1  0.80787300  0.24898152  0.43708680  1
  O  O374  1  0.80547646  0.24998346  0.68847589  1
  O  O375  1  0.80596493  0.24952580  0.93862166  1
  O  O376  1  0.80696204  0.58374967  0.18816020  1
  O  O377  1  0.80788965  0.58353763  0.43752892  1
  O  O378  1  0.80595680  0.58317047  0.68946667  1
  O  O379  1  0.80825531  0.58406432  0.93706056  1
  O  O380  1  0.80830736  0.91631207  0.18708421  1
  O  O381  1  0.80669885  0.91718177  0.43916343  1
  O  O382  1  0.80970630  0.91699977  0.68745887  1
  O  O383  1  0.80637505  0.91648702  0.93867552  1
  O  O384  1  0.23479770  0.25030502  0.04133048  1
  O  O385  1  0.23483631  0.25019458  0.28827436  1
  O  O386  1  0.23328232  0.24931282  0.53928754  1
  O  O387  1  0.23158881  0.25034408  0.78930234  1
  O  O388  1  0.23407454  0.58314943  0.03737840  1
  O  O389  1  0.23434395  0.58315346  0.29128597  1
  O  O390  1  0.23460181  0.58358479  0.53797251  1
  O  O391  1  0.23487184  0.58346242  0.79107753  1
  O  O392  1  0.23451653  0.91633217  0.03822196  1
  O  O393  1  0.23356376  0.91710731  0.28718112  1
  O  O394  1  0.23381784  0.91718750  0.53746929  1
  O  O395  1  0.23401922  0.91710123  0.78860383  1
  O  O396  1  0.73367338  0.24914444  0.04073046  1
  O  O397  1  0.73553283  0.24965287  0.28830395  1
  O  O398  1  0.73354398  0.24973859  0.53816706  1
  O  O399  1  0.73167050  0.25013566  0.79003137  1
  O  O400  1  0.73380947  0.58377553  0.03770287  1
  O  O401  1  0.73460106  0.58361598  0.29043253  1
  O  O402  1  0.73324191  0.58310431  0.53845964  1
  O  O403  1  0.73215920  0.58281042  0.79058576  1
  O  O404  1  0.73238015  0.91708615  0.03968320  1
  O  O405  1  0.73336491  0.91713236  0.28779353  1
  O  O406  1  0.73471172  0.91678508  0.54176524  1
  O  O407  1  0.73438174  0.91695777  0.78753173  1
  O  O408  1  0.26521402  0.08274940  0.21213096  1
  O  O409  1  0.26581897  0.08296992  0.46086651  1
  O  O410  1  0.26530180  0.08314523  0.70905093  1
  O  O411  1  0.26675898  0.08335902  0.96053402  1
  O  O412  1  0.26828388  0.41700920  0.21113649  1
  O  O413  1  0.26507310  0.41595257  0.46198242  1
  O  O414  1  0.26737236  0.41689670  0.70957802  1
  O  O415  1  0.26833002  0.41663863  0.96099786  1
  O  O416  1  0.26561736  0.74983056  0.20945342  1
  O  O417  1  0.26639979  0.75155720  0.45929628  1
  O  O418  1  0.26883463  0.75030298  0.71016666  1
  O  O419  1  0.26730429  0.75066722  0.96257712  1
  O  O420  1  0.76616589  0.08309149  0.21249545  1
  O  O421  1  0.76783189  0.08294085  0.46007087  1
  O  O422  1  0.76504897  0.08419844  0.71195978  1
  O  O423  1  0.76585410  0.08259813  0.96208083  1
  O  O424  1  0.76775614  0.41651389  0.20975891  1
  O  O425  1  0.76813489  0.41644745  0.46033493  1
  O  O426  1  0.76631972  0.41707940  0.71244000  1
  O  O427  1  0.76393320  0.41621284  0.96210586  1
  O  O428  1  0.76640048  0.75039598  0.20939708  1
  O  O429  1  0.76846299  0.75057508  0.46107936  1
  O  O430  1  0.76484620  0.74885596  0.71297309  1
  O  O431  1  0.76513394  0.75083933  0.95876070  1
  O  O432  1  0.01373285  0.08273176  0.16349560  1
  O  O433  1  0.01592160  0.08339265  0.41328945  1
  O  O434  1  0.01730778  0.08267000  0.66233864  1
  O  O435  1  0.01576299  0.08340332  0.91613668  1
  O  O436  1  0.01528400  0.41669512  0.16573014  1
  O  O437  1  0.01357577  0.41594328  0.41419409  1
  O  O438  1  0.01561970  0.41645502  0.66312369  1
  O  O439  1  0.01495668  0.41674053  0.91284972  1
  O  O440  1  0.01844447  0.75029735  0.16434388  1
  O  O441  1  0.01547395  0.75022013  0.41633780  1
  O  O442  1  0.01567150  0.75026970  0.66346310  1
  O  O443  1  0.01713680  0.75002446  0.91481444  1
  O  O444  1  0.51827115  0.08337960  0.16497305  1
  O  O445  1  0.51760790  0.08260195  0.41533951  1
  O  O446  1  0.51509364  0.08257780  0.66300025  1
  O  O447  1  0.51812944  0.08340113  0.91404995  1
  O  O448  1  0.51648784  0.41620969  0.16394668  1
  O  O449  1  0.51594063  0.41675749  0.41368504  1
  O  O450  1  0.51628644  0.41685705  0.66527059  1
  O  O451  1  0.51624597  0.41654050  0.91187427  1
  O  O452  1  0.51505793  0.75071664  0.16302366  1
  O  O453  1  0.51626953  0.75085009  0.41529091  1
  O  O454  1  0.51529048  0.75062347  0.66606619  1
  O  O455  1  0.51563067  0.74994539  0.91333058  1
  O  O456  1  0.48257754  0.24970822  0.08528241  1
  O  O457  1  0.48566511  0.24914970  0.33772924  1
  O  O458  1  0.48552731  0.25006291  0.58611670  1
  O  O459  1  0.48430215  0.24979748  0.83373508  1
  O  O460  1  0.48329934  0.58253983  0.08488725  1
  O  O461  1  0.48333058  0.58371308  0.33760704  1
  O  O462  1  0.48540138  0.58325388  0.58657664  1
  O  O463  1  0.48216486  0.58351161  0.83495433  1
  O  O464  1  0.48393823  0.91733819  0.08691553  1
  O  O465  1  0.48293157  0.91727553  0.33510458  1
  O  O466  1  0.48111065  0.91661103  0.58560033  1
  O  O467  1  0.48280700  0.91640457  0.83765346  1
  O  O468  1  0.98072636  0.24986085  0.08579192  1
  O  O469  1  0.98090221  0.24934389  0.33568978  1
  O  O470  1  0.98443796  0.24977909  0.58712638  1
  O  O471  1  0.98396214  0.24966458  0.83404755  1
  O  O472  1  0.98494140  0.58359852  0.08399001  1
  O  O473  1  0.98077443  0.58331220  0.33579973  1
  O  O474  1  0.98333024  0.58263567  0.58575341  1
  O  O475  1  0.98336669  0.58326459  0.83721034  1
  O  O476  1  0.98397242  0.91694536  0.08670691  1
  O  O477  1  0.98523856  0.91672043  0.33676023  1
  O  O478  1  0.98473502  0.91713504  0.58677549  1
  O  O479  1  0.98586992  0.91650650  0.83679812  1
  O  O480  1  0.08450572  0.31529349  0.07721798  1
  O  O481  1  0.08481212  0.31400574  0.32678163  1
  O  O482  1  0.08751549  0.31552007  0.57809597  1
  O  O483  1  0.08780306  0.31508742  0.82671639  1
  O  O484  1  0.08884761  0.64919850  0.07729634  1
  O  O485  1  0.08483355  0.64807512  0.32757414  1
  O  O486  1  0.08727158  0.64722957  0.57754966  1
  O  O487  1  0.08699787  0.64827170  0.82707502  1
  O  O488  1  0.08824119  0.98085067  0.07720131  1
  O  O489  1  0.08823248  0.98333085  0.32775802  1
  O  O490  1  0.08844430  0.98238064  0.57744404  1
  O  O491  1  0.08945356  0.98170366  0.82736696  1
  O  O492  1  0.58613036  0.31508026  0.07789315  1
  O  O493  1  0.58915998  0.31381004  0.32791981  1
  O  O494  1  0.58934662  0.31512913  0.57682863  1
  O  O495  1  0.58819538  0.31500335  0.82713329  1
  O  O496  1  0.58696475  0.64740861  0.07743386  1
  O  O497  1  0.58679702  0.64887160  0.32774030  1
  O  O498  1  0.58900524  0.64848787  0.57729579  1
  O  O499  1  0.58619525  0.64851982  0.82715766  1
  O  O500  1  0.58764725  0.98286050  0.07772467  1
  O  O501  1  0.58701884  0.98271427  0.32725762  1
  O  O502  1  0.58525493  0.98105079  0.57678760  1
  O  O503  1  0.58640196  0.98158524  0.82796232  1
  O  O504  1  0.41431555  0.01841494  0.17270446  1
  O  O505  1  0.41336162  0.01715215  0.42272732  1
  O  O506  1  0.41138100  0.01754871  0.67159041  1
  O  O507  1  0.41449295  0.01796071  0.92259225  1
  O  O508  1  0.41308953  0.35014849  0.17251495  1
  O  O509  1  0.41224689  0.35220134  0.42241410  1
  O  O510  1  0.41256154  0.35130654  0.67346089  1
  O  O511  1  0.41220103  0.35241991  0.92249687  1
  O  O512  1  0.41147585  0.68603671  0.17167906  1
  O  O513  1  0.41265478  0.68556957  0.42202343  1
  O  O514  1  0.41130054  0.68611696  0.67326188  1
  O  O515  1  0.41191106  0.68465908  0.92231176  1
  O  O516  1  0.91045875  0.01695194  0.17226109  1
  O  O517  1  0.91217052  0.01875983  0.42318363  1
  O  O518  1  0.91392899  0.01704896  0.67222210  1
  O  O519  1  0.91196114  0.01807486  0.92342258  1
  O  O520  1  0.91132537  0.35120114  0.17222660  1
  O  O521  1  0.90981002  0.35109102  0.42227185  1
  O  O522  1  0.91173526  0.35141323  0.67336365  1
  O  O523  1  0.91098276  0.35259592  0.92161314  1
  O  O524  1  0.91406852  0.68651116  0.17186702  1
  O  O525  1  0.91174709  0.68428525  0.42292115  1
  O  O526  1  0.91170736  0.68620450  0.67255356  1
  O  O527  1  0.91355373  0.68404725  0.92247511  1
  O  O528  1  0.16143899  0.01780147  0.20347917  1
  O  O529  1  0.16214430  0.01727485  0.45210810  1
  O  O530  1  0.16156899  0.01791684  0.70231851  1
  O  O531  1  0.16344372  0.01744864  0.95344415  1
  O  O532  1  0.16455173  0.35175294  0.20181283  1
  O  O533  1  0.16135219  0.35141555  0.45223624  1
  O  O534  1  0.16331074  0.35119348  0.70188963  1
  O  O535  1  0.16415464  0.35221070  0.95267002  1
  O  O536  1  0.16123685  0.68587347  0.20203521  1
  O  O537  1  0.16281014  0.68614413  0.45202562  1
  O  O538  1  0.16469975  0.68586073  0.70242278  1
  O  O539  1  0.16402049  0.68509097  0.95291169  1
  O  O540  1  0.66258469  0.01730921  0.20249557  1
  O  O541  1  0.66356685  0.01846384  0.45173421  1
  O  O542  1  0.66168645  0.01899902  0.70247772  1
  O  O543  1  0.66223784  0.01700060  0.95288668  1
  O  O544  1  0.66357035  0.35177782  0.20140296  1
  O  O545  1  0.66445124  0.35144555  0.45228891  1
  O  O546  1  0.66297942  0.35180189  0.70332559  1
  O  O547  1  0.66014706  0.35145988  0.95259127  1
  O  O548  1  0.66240697  0.68591044  0.20257030  1
  O  O549  1  0.66492476  0.68464727  0.45269327  1
  O  O550  1  0.66141793  0.68359067  0.70396518  1
  O  O551  1  0.66051821  0.68684156  0.95144777  1
  O  O552  1  0.33871756  0.31601641  0.04752516  1
  O  O553  1  0.33839162  0.31578642  0.29691678  1
  O  O554  1  0.33747715  0.31324895  0.54765116  1
  O  O555  1  0.33542690  0.31583377  0.79703146  1
  O  O556  1  0.33742510  0.64844010  0.04684502  1
  O  O557  1  0.33868853  0.64739327  0.29822223  1
  O  O558  1  0.33817577  0.64863642  0.54687676  1
  O  O559  1  0.33890668  0.64833698  0.79756507  1
  O  O560  1  0.33818885  0.98143204  0.04852825  1
  O  O561  1  0.33749780  0.98173815  0.29818091  1
  O  O562  1  0.33688648  0.98355780  0.54707078  1
  O  O563  1  0.33816164  0.98119213  0.79806761  1
  O  O564  1  0.83795399  0.31340390  0.04795651  1
  O  O565  1  0.83922066  0.31473005  0.29666385  1
  O  O566  1  0.83730631  0.31433486  0.54679751  1
  O  O567  1  0.83512298  0.31603139  0.79766447  1
  O  O568  1  0.83723327  0.64911122  0.04696648  1
  O  O569  1  0.83908479  0.64742834  0.29761875  1
  O  O570  1  0.83671831  0.64847058  0.54759152  1
  O  O571  1  0.83660252  0.64707186  0.79921138  1
  O  O572  1  0.83639779  0.98227788  0.04802149  1
  O  O573  1  0.83694696  0.98238715  0.29686484  1
  O  O574  1  0.83855144  0.98243283  0.54803388  1
  O  O575  1  0.83787791  0.98193108  0.79753175  1
  O  O576  1  0.41443161  0.14851653  0.17278715  1
  O  O577  1  0.41335874  0.14708263  0.42392648  1
  O  O578  1  0.41189003  0.14776359  0.67246292  1
  O  O579  1  0.41424640  0.14806252  0.92242197  1
  O  O580  1  0.41222622  0.48021521  0.17306202  1
  O  O581  1  0.41253354  0.48251966  0.42206334  1
  O  O582  1  0.41201683  0.48121409  0.67300607  1
  O  O583  1  0.41294193  0.48253027  0.92222222  1
  O  O584  1  0.41170751  0.81635177  0.17109369  1
  O  O585  1  0.41242361  0.81593199  0.42121928  1
  O  O586  1  0.41143340  0.81623013  0.67284054  1
  O  O587  1  0.41171967  0.81484725  0.92246683  1
  O  O588  1  0.90965239  0.14713264  0.17195045  1
  O  O589  1  0.91215986  0.14876162  0.42269784  1
  O  O590  1  0.91351516  0.14713140  0.67266379  1
  O  O591  1  0.91136611  0.14798127  0.92283005  1
  O  O592  1  0.91115739  0.48125103  0.17245104  1
  O  O593  1  0.91002014  0.48141624  0.42257740  1
  O  O594  1  0.91171765  0.48135028  0.67340431  1
  O  O595  1  0.91169986  0.48277948  0.92156913  1
  O  O596  1  0.91507637  0.81663708  0.17247604  1
  O  O597  1  0.91129994  0.81441744  0.42332172  1
  O  O598  1  0.91263993  0.81655051  0.67209520  1
  O  O599  1  0.91314686  0.81420958  0.92281187  1
  O  O600  1  0.08471102  0.18521991  0.07728214  1
  O  O601  1  0.08470418  0.18390611  0.32716122  1
  O  O602  1  0.08805497  0.18499844  0.57814481  1
  O  O603  1  0.08821922  0.18515856  0.82714629  1
  O  O604  1  0.08907059  0.51900640  0.07657674  1
  O  O605  1  0.08440355  0.51800539  0.32700129  1
  O  O606  1  0.08671962  0.51681763  0.57776992  1
  O  O607  1  0.08688598  0.51815957  0.82726024  1
  O  O608  1  0.08763815  0.85092560  0.07749008  1
  O  O609  1  0.08968464  0.85329270  0.32747362  1
  O  O610  1  0.08856304  0.85235242  0.57696986  1
  O  O611  1  0.08980110  0.85177560  0.82697941  1
  O  O612  1  0.58657837  0.18491432  0.07815589  1
  O  O613  1  0.58898577  0.18354519  0.32897513  1
  O  O614  1  0.58947573  0.18519825  0.57722288  1
  O  O615  1  0.58834613  0.18479485  0.82724628  1
  O  O616  1  0.58693089  0.51714354  0.07806802  1
  O  O617  1  0.58686617  0.51867408  0.32754175  1
  O  O618  1  0.58929830  0.51850561  0.57697621  1
  O  O619  1  0.58625422  0.51845618  0.82685462  1
  O  O620  1  0.58778436  0.85281931  0.07680288  1
  O  O621  1  0.58715383  0.85275111  0.32647752  1
  O  O622  1  0.58478039  0.85123835  0.57679090  1
  O  O623  1  0.58629100  0.85135500  0.82813000  1
  O  O624  1  0.33906130  0.18593257  0.04865393  1
  O  O625  1  0.33848141  0.18552318  0.29757526  1
  O  O626  1  0.33656817  0.18309473  0.54718736  1
  O  O627  1  0.33543287  0.18574619  0.79783971  1
  O  O628  1  0.33776780  0.51818840  0.04661839  1
  O  O629  1  0.33825350  0.51733234  0.29790122  1
  O  O630  1  0.33813643  0.51850983  0.54711241  1
  O  O631  1  0.33875870  0.51817090  0.79749183  1
  O  O632  1  0.33850266  0.85141314  0.04750873  1
  O  O633  1  0.33716218  0.85187126  0.29760205  1
  O  O634  1  0.33815631  0.85362755  0.54744285  1
  O  O635  1  0.33756982  0.85115445  0.79765372  1
  O  O636  1  0.83730962  0.18329576  0.04736511  1
  O  O637  1  0.83911646  0.18445775  0.29696318  1
  O  O638  1  0.83687949  0.18404094  0.54716618  1
  O  O639  1  0.83580590  0.18592665  0.79794527  1
  O  O640  1  0.83746717  0.51893977  0.04670315  1
  O  O641  1  0.83785787  0.51726099  0.29697559  1
  O  O642  1  0.83680558  0.51816167  0.54732912  1
  O  O643  1  0.83612197  0.51716536  0.79857559  1
  O  O644  1  0.83656490  0.85240922  0.04857658  1
  O  O645  1  0.83718219  0.85241485  0.29727913  1
  O  O646  1  0.83905704  0.85224071  0.54810396  1
  O  O647  1  0.83775115  0.85176982  0.79755401  1
  O  O648  1  0.16172758  0.14799193  0.20254106  1
  O  O649  1  0.16162078  0.14721160  0.45127760  1
  O  O650  1  0.16122238  0.14808576  0.70206523  1
  O  O651  1  0.16271312  0.14779500  0.95356053  1
  O  O652  1  0.16442947  0.48190985  0.20254668  1
  O  O653  1  0.16176900  0.48157047  0.45209692  1
  O  O654  1  0.16301176  0.48120215  0.70161703  1
  O  O655  1  0.16473074  0.48232697  0.95226099  1
  O  O656  1  0.16220943  0.81606676  0.20201487  1
  O  O657  1  0.16245860  0.81631908  0.45285034  1
  O  O658  1  0.16512569  0.81596207  0.70261470  1
  O  O659  1  0.16362005  0.81536678  0.95335455  1
  O  O660  1  0.66221535  0.14725412  0.20219520  1
  O  O661  1  0.66396456  0.14849087  0.45195432  1
  O  O662  1  0.66135311  0.14920014  0.70381864  1
  O  O663  1  0.66178045  0.14698969  0.95247272  1
  O  O664  1  0.66370903  0.48174970  0.20168887  1
  O  O665  1  0.66435573  0.48167423  0.45222592  1
  O  O666  1  0.66277405  0.48207724  0.70342226  1
  O  O667  1  0.66027197  0.48140822  0.95225625  1
  O  O668  1  0.66269055  0.81608888  0.20289452  1
  O  O669  1  0.66441988  0.81483682  0.45278392  1
  O  O670  1  0.66163525  0.81401989  0.70258539  1
  O  O671  1  0.66149925  0.81689120  0.95217544  1
