# generated using pymatgen
data_Na2MnFe(PO4)2
_symmetry_space_group_name_H-M   'P 1'
_cell_length_a   21.09076709
_cell_length_b   18.94416178
_cell_length_c   20.04943252
_cell_angle_alpha   89.99973580
_cell_angle_beta   89.99915117
_cell_angle_gamma   89.99770316
_symmetry_Int_Tables_number   1
_chemical_formula_structural   Na2MnFe(PO4)2
_chemical_formula_sum   'Na96 Mn48 Fe48 P96 O384'
_cell_volume   8010.68867526
_cell_formula_units_Z   48
loop_
 _symmetry_equiv_pos_site_id
 _symmetry_equiv_pos_as_xyz
  1  'x, y, z'
loop_
 _atom_site_type_symbol
 _atom_site_label
 _atom_site_symmetry_multiplicity
 _atom_site_fract_x
 _atom_site_fract_y
 _atom_site_fract_z
 _atom_site_occupancy
  Na  Na0  1  0.00110142  0.00016379  -0.00003341  1
  Na  Na1  1  -0.00139904  -0.00057066  0.25095753  1
  Na  Na2  1  -0.00197736  -0.00083024  0.49956370  1
  Na  Na3  1  0.00053003  0.00008695  0.74922883  1
  Na  Na4  1  0.00122463  0.33458939  -0.00056946  1
  Na  Na5  1  -0.00081587  0.33398627  0.24969926  1
  Na  Na6  1  -0.00189561  0.33352886  0.49929226  1
  Na  Na7  1  -0.00176597  0.33291980  0.75048885  1
  Na  Na8  1  -0.00118808  0.66680142  -0.00039977  1
  Na  Na9  1  -0.00148685  0.66684086  0.24924510  1
  Na  Na10  1  -0.00293621  0.66605049  0.50055506  1
  Na  Na11  1  -0.00175154  0.66682665  0.74999204  1
  Na  Na12  1  0.50168174  0.00026859  0.00026924  1
  Na  Na13  1  0.50172428  0.00031079  0.25002588  1
  Na  Na14  1  0.50117444  0.00021473  0.49922416  1
  Na  Na15  1  0.49874142  -0.00168266  0.75073963  1
  Na  Na16  1  0.50133563  0.33336309  0.00067574  1
  Na  Na17  1  0.50300993  0.33424857  0.24945212  1
  Na  Na18  1  0.50172191  0.33345792  0.50053714  1
  Na  Na19  1  0.50185820  0.33368420  0.75028608  1
  Na  Na20  1  0.50166506  0.66666859  0.00024505  1
  Na  Na21  1  0.50064603  0.66655893  0.24960862  1
  Na  Na22  1  0.49851889  0.66637621  0.50107647  1
  Na  Na23  1  0.49989310  0.66641983  0.74971742  1
  Na  Na24  1  0.25090039  0.00013260  0.12489780  1
  Na  Na25  1  0.24876622  -0.00114823  0.37468508  1
  Na  Na26  1  0.24918853  -0.00075657  0.62552134  1
  Na  Na27  1  0.24902324  -0.00061501  0.87438569  1
  Na  Na28  1  0.25031848  0.33394040  0.12608362  1
  Na  Na29  1  0.24829251  0.33283373  0.37348731  1
  Na  Na30  1  0.24989428  0.33410724  0.62508085  1
  Na  Na31  1  0.24987291  0.33391387  0.87558381  1
  Na  Na32  1  0.25074059  0.66660814  0.12546462  1
  Na  Na33  1  0.25083278  0.66703038  0.37503275  1
  Na  Na34  1  0.25176785  0.66754842  0.62491939  1
  Na  Na35  1  0.25104527  0.66692282  0.87546342  1
  Na  Na36  1  0.74867781  -0.00024071  0.12518520  1
  Na  Na37  1  0.75119548  0.00002904  0.37536464  1
  Na  Na38  1  0.75415447  0.00132621  0.62411248  1
  Na  Na39  1  0.74913793  -0.00086513  0.87498897  1
  Na  Na40  1  0.74766810  0.33337779  0.12532430  1
  Na  Na41  1  0.74915885  0.33285145  0.37482469  1
  Na  Na42  1  0.75126220  0.33377865  0.62492386  1
  Na  Na43  1  0.74733428  0.33295244  0.87491724  1
  Na  Na44  1  0.74981764  0.66663337  0.12541400  1
  Na  Na45  1  0.75149632  0.66677141  0.37548205  1
  Na  Na46  1  0.75089369  0.66723349  0.62457246  1
  Na  Na47  1  0.74906337  0.66652518  0.87386058  1
  Na  Na48  1  0.00120740  0.16588117  -0.00034001  1
  Na  Na49  1  -0.00322337  0.16739157  0.25027320  1
  Na  Na50  1  -0.00433216  0.16729582  0.49922251  1
  Na  Na51  1  -0.00081359  0.16609220  0.74985025  1
  Na  Na52  1  -0.00002112  0.49931790  -0.00080815  1
  Na  Na53  1  -0.00207056  0.50050279  0.25025218  1
  Na  Na54  1  -0.00168559  0.49997827  0.49958113  1
  Na  Na55  1  -0.00059592  0.49987125  0.75067412  1
  Na  Na56  1  0.00045146  0.83294314  0.00019626  1
  Na  Na57  1  0.00061371  0.83298968  0.24921872  1
  Na  Na58  1  -0.00077869  0.83389632  0.50065793  1
  Na  Na59  1  -0.00046465  0.83305814  0.74962225  1
  Na  Na60  1  0.50101731  0.16701826  0.00040933  1
  Na  Na61  1  0.50111591  0.16662698  0.25018415  1
  Na  Na62  1  0.50125102  0.16645690  0.50012287  1
  Na  Na63  1  0.50082706  0.16696804  0.75022621  1
  Na  Na64  1  0.50205320  0.50004175  0.00079434  1
  Na  Na65  1  0.50231861  0.49959458  0.24877041  1
  Na  Na66  1  0.50109770  0.50063862  0.50095312  1
  Na  Na67  1  0.50099648  0.50031347  0.75041431  1
  Na  Na68  1  0.50066784  0.83364763  -0.00013933  1
  Na  Na69  1  0.50114294  0.83346835  0.25024780  1
  Na  Na70  1  0.49839184  0.83348108  0.49962465  1
  Na  Na71  1  0.50064671  0.83224056  0.75034340  1
  Na  Na72  1  0.25234388  0.16611610  0.12518150  1
  Na  Na73  1  0.25101728  0.16611618  0.37459572  1
  Na  Na74  1  0.25009208  0.16605657  0.62543630  1
  Na  Na75  1  0.24951565  0.16719963  0.87530559  1
  Na  Na76  1  0.24988019  0.49942705  0.12507960  1
  Na  Na77  1  0.24881045  0.50012591  0.37464699  1
  Na  Na78  1  0.25010962  0.50022051  0.62456568  1
  Na  Na79  1  0.25117643  0.49944908  0.87575971  1
  Na  Na80  1  0.25031431  0.83322909  0.12599162  1
  Na  Na81  1  0.24878868  0.83388357  0.37386361  1
  Na  Na82  1  0.25032598  0.83272103  0.62548190  1
  Na  Na83  1  0.24845719  0.83393183  0.87475552  1
  Na  Na84  1  0.74771144  0.16709000  0.12549632  1
  Na  Na85  1  0.75158689  0.16591230  0.37485102  1
  Na  Na86  1  0.75168118  0.16665742  0.62411344  1
  Na  Na87  1  0.74864883  0.16681340  0.87521428  1
  Na  Na88  1  0.74832444  0.50048071  0.12529474  1
  Na  Na89  1  0.75072100  0.50017587  0.37461973  1
  Na  Na90  1  0.75106395  0.50007281  0.62479306  1
  Na  Na91  1  0.74768559  0.50107438  0.87513233  1
  Na  Na92  1  0.74915868  0.83356081  0.12528376  1
  Na  Na93  1  0.75085172  0.83334348  0.37588489  1
  Na  Na94  1  0.75204320  0.83282235  0.62507188  1
  Na  Na95  1  0.74943209  0.83302792  0.87329297  1
  Mn  Mn96  1  0.14163849  0.24898294  0.24772200  1
  Mn  Mn97  1  0.35782430  0.41666583  0.50124420  1
  Mn  Mn98  1  0.35831069  0.08381388  0.00243403  1
  Mn  Mn99  1  0.39314376  0.25086917  0.87744805  1
  Mn  Mn100  1  0.85769495  0.75033950  0.25286947  1
  Mn  Mn101  1  0.64330924  0.91678855  0.49855820  1
  Mn  Mn102  1  0.35743758  0.08307866  0.75232717  1
  Mn  Mn103  1  0.60839849  0.08334278  0.87194104  1
  Mn  Mn104  1  0.60848477  0.08190277  0.62309291  1
  Mn  Mn105  1  0.10715455  0.74941007  0.62276030  1
  Mn  Mn106  1  0.10655133  0.41647612  0.62279591  1
  Mn  Mn107  1  0.10648311  0.08384517  0.62220298  1
  Mn  Mn108  1  0.39333012  0.25098393  0.37733289  1
  Mn  Mn109  1  0.85807044  0.41669613  0.50216981  1
  Mn  Mn110  1  0.35815866  0.08257834  0.50195986  1
  Mn  Mn111  1  0.14216027  0.58319352  0.99800335  1
  Mn  Mn112  1  0.64280219  0.91697491  0.74643785  1
  Mn  Mn113  1  0.35838073  0.74980086  0.00191129  1
  Mn  Mn114  1  0.39237610  0.24958060  0.62717926  1
  Mn  Mn115  1  0.10718234  0.74885002  0.12249696  1
  Mn  Mn116  1  0.60868423  0.75049666  0.12244426  1
  Mn  Mn117  1  0.39239980  0.58359630  0.62752720  1
  Mn  Mn118  1  0.85647220  0.41703535  0.00222675  1
  Mn  Mn119  1  0.14117211  0.58353641  0.24795754  1
  Mn  Mn120  1  0.14241460  0.91663846  0.99820996  1
  Mn  Mn121  1  0.10770615  0.08425457  0.12353759  1
  Mn  Mn122  1  0.89269131  0.91671176  0.87710817  1
  Mn  Mn123  1  0.14259761  0.58392836  0.74807469  1
  Mn  Mn124  1  0.89103602  0.25062028  0.12662958  1
  Mn  Mn125  1  0.35834318  0.41641966  0.25257483  1
  Mn  Mn126  1  0.60799965  0.74976078  0.37357584  1
  Mn  Mn127  1  0.89160941  0.58334597  0.87738943  1
  Mn  Mn128  1  0.35835568  0.41707404  0.75284480  1
  Mn  Mn129  1  0.89122931  0.91656182  0.12703499  1
  Mn  Mn130  1  0.14083450  0.24938228  0.49753253  1
  Mn  Mn131  1  0.10652859  0.08344897  0.37250211  1
  Mn  Mn132  1  0.64325734  0.24968240  0.49773649  1
  Mn  Mn133  1  0.89192381  0.24987481  0.87779464  1
  Mn  Mn134  1  0.14285186  0.24999689  0.99853217  1
  Mn  Mn135  1  0.85712370  0.08296438  0.00236320  1
  Mn  Mn136  1  0.60877413  0.41708208  0.62288668  1
  Mn  Mn137  1  0.39343190  0.58326262  0.12748769  1
  Mn  Mn138  1  0.14153055  0.24998714  0.74746255  1
  Mn  Mn139  1  0.64296199  0.58380057  0.49741878  1
  Mn  Mn140  1  0.35783433  0.75028811  0.25240736  1
  Mn  Mn141  1  0.14143746  0.58398257  0.49760922  1
  Mn  Mn142  1  0.39258673  0.91613672  0.87759091  1
  Mn  Mn143  1  0.39246772  0.91625942  0.37742805  1
  Fe  Fe144  1  0.64179114  0.24987494  0.99795185  1
  Fe  Fe145  1  0.89136587  0.58283334  0.12620071  1
  Fe  Fe146  1  0.64377896  0.24992251  0.74796832  1
  Fe  Fe147  1  0.39366554  0.91756145  0.12686168  1
  Fe  Fe148  1  0.64285114  0.58407985  0.99777493  1
  Fe  Fe149  1  0.10642695  0.41688752  0.12358186  1
  Fe  Fe150  1  0.60732957  0.41748064  0.87305198  1
  Fe  Fe151  1  0.39205897  0.91649299  0.62639404  1
  Fe  Fe152  1  0.64296299  0.91661001  0.24891647  1
  Fe  Fe153  1  0.14241097  0.91716959  0.24842944  1
  Fe  Fe154  1  0.14274737  0.91613454  0.74810187  1
  Fe  Fe155  1  0.39406189  0.58298370  0.87697588  1
  Fe  Fe156  1  0.60700564  0.75054142  0.62317216  1
  Fe  Fe157  1  0.85653444  0.41676498  0.75221464  1
  Fe  Fe158  1  0.89221258  0.58380057  0.37634406  1
  Fe  Fe159  1  0.35761210  0.75001760  0.75223938  1
  Fe  Fe160  1  0.64243497  0.91596701  0.99815582  1
  Fe  Fe161  1  0.85822628  0.75059135  0.50212031  1
  Fe  Fe162  1  0.64297146  0.24975589  0.24873557  1
  Fe  Fe163  1  0.10768102  0.08311521  0.87288715  1
  Fe  Fe164  1  0.39420663  0.24965902  0.12693892  1
  Fe  Fe165  1  0.60743489  0.08329587  0.12382608  1
  Fe  Fe166  1  0.10660783  0.74953996  0.37419533  1
  Fe  Fe167  1  0.85628117  0.08358827  0.25114445  1
  Fe  Fe168  1  0.60831355  0.41698680  0.37296680  1
  Fe  Fe169  1  0.89323938  0.91646229  0.62742208  1
  Fe  Fe170  1  0.35683599  0.75032763  0.50149295  1
  Fe  Fe171  1  0.14210681  0.91641939  0.49837969  1
  Fe  Fe172  1  0.35841056  0.08308164  0.25167466  1
  Fe  Fe173  1  0.85658019  0.75005596  0.00050756  1
  Fe  Fe174  1  0.39318663  0.58272615  0.37611730  1
  Fe  Fe175  1  0.85656230  0.75002665  0.75207419  1
  Fe  Fe176  1  0.89141676  0.25044380  0.37590579  1
  Fe  Fe177  1  0.35797163  0.41663032  0.00202135  1
  Fe  Fe178  1  0.60795996  0.41620717  0.12293739  1
  Fe  Fe179  1  0.85745394  0.08280790  0.50149703  1
  Fe  Fe180  1  0.64311268  0.58345643  0.74821266  1
  Fe  Fe181  1  0.60793254  0.74925559  0.87261819  1
  Fe  Fe182  1  0.10602250  0.41708628  0.37331956  1
  Fe  Fe183  1  0.10776771  0.41682395  0.87303458  1
  Fe  Fe184  1  0.85635711  0.41619345  0.25106318  1
  Fe  Fe185  1  0.85759195  0.08343391  0.75233151  1
  Fe  Fe186  1  0.89172363  0.25022111  0.62788692  1
  Fe  Fe187  1  0.10718703  0.74982195  0.87290645  1
  Fe  Fe188  1  0.89257009  0.91614276  0.37660929  1
  Fe  Fe189  1  0.89194283  0.58310963  0.62769942  1
  Fe  Fe190  1  0.60868872  0.08354265  0.37260976  1
  Fe  Fe191  1  0.64307247  0.58355664  0.24895615  1
  P  P192  1  0.05247975  0.25105073  0.11004613  1
  P  P193  1  0.05101945  0.25039873  0.35986352  1
  P  P194  1  0.05048620  0.25000695  0.60970502  1
  P  P195  1  0.05359195  0.25005070  0.86019213  1
  P  P196  1  0.05120776  0.58214970  0.10987011  1
  P  P197  1  0.05135194  0.58395260  0.36030767  1
  P  P198  1  0.05126250  0.58328981  0.61029506  1
  P  P199  1  0.05330675  0.58369819  0.86009275  1
  P  P200  1  0.05400370  0.91699401  0.11122457  1
  P  P201  1  0.05356208  0.91559986  0.36093580  1
  P  P202  1  0.05368593  0.91644552  0.61057013  1
  P  P203  1  0.05445160  0.91626827  0.85937206  1
  P  P204  1  0.55518284  0.24951516  0.11134016  1
  P  P205  1  0.55507518  0.25014547  0.35958429  1
  P  P206  1  0.55537974  0.24950713  0.61112189  1
  P  P207  1  0.55586238  0.25125701  0.86046417  1
  P  P208  1  0.55639525  0.58297534  0.11067350  1
  P  P209  1  0.55325626  0.58307016  0.35960190  1
  P  P210  1  0.55537080  0.58471295  0.61143998  1
  P  P211  1  0.55500624  0.58344372  0.86071182  1
  P  P212  1  0.55459876  0.91760512  0.11101104  1
  P  P213  1  0.55469057  0.91703384  0.35983789  1
  P  P214  1  0.55203554  0.91533790  0.60983528  1
  P  P215  1  0.55528521  0.91535130  0.86082148  1
  P  P216  1  0.44777708  0.08348256  0.14039196  1
  P  P217  1  0.44784383  0.08349096  0.38874631  1
  P  P218  1  0.44697941  0.08202893  0.64017869  1
  P  P219  1  0.44731729  0.08345580  0.89022990  1
  P  P220  1  0.44745753  0.41583756  0.13876013  1
  P  P221  1  0.44912735  0.41767052  0.38979059  1
  P  P222  1  0.44721930  0.41674411  0.64026635  1
  P  P223  1  0.44797405  0.41781747  0.89091185  1
  P  P224  1  0.44726028  0.75096234  0.13997254  1
  P  P225  1  0.44612536  0.74870703  0.39051913  1
  P  P226  1  0.44545656  0.75106791  0.63951517  1
  P  P227  1  0.44753239  0.74872717  0.88887286  1
  P  P228  1  0.94545707  0.08335757  0.14072141  1
  P  P229  1  0.94353343  0.08299471  0.38856470  1
  P  P230  1  0.94405061  0.08311450  0.63920876  1
  P  P231  1  0.94683900  0.08299894  0.88910609  1
  P  P232  1  0.94590468  0.41750700  0.14009749  1
  P  P233  1  0.94522766  0.41684119  0.38797215  1
  P  P234  1  0.94503032  0.41682152  0.64090292  1
  P  P235  1  0.94608494  0.41667816  0.88903271  1
  P  P236  1  0.94425408  0.74906912  0.13830958  1
  P  P237  1  0.94680923  0.75040013  0.39027273  1
  P  P238  1  0.94437089  0.75003756  0.63964590  1
  P  P239  1  0.94584252  0.75025265  0.88936544  1
  P  P240  1  0.19786792  0.08253284  0.23512126  1
  P  P241  1  0.19621647  0.08220463  0.48477342  1
  P  P242  1  0.19482290  0.08242445  0.73579923  1
  P  P243  1  0.19644352  0.08345052  0.98450622  1
  P  P244  1  0.19418448  0.41671785  0.23549259  1
  P  P245  1  0.19527000  0.41668152  0.48386064  1
  P  P246  1  0.19565197  0.41732459  0.73576266  1
  P  P247  1  0.19620172  0.41663083  0.98599719  1
  P  P248  1  0.19464723  0.75057101  0.23641988  1
  P  P249  1  0.19675828  0.75086798  0.48456060  1
  P  P250  1  0.19660757  0.75033697  0.73602086  1
  P  P251  1  0.19617515  0.74974095  0.98444535  1
  P  P252  1  0.69589924  0.08314354  0.23607446  1
  P  P253  1  0.69787283  0.08299153  0.48449375  1
  P  P254  1  0.69866888  0.08379959  0.73446231  1
  P  P255  1  0.69487488  0.08293634  0.98634119  1
  P  P256  1  0.69565982  0.41677348  0.23600830  1
  P  P257  1  0.69674106  0.41701877  0.48415238  1
  P  P258  1  0.69671477  0.41697425  0.73632627  1
  P  P259  1  0.69424562  0.41699742  0.98567381  1
  P  P260  1  0.69669035  0.75009576  0.23579660  1
  P  P261  1  0.69765128  0.75049410  0.48647879  1
  P  P262  1  0.69585936  0.74927427  0.73490860  1
  P  P263  1  0.69711213  0.74997001  0.98415914  1
  P  P264  1  0.30492592  0.25138710  0.01609065  1
  P  P265  1  0.30523682  0.24903782  0.26379775  1
  P  P266  1  0.30280396  0.25007614  0.51483924  1
  P  P267  1  0.30316198  0.25014141  0.76553679  1
  P  P268  1  0.30512631  0.58240063  0.01423466  1
  P  P269  1  0.30391003  0.58298287  0.26567809  1
  P  P270  1  0.30444839  0.58391227  0.51348695  1
  P  P271  1  0.30465128  0.58431908  0.76611627  1
  P  P272  1  0.30440174  0.91645056  0.01593075  1
  P  P273  1  0.30407535  0.91773160  0.26372804  1
  P  P274  1  0.30246067  0.91563809  0.51524033  1
  P  P275  1  0.30369633  0.91555369  0.76400689  1
  P  P276  1  0.80078071  0.25017822  0.01486085  1
  P  P277  1  0.80229261  0.25029878  0.26467926  1
  P  P278  1  0.80558404  0.24942792  0.51414513  1
  P  P279  1  0.80357501  0.25002350  0.76430316  1
  P  P280  1  0.80200217  0.58419885  0.01505326  1
  P  P281  1  0.80371841  0.58232224  0.26411156  1
  P  P282  1  0.80579061  0.58421765  0.51440316  1
  P  P283  1  0.80330146  0.58350602  0.76379616  1
  P  P284  1  0.80168699  0.91558851  0.01436388  1
  P  P285  1  0.80258545  0.91742958  0.26552980  1
  P  P286  1  0.80609592  0.91648365  0.51436589  1
  P  P287  1  0.80494564  0.91668225  0.76358732  1
  O  O288  1  0.05532803  0.24994611  0.18679863  1
  O  O289  1  0.05452323  0.24956786  0.43653260  1
  O  O290  1  0.05504080  0.24964893  0.68634079  1
  O  O291  1  0.05686484  0.25015916  0.93692393  1
  O  O292  1  0.05483880  0.58315168  0.18653258  1
  O  O293  1  0.05483614  0.58379861  0.43696445  1
  O  O294  1  0.05580495  0.58376094  0.68689452  1
  O  O295  1  0.05630872  0.58365371  0.93682662  1
  O  O296  1  0.05830725  0.91721924  0.18798574  1
  O  O297  1  0.05803866  0.91650694  0.43764975  1
  O  O298  1  0.05883613  0.91612788  0.68717902  1
  O  O299  1  0.05693436  0.91631750  0.93619847  1
  O  O300  1  0.55980488  0.24977382  0.18801998  1
  O  O301  1  0.55770969  0.24975784  0.43639123  1
  O  O302  1  0.56011652  0.24960711  0.68788285  1
  O  O303  1  0.55935894  0.25007443  0.93734622  1
  O  O304  1  0.56051169  0.58374669  0.18741117  1
  O  O305  1  0.55673322  0.58392001  0.43636062  1
  O  O306  1  0.55966877  0.58382283  0.68817064  1
  O  O307  1  0.55928307  0.58405315  0.93744223  1
  O  O308  1  0.55944101  0.91657219  0.18766327  1
  O  O309  1  0.55791690  0.91645941  0.43657743  1
  O  O310  1  0.55612168  0.91597392  0.68653024  1
  O  O311  1  0.55939172  0.91591833  0.93760362  1
  O  O312  1  0.44436518  0.08334583  0.06369964  1
  O  O313  1  0.44269952  0.08312069  0.31214399  1
  O  O314  1  0.44421546  0.08277021  0.56333935  1
  O  O315  1  0.44359835  0.08325965  0.81349197  1
  O  O316  1  0.44261444  0.41654299  0.06219459  1
  O  O317  1  0.44535069  0.41698956  0.31309844  1
  O  O318  1  0.44371699  0.41679497  0.56352838  1
  O  O319  1  0.44434486  0.41710409  0.81419315  1
  O  O320  1  0.44434175  0.75033398  0.06321179  1
  O  O321  1  0.44339837  0.74986645  0.31374477  1
  O  O322  1  0.44061868  0.75051808  0.56284820  1
  O  O323  1  0.44254565  0.74958475  0.81225877  1
  O  O324  1  0.94269145  0.08309283  0.06386269  1
  O  O325  1  0.93942664  0.08307525  0.31180008  1
  O  O326  1  0.94058912  0.08293723  0.56239000  1
  O  O327  1  0.94145916  0.08312173  0.81246639  1
  O  O328  1  0.94240042  0.41670406  0.06335767  1
  O  O329  1  0.94049289  0.41654546  0.31133038  1
  O  O330  1  0.94288052  0.41683608  0.56414220  1
  O  O331  1  0.94024427  0.41672106  0.81246695  1
  O  O332  1  0.93992055  0.75003252  0.06159087  1
  O  O333  1  0.94355454  0.75071700  0.31348812  1
  O  O334  1  0.94106021  0.75030281  0.56284236  1
  O  O335  1  0.94058439  0.75005971  0.81271401  1
  O  O336  1  0.19334365  0.08357244  0.06128096  1
  O  O337  1  0.19326870  0.08329861  0.31175676  1
  O  O338  1  0.19270203  0.08314078  0.56152759  1
  O  O339  1  0.19086381  0.08338250  0.81256222  1
  O  O340  1  0.19084957  0.41693177  0.06263506  1
  O  O341  1  0.18884716  0.41689280  0.31220291  1
  O  O342  1  0.19217095  0.41694168  0.56069456  1
  O  O343  1  0.19101018  0.41718846  0.81254647  1
  O  O344  1  0.19289774  0.74932891  0.06126974  1
  O  O345  1  0.19015709  0.74958012  0.31310478  1
  O  O346  1  0.19309653  0.74974585  0.56129433  1
  O  O347  1  0.19156057  0.74963653  0.81262309  1
  O  O348  1  0.69119649  0.08310173  0.06311551  1
  O  O349  1  0.69221072  0.08317203  0.31282133  1
  O  O350  1  0.69408364  0.08292360  0.56117473  1
  O  O351  1  0.69438203  0.08288052  0.81113890  1
  O  O352  1  0.69089685  0.41670287  0.06254767  1
  O  O353  1  0.69182115  0.41704945  0.31274016  1
  O  O354  1  0.69385495  0.41715377  0.56097656  1
  O  O355  1  0.69212546  0.41735481  0.81296727  1
  O  O356  1  0.69405869  0.75016683  0.06089445  1
  O  O357  1  0.69405465  0.74982876  0.31253752  1
  O  O358  1  0.69233237  0.75064768  0.56303200  1
  O  O359  1  0.69117182  0.74963327  0.81160869  1
  O  O360  1  0.31022945  0.25001762  0.18713079  1
  O  O361  1  0.30655759  0.25035004  0.43803888  1
  O  O362  1  0.30649328  0.25019151  0.68875889  1
  O  O363  1  0.30767358  0.25088706  0.93929557  1
  O  O364  1  0.30762254  0.58271455  0.18888266  1
  O  O365  1  0.30884759  0.58276104  0.43683047  1
  O  O366  1  0.30728100  0.58349176  0.68925842  1
  O  O367  1  0.30966034  0.58294943  0.93756639  1
  O  O368  1  0.30948896  0.91719336  0.18713765  1
  O  O369  1  0.30638180  0.91634561  0.43851837  1
  O  O370  1  0.30829448  0.91609048  0.68737421  1
  O  O371  1  0.30728455  0.91646534  0.93909408  1
  O  O372  1  0.80530611  0.25053382  0.18798643  1
  O  O373  1  0.80909855  0.25047421  0.43731956  1
  O  O374  1  0.80786053  0.25024599  0.68755817  1
  O  O375  1  0.80506504  0.25020495  0.93819316  1
  O  O376  1  0.80779899  0.58291803  0.18743546  1
  O  O377  1  0.80976494  0.58364823  0.43754216  1
  O  O378  1  0.80768096  0.58329812  0.68712621  1
  O  O379  1  0.80566641  0.58333995  0.93832006  1
  O  O380  1  0.80576057  0.91667940  0.18881200  1
  O  O381  1  0.80941008  0.91590316  0.43757319  1
  O  O382  1  0.80898056  0.91673799  0.68686659  1
  O  O383  1  0.80570833  0.91616909  0.93771008  1
  O  O384  1  0.23524657  0.25045426  0.04130245  1
  O  O385  1  0.23500961  0.24937779  0.28744313  1
  O  O386  1  0.23305700  0.24999705  0.53977560  1
  O  O387  1  0.23347898  0.25032376  0.79048273  1
  O  O388  1  0.23511863  0.58298567  0.03856425  1
  O  O389  1  0.23392945  0.58327961  0.28984499  1
  O  O390  1  0.23445752  0.58390578  0.53797816  1
  O  O391  1  0.23500788  0.58350885  0.79129242  1
  O  O392  1  0.23466442  0.91630144  0.04081618  1
  O  O393  1  0.23365227  0.91715343  0.28717351  1
  O  O394  1  0.23236069  0.91603626  0.53966589  1
  O  O395  1  0.23343587  0.91618005  0.78787138  1
  O  O396  1  0.73070589  0.25032968  0.03910877  1
  O  O397  1  0.73223914  0.24974280  0.28947680  1
  O  O398  1  0.73564409  0.25023933  0.53859428  1
  O  O399  1  0.73332615  0.24983604  0.78837157  1
  O  O400  1  0.73187141  0.58377143  0.03930845  1
  O  O401  1  0.73343917  0.58314359  0.28827556  1
  O  O402  1  0.73575639  0.58358921  0.53847708  1
  O  O403  1  0.73303480  0.58376409  0.78779331  1
  O  O404  1  0.73166932  0.91604322  0.03898721  1
  O  O405  1  0.73260434  0.91674915  0.29031759  1
  O  O406  1  0.73622359  0.91696303  0.53925634  1
  O  O407  1  0.73495680  0.91621534  0.78779523  1
  O  O408  1  0.26794730  0.08289446  0.21085256  1
  O  O409  1  0.26595063  0.08220719  0.45978112  1
  O  O410  1  0.26477708  0.08256021  0.71147275  1
  O  O411  1  0.26621766  0.08332831  0.95958385  1
  O  O412  1  0.26462770  0.41690942  0.21263380  1
  O  O413  1  0.26503321  0.41651338  0.45885436  1
  O  O414  1  0.26573749  0.41753832  0.71196958  1
  O  O415  1  0.26672345  0.41640940  0.96278884  1
  O  O416  1  0.26473857  0.75007258  0.21236155  1
  O  O417  1  0.26679481  0.75060152  0.45998748  1
  O  O418  1  0.26689420  0.75000096  0.71229523  1
  O  O419  1  0.26600335  0.75040507  0.95983813  1
  O  O420  1  0.76613014  0.08357105  0.21168457  1
  O  O421  1  0.76805237  0.08279082  0.46048089  1
  O  O422  1  0.76872484  0.08372969  0.71027704  1
  O  O423  1  0.76468841  0.08280380  0.96133098  1
  O  O424  1  0.76588356  0.41659936  0.21159991  1
  O  O425  1  0.76646314  0.41677204  0.45937811  1
  O  O426  1  0.76693859  0.41697559  0.71213030  1
  O  O427  1  0.76415064  0.41720590  0.96091899  1
  O  O428  1  0.76625120  0.75020787  0.21026974  1
  O  O429  1  0.76800473  0.75039687  0.46292437  1
  O  O430  1  0.76638450  0.75008024  0.71178341  1
  O  O431  1  0.76704754  0.74972929  0.95901543  1
  O  O432  1  0.01502200  0.08356962  0.16613072  1
  O  O433  1  0.01356179  0.08297211  0.41291114  1
  O  O434  1  0.01401723  0.08307107  0.66362232  1
  O  O435  1  0.01725012  0.08280655  0.91231598  1
  O  O436  1  0.01583965  0.41718166  0.16485814  1
  O  O437  1  0.01543108  0.41690495  0.41222845  1
  O  O438  1  0.01457694  0.41667167  0.66656982  1
  O  O439  1  0.01660457  0.41701266  0.91185459  1
  O  O440  1  0.01421755  0.74949739  0.16257713  1
  O  O441  1  0.01668979  0.75008241  0.41541978  1
  O  O442  1  0.01435932  0.74993031  0.66406840  1
  O  O443  1  0.01625648  0.75012088  0.91258825  1
  O  O444  1  0.51794455  0.08355864  0.16482348  1
  O  O445  1  0.51831146  0.08351463  0.41215655  1
  O  O446  1  0.51651155  0.08205130  0.66587233  1
  O  O447  1  0.51713263  0.08368592  0.91474742  1
  O  O448  1  0.51801383  0.41635648  0.16204756  1
  O  O449  1  0.51912331  0.41716281  0.41454709  1
  O  O450  1  0.51702185  0.41704613  0.66501908  1
  O  O451  1  0.51810525  0.41738106  0.91517013  1
  O  O452  1  0.51699146  0.75036003  0.16501035  1
  O  O453  1  0.51582476  0.74970292  0.41573698  1
  O  O454  1  0.51582656  0.74990413  0.66319252  1
  O  O455  1  0.51784857  0.74921001  0.91265383  1
  O  O456  1  0.48481582  0.24969990  0.08754940  1
  O  O457  1  0.48550624  0.25052250  0.33410230  1
  O  O458  1  0.48541927  0.24977033  0.58699699  1
  O  O459  1  0.48590144  0.25062301  0.83615815  1
  O  O460  1  0.48629929  0.58350938  0.08676668  1
  O  O461  1  0.48338704  0.58333529  0.33456709  1
  O  O462  1  0.48532170  0.58417733  0.58753425  1
  O  O463  1  0.48478215  0.58308015  0.83664626  1
  O  O464  1  0.48423184  0.91732793  0.08730359  1
  O  O465  1  0.48485216  0.91654211  0.33513646  1
  O  O466  1  0.48217102  0.91616410  0.58505651  1
  O  O467  1  0.48527557  0.91545626  0.83674734  1
  O  O468  1  0.98298608  0.25063214  0.08431452  1
  O  O469  1  0.98089823  0.25034424  0.33530395  1
  O  O470  1  0.98027923  0.25028451  0.58589551  1
  O  O471  1  0.98380415  0.24985334  0.83519571  1
  O  O472  1  0.98131081  0.58240534  0.08485038  1
  O  O473  1  0.98129807  0.58407123  0.33546266  1
  O  O474  1  0.98105217  0.58320969  0.58645951  1
  O  O475  1  0.98355009  0.58358322  0.83508332  1
  O  O476  1  0.98403905  0.91679081  0.08688912  1
  O  O477  1  0.98306791  0.91622607  0.33732137  1
  O  O478  1  0.98309475  0.91640868  0.58772315  1
  O  O479  1  0.98479580  0.91645061  0.83400135  1
  O  O480  1  0.08650935  0.31648090  0.07835738  1
  O  O481  1  0.08500992  0.31533312  0.32751744  1
  O  O482  1  0.08415620  0.31505489  0.57701768  1
  O  O483  1  0.08731218  0.31533582  0.82767782  1
  O  O484  1  0.08536114  0.64696004  0.07695756  1
  O  O485  1  0.08505627  0.64913313  0.32775367  1
  O  O486  1  0.08476583  0.64829100  0.57705979  1
  O  O487  1  0.08704980  0.64900846  0.82759988  1
  O  O488  1  0.08750866  0.98206342  0.07824657  1
  O  O489  1  0.08720915  0.98035689  0.32718773  1
  O  O490  1  0.08664136  0.98138759  0.57679234  1
  O  O491  1  0.08883791  0.98118073  0.82703008  1
  O  O492  1  0.58866388  0.31442531  0.07789030  1
  O  O493  1  0.58958745  0.31515951  0.32745516  1
  O  O494  1  0.58914042  0.31448962  0.57815523  1
  O  O495  1  0.58920689  0.31681924  0.82825669  1
  O  O496  1  0.59010329  0.64781018  0.07715444  1
  O  O497  1  0.58760186  0.64795236  0.32687874  1
  O  O498  1  0.58842413  0.65008385  0.57846882  1
  O  O499  1  0.58846589  0.64827028  0.82707207  1
  O  O500  1  0.58783487  0.98285852  0.07819725  1
  O  O501  1  0.58868933  0.98208784  0.32735725  1
  O  O502  1  0.58657504  0.98008663  0.57722708  1
  O  O503  1  0.58875508  0.98040707  0.82751132  1
  O  O504  1  0.41397032  0.01848487  0.17336497  1
  O  O505  1  0.41458163  0.01845260  0.42219926  1
  O  O506  1  0.41269533  0.01674091  0.67190483  1
  O  O507  1  0.41365889  0.01831206  0.92287186  1
  O  O508  1  0.41471933  0.35068764  0.17228750  1
  O  O509  1  0.41513377  0.35274831  0.42268387  1
  O  O510  1  0.41348652  0.35169041  0.67296311  1
  O  O511  1  0.41389925  0.35298509  0.92389494  1
  O  O512  1  0.41295961  0.68604522  0.17242366  1
  O  O513  1  0.41246181  0.68326203  0.42243959  1
  O  O514  1  0.41147688  0.68641655  0.67306526  1
  O  O515  1  0.41455257  0.68341521  0.92202164  1
  O  O516  1  0.91098071  0.01850684  0.17311066  1
  O  O517  1  0.91011964  0.01782613  0.42162208  1
  O  O518  1  0.91052149  0.01802388  0.67228789  1
  O  O519  1  0.91366188  0.01796798  0.92254973  1
  O  O520  1  0.91159159  0.35268561  0.17300497  1
  O  O521  1  0.91186905  0.35188568  0.42130211  1
  O  O522  1  0.91048928  0.35181438  0.67307974  1
  O  O523  1  0.91319205  0.35167061  0.92280247  1
  O  O524  1  0.91104931  0.68362686  0.17094785  1
  O  O525  1  0.91232585  0.68545535  0.42239756  1
  O  O526  1  0.91048192  0.68498963  0.67241465  1
  O  O527  1  0.91213850  0.68544209  0.92276941  1
  O  O528  1  0.16411947  0.01744620  0.20254268  1
  O  O529  1  0.16215436  0.01689148  0.45284431  1
  O  O530  1  0.16129359  0.01711719  0.70332253  1
  O  O531  1  0.16218635  0.01846960  0.95211634  1
  O  O532  1  0.16100968  0.35162805  0.20211138  1
  O  O533  1  0.16076984  0.35179296  0.45151429  1
  O  O534  1  0.16222055  0.35225122  0.70254889  1
  O  O535  1  0.16281316  0.35166064  0.95260098  1
  O  O536  1  0.16113242  0.68563554  0.20285971  1
  O  O537  1  0.16252234  0.68611900  0.45145070  1
  O  O538  1  0.16333498  0.68539315  0.70224137  1
  O  O539  1  0.16235834  0.68468918  0.95171076  1
  O  O540  1  0.66257718  0.01795504  0.20307801  1
  O  O541  1  0.66390518  0.01812952  0.45175329  1
  O  O542  1  0.66519087  0.01866321  0.70127497  1
  O  O543  1  0.66124096  0.01778384  0.95358682  1
  O  O544  1  0.66207129  0.35160922  0.20310298  1
  O  O545  1  0.66239616  0.35214762  0.45190386  1
  O  O546  1  0.66361269  0.35170749  0.70324065  1
  O  O547  1  0.66046056  0.35204188  0.95286198  1
  O  O548  1  0.66268618  0.68508396  0.20333640  1
  O  O549  1  0.66449159  0.68551615  0.45289632  1
  O  O550  1  0.66293826  0.68412812  0.70166010  1
  O  O551  1  0.66304525  0.68485396  0.95167791  1
  O  O552  1  0.33884848  0.31660505  0.04834882  1
  O  O553  1  0.33848700  0.31411066  0.29737873  1
  O  O554  1  0.33689010  0.31512609  0.54728309  1
  O  O555  1  0.33736673  0.31513113  0.79804833  1
  O  O556  1  0.33885341  0.64739079  0.04737143  1
  O  O557  1  0.33814492  0.64789067  0.29810626  1
  O  O558  1  0.33792488  0.64936966  0.54602082  1
  O  O559  1  0.33862422  0.64973574  0.79798604  1
  O  O560  1  0.33859127  0.98156182  0.04826252  1
  O  O561  1  0.33710491  0.98282603  0.29721427  1
  O  O562  1  0.33667879  0.98038657  0.54825807  1
  O  O563  1  0.33737355  0.98031175  0.79751640  1
  O  O564  1  0.83437541  0.31527683  0.04762156  1
  O  O565  1  0.83592718  0.31547508  0.29745787  1
  O  O566  1  0.83956428  0.31410174  0.54749141  1
  O  O567  1  0.83658640  0.31518729  0.79763467  1
  O  O568  1  0.83575616  0.64935055  0.04733398  1
  O  O569  1  0.83764953  0.64705056  0.29758208  1
  O  O570  1  0.83921496  0.64931500  0.54723293  1
  O  O571  1  0.83662895  0.64873184  0.79676790  1
  O  O572  1  0.83556824  0.98046466  0.04739975  1
  O  O573  1  0.83636985  0.98259175  0.29774586  1
  O  O574  1  0.84010706  0.98164663  0.54665125  1
  O  O575  1  0.83811184  0.98188732  0.79681137  1
  O  O576  1  0.41393327  0.14851461  0.17309405  1
  O  O577  1  0.41463630  0.14849853  0.42210123  1
  O  O578  1  0.41277359  0.14705626  0.67259549  1
  O  O579  1  0.41347772  0.14856425  0.92272813  1
  O  O580  1  0.41419668  0.48069692  0.17250733  1
  O  O581  1  0.41537035  0.48286085  0.42220609  1
  O  O582  1  0.41330631  0.48186970  0.67278639  1
  O  O583  1  0.41431340  0.48300063  0.92350734  1
  O  O584  1  0.41351737  0.81618577  0.17228970  1
  O  O585  1  0.41124539  0.81334422  0.42314689  1
  O  O586  1  0.41263387  0.81644077  0.67278930  1
  O  O587  1  0.41395747  0.81349727  0.92245002  1
  O  O588  1  0.91077521  0.14839516  0.17258023  1
  O  O589  1  0.90980287  0.14806100  0.42137677  1
  O  O590  1  0.91038130  0.14824523  0.67212990  1
  O  O591  1  0.91358106  0.14794824  0.92266262  1
  O  O592  1  0.91174342  0.48256463  0.17238405  1
  O  O593  1  0.91201373  0.48202677  0.42108068  1
  O  O594  1  0.91070610  0.48194164  0.67314849  1
  O  O595  1  0.91279689  0.48162764  0.92253492  1
  O  O596  1  0.91068037  0.81386218  0.17194252  1
  O  O597  1  0.91285122  0.81541389  0.42294889  1
  O  O598  1  0.91073713  0.81509948  0.67263758  1
  O  O599  1  0.91262279  0.81524027  0.92290965  1
  O  O600  1  0.08709202  0.18624235  0.07770674  1
  O  O601  1  0.08469137  0.18528164  0.32688629  1
  O  O602  1  0.08381318  0.18496799  0.57641527  1
  O  O603  1  0.08742832  0.18486227  0.82768160  1
  O  O604  1  0.08520951  0.51694847  0.07769875  1
  O  O605  1  0.08504538  0.51893731  0.32748245  1
  O  O606  1  0.08482882  0.51831289  0.57737100  1
  O  O607  1  0.08743935  0.51864531  0.82780793  1
  O  O608  1  0.08762325  0.85193492  0.07829959  1
  O  O609  1  0.08664598  0.85031609  0.32804481  1
  O  O610  1  0.08688833  0.85149864  0.57694286  1
  O  O611  1  0.08851273  0.85100028  0.82705735  1
  O  O612  1  0.58825977  0.18427142  0.07815751  1
  O  O613  1  0.58930479  0.18510230  0.32709918  1
  O  O614  1  0.58872651  0.18433359  0.57804496  1
  O  O615  1  0.59015197  0.18672166  0.82707766  1
  O  O616  1  0.58969438  0.51777573  0.07785960  1
  O  O617  1  0.58747730  0.51807566  0.32723697  1
  O  O618  1  0.58917091  0.51996467  0.57810076  1
  O  O619  1  0.58866152  0.51821926  0.82789272  1
  O  O620  1  0.58811616  0.85281030  0.07711651  1
  O  O621  1  0.58897281  0.85213033  0.32716111  1
  O  O622  1  0.58567657  0.85005789  0.57734555  1
  O  O623  1  0.58881411  0.85027708  0.82799334  1
  O  O624  1  0.33976005  0.18656143  0.04838197  1
  O  O625  1  0.33848430  0.18373869  0.29661238  1
  O  O626  1  0.33685025  0.18482824  0.54703016  1
  O  O627  1  0.33716620  0.18504418  0.79792897  1
  O  O628  1  0.33843478  0.51712003  0.04720993  1
  O  O629  1  0.33788580  0.51802496  0.29851446  1
  O  O630  1  0.33810702  0.51911052  0.54705880  1
  O  O631  1  0.33958916  0.51979019  0.79878738  1
  O  O632  1  0.33882308  0.85160196  0.04828615  1
  O  O633  1  0.33725305  0.85272455  0.29739454  1
  O  O634  1  0.33622186  0.85041147  0.54772723  1
  O  O635  1  0.33680450  0.85028134  0.79725187  1
  O  O636  1  0.83443405  0.18516323  0.04758857  1
  O  O637  1  0.83659396  0.18548058  0.29715812  1
  O  O638  1  0.83875279  0.18394817  0.54654368  1
  O  O639  1  0.83699825  0.18484776  0.79729818  1
  O  O640  1  0.83589000  0.51933516  0.04821985  1
  O  O641  1  0.83684952  0.51706727  0.29703877  1
  O  O642  1  0.83949650  0.51923977  0.54751868  1
  O  O643  1  0.83638006  0.51856332  0.79743492  1
  O  O644  1  0.83519897  0.85038194  0.04690544  1
  O  O645  1  0.83707464  0.85273602  0.29844477  1
  O  O646  1  0.83974954  0.85156869  0.54755451  1
  O  O647  1  0.83849400  0.85148422  0.79642126  1
  O  O648  1  0.16406729  0.14754395  0.20202876  1
  O  O649  1  0.16211332  0.14712294  0.45190542  1
  O  O650  1  0.16117297  0.14733590  0.70237170  1
  O  O651  1  0.16229071  0.14847981  0.95211213  1
  O  O652  1  0.16078409  0.48163988  0.20192927  1
  O  O653  1  0.16100465  0.48178547  0.45147646  1
  O  O654  1  0.16218890  0.48237984  0.70263957  1
  O  O655  1  0.16299356  0.48153787  0.95221225  1
  O  O656  1  0.16140837  0.81595064  0.20379205  1
  O  O657  1  0.16279165  0.81607207  0.45237066  1
  O  O658  1  0.16328170  0.81544330  0.70284584  1
  O  O659  1  0.16165218  0.81457820  0.95216841  1
  O  O660  1  0.66209260  0.14806131  0.20306996  1
  O  O661  1  0.66429973  0.14803389  0.45158084  1
  O  O662  1  0.66493134  0.14882760  0.70201294  1
  O  O663  1  0.66138333  0.14816943  0.95351578  1
  O  O664  1  0.66213744  0.48174781  0.20288446  1
  O  O665  1  0.66276380  0.48203325  0.45159650  1
  O  O666  1  0.66344837  0.48199941  0.70292257  1
  O  O667  1  0.66053749  0.48223192  0.95308590  1
  O  O668  1  0.66263141  0.81529058  0.20353602  1
  O  O669  1  0.66440015  0.81540937  0.45306762  1
  O  O670  1  0.66227157  0.81407906  0.70127709  1
  O  O671  1  0.66301356  0.81488216  0.95157087  1
