# generated using pymatgen
data_Na2MnFe(PO4)2
_symmetry_space_group_name_H-M   'P 1'
_cell_length_a   21.08486843
_cell_length_b   18.93697803
_cell_length_c   20.04415852
_cell_angle_alpha   90.00025390
_cell_angle_beta   90.00255096
_cell_angle_gamma   89.99740099
_symmetry_Int_Tables_number   1
_chemical_formula_structural   Na2MnFe(PO4)2
_chemical_formula_sum   'Na96 Mn48 Fe48 P96 O384'
_cell_volume   8003.30556817
_cell_formula_units_Z   48
loop_
 _symmetry_equiv_pos_site_id
 _symmetry_equiv_pos_as_xyz
  1  'x, y, z'
loop_
 _atom_site_type_symbol
 _atom_site_label
 _atom_site_symmetry_multiplicity
 _atom_site_fract_x
 _atom_site_fract_y
 _atom_site_fract_z
 _atom_site_occupancy
  Na  Na0  1  -0.00134680  -0.00027836  0.00122405  1
  Na  Na1  1  -0.00115763  0.00031778  0.24937109  1
  Na  Na2  1  0.00015495  0.00029375  0.49974894  1
  Na  Na3  1  0.00080152  0.00101389  0.74961622  1
  Na  Na4  1  0.00125668  0.33367808  -0.00148872  1
  Na  Na5  1  -0.00001286  0.33376333  0.24962883  1
  Na  Na6  1  -0.00157854  0.33320569  0.50107363  1
  Na  Na7  1  0.00021152  0.33355792  0.75052834  1
  Na  Na8  1  0.00108980  0.66730462  -0.00052298  1
  Na  Na9  1  0.00207813  0.66705416  0.24943951  1
  Na  Na10  1  0.00043150  0.66621877  0.50042485  1
  Na  Na11  1  -0.00114915  0.66624558  0.75036827  1
  Na  Na12  1  0.50082127  0.00078463  -0.00070156  1
  Na  Na13  1  0.49827166  -0.00084956  0.24979892  1
  Na  Na14  1  0.49858880  -0.00019278  0.49966763  1
  Na  Na15  1  0.49806696  -0.00105493  0.75097511  1
  Na  Na16  1  0.50013108  0.33326236  -0.00011265  1
  Na  Na17  1  0.50177184  0.33356838  0.24960174  1
  Na  Na18  1  0.49992153  0.33313404  0.50003693  1
  Na  Na19  1  0.49791397  0.33258411  0.75060353  1
  Na  Na20  1  0.49862625  0.66587379  0.00000093  1
  Na  Na21  1  0.50083574  0.66641903  0.24973248  1
  Na  Na22  1  0.50102086  0.66624236  0.50001457  1
  Na  Na23  1  0.49936664  0.66587199  0.75092478  1
  Na  Na24  1  0.25092661  0.00058115  0.12519568  1
  Na  Na25  1  0.24810719  -0.00080920  0.37427385  1
  Na  Na26  1  0.25176799  0.00099778  0.62592008  1
  Na  Na27  1  0.24987906  -0.00023380  0.87443438  1
  Na  Na28  1  0.25005703  0.33299004  0.12471966  1
  Na  Na29  1  0.24984363  0.33345646  0.37509037  1
  Na  Na30  1  0.25064746  0.33333012  0.62481373  1
  Na  Na31  1  0.25070816  0.33306399  0.87479052  1
  Na  Na32  1  0.24848039  0.66636665  0.12503935  1
  Na  Na33  1  0.24759025  0.66599989  0.37411510  1
  Na  Na34  1  0.25122307  0.66665115  0.62614294  1
  Na  Na35  1  0.25164096  0.66681179  0.87493428  1
  Na  Na36  1  0.75200162  0.00096084  0.12478777  1
  Na  Na37  1  0.75221999  0.00089669  0.37467461  1
  Na  Na38  1  0.75092095  0.00061066  0.62573191  1
  Na  Na39  1  0.74788050  -0.00105295  0.87461539  1
  Na  Na40  1  0.74729795  0.33248011  0.12499433  1
  Na  Na41  1  0.74976592  0.33327419  0.37563085  1
  Na  Na42  1  0.75280651  0.33524166  0.62602166  1
  Na  Na43  1  0.74855867  0.33317329  0.87430290  1
  Na  Na44  1  0.75011751  0.66621712  0.12524696  1
  Na  Na45  1  0.74903707  0.66554339  0.37524166  1
  Na  Na46  1  0.75055725  0.66669284  0.62474554  1
  Na  Na47  1  0.75011361  0.66668985  0.87435968  1
  Na  Na48  1  0.00141391  0.16615128  -0.00004326  1
  Na  Na49  1  -0.00069374  0.16631114  0.24877691  1
  Na  Na50  1  -0.00052665  0.16693918  0.50082402  1
  Na  Na51  1  0.00075817  0.16715091  0.74995341  1
  Na  Na52  1  0.00048224  0.50042925  -0.00078242  1
  Na  Na53  1  0.00024770  0.50072154  0.25043908  1
  Na  Na54  1  0.00010476  0.49995881  0.49998358  1
  Na  Na55  1  -0.00048196  0.50054737  0.75064124  1
  Na  Na56  1  -0.00086731  0.83320182  -0.00000310  1
  Na  Na57  1  0.00163007  0.83206722  0.24919400  1
  Na  Na58  1  0.00022606  0.83263856  0.50062739  1
  Na  Na59  1  -0.00108588  0.83254732  0.74980190  1
  Na  Na60  1  0.49950829  0.16694011  0.00032061  1
  Na  Na61  1  0.49934028  0.16677964  0.25016506  1
  Na  Na62  1  0.49846636  0.16691296  0.49922054  1
  Na  Na63  1  0.49860842  0.16703110  0.75076261  1
  Na  Na64  1  0.50103066  0.50031104  -0.00066028  1
  Na  Na65  1  0.50245827  0.50016040  0.25017778  1
  Na  Na66  1  0.50187546  0.50041376  0.50064855  1
  Na  Na67  1  0.49901414  0.50111216  0.75034449  1
  Na  Na68  1  0.49835917  0.83354439  -0.00066068  1
  Na  Na69  1  0.49971056  0.83281244  0.24907270  1
  Na  Na70  1  0.49918319  0.83302347  0.49974323  1
  Na  Na71  1  0.49890798  0.83321133  0.75160681  1
  Na  Na72  1  0.25021181  0.16672807  0.12504662  1
  Na  Na73  1  0.25006738  0.16659829  0.37417037  1
  Na  Na74  1  0.25154757  0.16640951  0.62555806  1
  Na  Na75  1  0.24956843  0.16777069  0.87472763  1
  Na  Na76  1  0.25023652  0.50090263  0.12449052  1
  Na  Na77  1  0.24746088  0.50177314  0.37526824  1
  Na  Na78  1  0.25138205  0.49960453  0.62536714  1
  Na  Na79  1  0.25138021  0.50039496  0.87440993  1
  Na  Na80  1  0.24897912  0.83276117  0.12545543  1
  Na  Na81  1  0.24742460  0.83384500  0.37406915  1
  Na  Na82  1  0.25160887  0.83211204  0.62581234  1
  Na  Na83  1  0.25103970  0.83253102  0.87501370  1
  Na  Na84  1  0.74985843  0.16644831  0.12422647  1
  Na  Na85  1  0.75011563  0.16708429  0.37579718  1
  Na  Na86  1  0.75234372  0.16598112  0.62616540  1
  Na  Na87  1  0.74917538  0.16687713  0.87369784  1
  Na  Na88  1  0.74949935  0.49992459  0.12545836  1
  Na  Na89  1  0.74956127  0.50037006  0.37469481  1
  Na  Na90  1  0.75003132  0.50020509  0.62575701  1
  Na  Na91  1  0.74760660  0.50137424  0.87459746  1
  Na  Na92  1  0.75055318  0.83328923  0.12514939  1
  Na  Na93  1  0.75120500  0.83291126  0.37514905  1
  Na  Na94  1  0.75101836  0.83233135  0.62469368  1
  Na  Na95  1  0.75030816  0.83247643  0.87498382  1
  Mn  Mn96  1  0.10786440  0.74905262  0.62332106  1
  Mn  Mn97  1  0.39228258  0.91674976  0.87828686  1
  Mn  Mn98  1  0.60668517  0.08276839  0.62266217  1
  Mn  Mn99  1  0.35755626  0.08314859  0.50186612  1
  Mn  Mn100  1  0.60738530  0.41657411  0.62292900  1
  Mn  Mn101  1  0.60763450  0.41665866  0.12238157  1
  Mn  Mn102  1  0.64196983  0.25056233  0.74723825  1
  Mn  Mn103  1  0.60839206  0.08333858  0.37288642  1
  Mn  Mn104  1  0.89146007  0.25063880  0.12624723  1
  Mn  Mn105  1  0.14305391  0.91696540  0.74781616  1
  Mn  Mn106  1  0.85666469  0.41668487  0.00208293  1
  Mn  Mn107  1  0.14210766  0.91608468  0.49799789  1
  Mn  Mn108  1  0.64281065  0.25030068  0.49914980  1
  Mn  Mn109  1  0.60861332  0.75004094  0.37285877  1
  Mn  Mn110  1  0.60763962  0.74979308  0.87331117  1
  Mn  Mn111  1  0.89291187  0.24961013  0.87749237  1
  Mn  Mn112  1  0.64247643  0.91711653  0.24732660  1
  Mn  Mn113  1  0.35813555  0.41693411  0.25264500  1
  Mn  Mn114  1  0.89307997  0.91634272  0.37716419  1
  Mn  Mn115  1  0.35765648  0.08271972  0.00238955  1
  Mn  Mn116  1  0.14187122  0.25022633  0.49784354  1
  Mn  Mn117  1  0.60734946  0.75051001  0.12230856  1
  Mn  Mn118  1  0.39111694  0.91600194  0.37691505  1
  Mn  Mn119  1  0.10764486  0.41635253  0.37288896  1
  Mn  Mn120  1  0.64163402  0.91556714  0.74707789  1
  Mn  Mn121  1  0.89207701  0.91717836  0.87729729  1
  Mn  Mn122  1  0.89156021  0.25008956  0.37727204  1
  Mn  Mn123  1  0.14345259  0.58264918  0.74760763  1
  Mn  Mn124  1  0.60762527  0.08270058  0.12305077  1
  Mn  Mn125  1  0.35633384  0.75017466  0.25194681  1
  Mn  Mn126  1  0.39276111  0.25079385  0.37674564  1
  Mn  Mn127  1  0.85796715  0.08293257  0.75325213  1
  Mn  Mn128  1  0.14185097  0.91677724  0.99745474  1
  Mn  Mn129  1  0.10815762  0.08383223  0.62275865  1
  Mn  Mn130  1  0.10858160  0.41666399  0.87195953  1
  Mn  Mn131  1  0.10716459  0.08313468  0.12242238  1
  Mn  Mn132  1  0.10797745  0.41718050  0.12226951  1
  Mn  Mn133  1  0.85721984  0.41598342  0.25178479  1
  Mn  Mn134  1  0.89197507  0.91634840  0.62743671  1
  Mn  Mn135  1  0.39259350  0.58300309  0.37694325  1
  Mn  Mn136  1  0.85825853  0.74992067  0.25230054  1
  Mn  Mn137  1  0.14200769  0.25014061  0.24745751  1
  Mn  Mn138  1  0.64230182  0.91670779  0.49810373  1
  Mn  Mn139  1  0.89199530  0.58356970  0.87756672  1
  Mn  Mn140  1  0.35830554  0.41736319  0.50198542  1
  Mn  Mn141  1  0.89251762  0.58355711  0.37718564  1
  Mn  Mn142  1  0.35812254  0.41726517  0.00249222  1
  Mn  Mn143  1  0.35767278  0.74964019  0.50203661  1
  Fe  Fe144  1  0.39221310  0.91620201  0.62661037  1
  Fe  Fe145  1  0.60700751  0.75025487  0.62373256  1
  Fe  Fe146  1  0.89205156  0.91597144  0.12652840  1
  Fe  Fe147  1  0.64155174  0.24948244  0.99800473  1
  Fe  Fe148  1  0.10701329  0.08312741  0.37303096  1
  Fe  Fe149  1  0.64253380  0.24957051  0.24838505  1
  Fe  Fe150  1  0.35657624  0.74986569  0.00223511  1
  Fe  Fe151  1  0.10713458  0.41699684  0.62372964  1
  Fe  Fe152  1  0.60880537  0.41640075  0.37398528  1
  Fe  Fe153  1  0.14323922  0.58320398  0.99812441  1
  Fe  Fe154  1  0.10720703  0.75049048  0.37350123  1
  Fe  Fe155  1  0.64298019  0.58332219  0.24778935  1
  Fe  Fe156  1  0.89286843  0.58344501  0.12600320  1
  Fe  Fe157  1  0.85780744  0.74942066  0.50211910  1
  Fe  Fe158  1  0.85728049  0.08398568  0.25174666  1
  Fe  Fe159  1  0.14196147  0.91673823  0.24753827  1
  Fe  Fe160  1  0.89310216  0.25100042  0.62731453  1
  Fe  Fe161  1  0.85739471  0.75006000  0.00148099  1
  Fe  Fe162  1  0.60722027  0.08390123  0.87353170  1
  Fe  Fe163  1  0.85755956  0.41698088  0.50231042  1
  Fe  Fe164  1  0.64279992  0.91656162  0.99926125  1
  Fe  Fe165  1  0.64251081  0.58368726  0.99857541  1
  Fe  Fe166  1  0.85669574  0.08332375  0.00069367  1
  Fe  Fe167  1  0.35849010  0.74969027  0.75191593  1
  Fe  Fe168  1  0.64328859  0.58334942  0.49914970  1
  Fe  Fe169  1  0.39343775  0.58273587  0.87725194  1
  Fe  Fe170  1  0.10776787  0.08268597  0.87358104  1
  Fe  Fe171  1  0.10657574  0.74988521  0.12217664  1
  Fe  Fe172  1  0.89232287  0.58241714  0.62658731  1
  Fe  Fe173  1  0.85682646  0.74949443  0.75158786  1
  Fe  Fe174  1  0.64263893  0.58374470  0.74806616  1
  Fe  Fe175  1  0.39263758  0.58335320  0.12701585  1
  Fe  Fe176  1  0.60673214  0.41640730  0.87298688  1
  Fe  Fe177  1  0.39266830  0.24986646  0.12698520  1
  Fe  Fe178  1  0.14240247  0.58325723  0.49927462  1
  Fe  Fe179  1  0.35668517  0.08307745  0.25139435  1
  Fe  Fe180  1  0.39217962  0.91661674  0.12667263  1
  Fe  Fe181  1  0.35754777  0.08389820  0.75219505  1
  Fe  Fe182  1  0.14208591  0.58334740  0.24724931  1
  Fe  Fe183  1  0.85726710  0.41756253  0.75207860  1
  Fe  Fe184  1  0.39308250  0.58363100  0.62655599  1
  Fe  Fe185  1  0.39186400  0.25001732  0.62700594  1
  Fe  Fe186  1  0.14316885  0.25042851  0.99813850  1
  Fe  Fe187  1  0.39296251  0.25037596  0.87718656  1
  Fe  Fe188  1  0.35778817  0.41658526  0.75151534  1
  Fe  Fe189  1  0.10732045  0.75065281  0.87318948  1
  Fe  Fe190  1  0.85830878  0.08365840  0.50177720  1
  Fe  Fe191  1  0.14397735  0.25046556  0.74822894  1
  P  P192  1  0.05366873  0.25028098  0.10869795  1
  P  P193  1  0.05273962  0.24920026  0.35980242  1
  P  P194  1  0.05377157  0.25146209  0.61178629  1
  P  P195  1  0.05613213  0.24896613  0.86025552  1
  P  P196  1  0.05400673  0.58401445  0.10983903  1
  P  P197  1  0.05525257  0.58423928  0.36072063  1
  P  P198  1  0.05272043  0.58214581  0.61032857  1
  P  P199  1  0.05512244  0.58453958  0.86096176  1
  P  P200  1  0.05279341  0.91590878  0.11098739  1
  P  P201  1  0.05418142  0.91669621  0.35928970  1
  P  P202  1  0.05332501  0.91640866  0.61024175  1
  P  P203  1  0.05350205  0.91655834  0.85999335  1
  P  P204  1  0.55358054  0.24941969  0.11051983  1
  P  P205  1  0.55481030  0.25065474  0.35973060  1
  P  P206  1  0.55116978  0.24978333  0.61028262  1
  P  P207  1  0.55365449  0.25012760  0.86123050  1
  P  P208  1  0.55374767  0.58367953  0.11020678  1
  P  P209  1  0.55610441  0.58251793  0.36075363  1
  P  P210  1  0.55422412  0.58443452  0.61123016  1
  P  P211  1  0.55460450  0.58279563  0.86083737  1
  P  P212  1  0.55210641  0.91666869  0.10906652  1
  P  P213  1  0.55306820  0.91651625  0.35952440  1
  P  P214  1  0.55138695  0.91548042  0.61023531  1
  P  P215  1  0.55499832  0.91714200  0.86171285  1
  P  P216  1  0.44556350  0.08304885  0.14033832  1
  P  P217  1  0.44542176  0.08316340  0.38855740  1
  P  P218  1  0.44539459  0.08309669  0.64075725  1
  P  P219  1  0.44645895  0.08444042  0.88914821  1
  P  P220  1  0.44652819  0.41715874  0.13987178  1
  P  P221  1  0.44902023  0.41715222  0.39010328  1
  P  P222  1  0.44609613  0.41711810  0.64056004  1
  P  P223  1  0.44642008  0.41674589  0.88872320  1
  P  P224  1  0.44473160  0.74978178  0.13853328  1
  P  P225  1  0.44674631  0.74932626  0.38973111  1
  P  P226  1  0.44727289  0.74953628  0.64057720  1
  P  P227  1  0.44462072  0.74869062  0.88997512  1
  P  P228  1  0.94379649  0.08290844  0.13877796  1
  P  P229  1  0.94636634  0.08344254  0.38933248  1
  P  P230  1  0.94550450  0.08430434  0.63929573  1
  P  P231  1  0.94785453  0.08341934  0.89088714  1
  P  P232  1  0.94650548  0.41786759  0.13942374  1
  P  P233  1  0.94585081  0.41684382  0.39080076  1
  P  P234  1  0.94584068  0.41725989  0.63988257  1
  P  P235  1  0.94579102  0.41689086  0.88908413  1
  P  P236  1  0.94595902  0.74930586  0.13829276  1
  P  P237  1  0.94768420  0.74977128  0.39053634  1
  P  P238  1  0.94467562  0.74827076  0.63970285  1
  P  P239  1  0.94586155  0.75009104  0.88959697  1
  P  P240  1  0.19584637  0.08273451  0.23569106  1
  P  P241  1  0.19597251  0.08345429  0.48411348  1
  P  P242  1  0.19705864  0.08446595  0.73649509  1
  P  P243  1  0.19626701  0.08400963  0.98437853  1
  P  P244  1  0.19671668  0.41751098  0.23467381  1
  P  P245  1  0.19562441  0.41764004  0.48650210  1
  P  P246  1  0.19785467  0.41582830  0.73443176  1
  P  P247  1  0.19703340  0.41710544  0.98469043  1
  P  P248  1  0.19337910  0.75002945  0.23529640  1
  P  P249  1  0.19600479  0.74868568  0.48475364  1
  P  P250  1  0.19746989  0.74976899  0.73659262  1
  P  P251  1  0.19567180  0.74923540  0.98548379  1
  P  P252  1  0.69790992  0.08415054  0.23488326  1
  P  P253  1  0.69836191  0.08350862  0.48569256  1
  P  P254  1  0.69509406  0.08341109  0.73590868  1
  P  P255  1  0.69673146  0.08307257  0.98450584  1
  P  P256  1  0.69501159  0.41638839  0.23630648  1
  P  P257  1  0.69764214  0.41749036  0.48551285  1
  P  P258  1  0.69614511  0.41772334  0.73628324  1
  P  P259  1  0.69512577  0.41681357  0.98419382  1
  P  P260  1  0.69678817  0.74941595  0.23478993  1
  P  P261  1  0.69700649  0.74926194  0.48667087  1
  P  P262  1  0.69674995  0.74886973  0.73437398  1
  P  P263  1  0.69780152  0.74998287  0.98543444  1
  P  P264  1  0.30420191  0.25007985  0.01437493  1
  P  P265  1  0.30460790  0.24941727  0.26371942  1
  P  P266  1  0.30388609  0.25021859  0.51543808  1
  P  P267  1  0.30499023  0.25046799  0.76450383  1
  P  P268  1  0.30422730  0.58427392  0.01429845  1
  P  P269  1  0.30279114  0.58364304  0.26391972  1
  P  P270  1  0.30277194  0.58362427  0.51561405  1
  P  P271  1  0.30640332  0.58299515  0.76436167  1
  P  P272  1  0.30334528  0.91560836  0.01580901  1
  P  P273  1  0.30255028  0.91707801  0.26345537  1
  P  P274  1  0.30324446  0.91625355  0.51584232  1
  P  P275  1  0.30554096  0.91656957  0.76409107  1
  P  P276  1  0.80119403  0.24954246  0.01403996  1
  P  P277  1  0.80193635  0.24940015  0.26473325  1
  P  P278  1  0.80441975  0.25044406  0.51623158  1
  P  P279  1  0.80502648  0.25130728  0.76410394  1
  P  P280  1  0.80243258  0.58387739  0.01528349  1
  P  P281  1  0.80353566  0.58314852  0.26380669  1
  P  P282  1  0.80325082  0.58294409  0.51537444  1
  P  P283  1  0.80367346  0.58340119  0.76367068  1
  P  P284  1  0.80278883  0.91661841  0.01496760  1
  P  P285  1  0.80496532  0.91729170  0.26381544  1
  P  P286  1  0.80385425  0.91670591  0.51487875  1
  P  P287  1  0.80314036  0.91530012  0.76512536  1
  O  O288  1  0.05667088  0.25028270  0.18550083  1
  O  O289  1  0.05562580  0.24975642  0.43660811  1
  O  O290  1  0.05905345  0.25077310  0.68839777  1
  O  O291  1  0.06024223  0.25018444  0.93702543  1
  O  O292  1  0.05825531  0.58304684  0.18660012  1
  O  O293  1  0.05885878  0.58328971  0.43747281  1
  O  O294  1  0.05679249  0.58298315  0.68704180  1
  O  O295  1  0.05951332  0.58366318  0.93767566  1
  O  O296  1  0.05761250  0.91682180  0.18761112  1
  O  O297  1  0.05656970  0.91672164  0.43611559  1
  O  O298  1  0.05682690  0.91647929  0.68702667  1
  O  O299  1  0.05589060  0.91648536  0.93680000  1
  O  O300  1  0.55869780  0.24923352  0.18713915  1
  O  O301  1  0.55774763  0.24973307  0.43654295  1
  O  O302  1  0.55528911  0.25002000  0.68696993  1
  O  O303  1  0.55807868  0.24987239  0.93797819  1
  O  O304  1  0.55893200  0.58390044  0.18686409  1
  O  O305  1  0.56026883  0.58333186  0.43759333  1
  O  O306  1  0.55864424  0.58371100  0.68795204  1
  O  O307  1  0.55932112  0.58392819  0.93755302  1
  O  O308  1  0.55638210  0.91642267  0.18575088  1
  O  O309  1  0.55664083  0.91668367  0.43633334  1
  O  O310  1  0.55506443  0.91596378  0.68697725  1
  O  O311  1  0.55960236  0.91639637  0.93840683  1
  O  O312  1  0.44310575  0.08319338  0.06349385  1
  O  O313  1  0.44078970  0.08284320  0.31184406  1
  O  O314  1  0.44304430  0.08323943  0.56390766  1
  O  O315  1  0.44152855  0.08373723  0.81254554  1
  O  O316  1  0.44384323  0.41731364  0.06305798  1
  O  O317  1  0.44492093  0.41746937  0.31341229  1
  O  O318  1  0.44378237  0.41727218  0.56373745  1
  O  O319  1  0.44196283  0.41670216  0.81210489  1
  O  O320  1  0.44088640  0.74971395  0.06177180  1
  O  O321  1  0.44280537  0.74918856  0.31298170  1
  O  O322  1  0.44402754  0.74927754  0.56384041  1
  O  O323  1  0.44105868  0.74947856  0.81319249  1
  O  O324  1  0.93941231  0.08371405  0.06201385  1
  O  O325  1  0.94135361  0.08392579  0.31262674  1
  O  O326  1  0.94147002  0.08349687  0.56249652  1
  O  O327  1  0.94394348  0.08366095  0.81413830  1
  O  O328  1  0.94332740  0.41702555  0.06263841  1
  O  O329  1  0.94243546  0.41694087  0.31400367  1
  O  O330  1  0.94142840  0.41739034  0.56315204  1
  O  O331  1  0.94112425  0.41721779  0.81234672  1
  O  O332  1  0.94112096  0.74957728  0.06159729  1
  O  O333  1  0.94401041  0.74944327  0.31377185  1
  O  O334  1  0.94069845  0.74909614  0.56289505  1
  O  O335  1  0.94074996  0.74958555  0.81294651  1
  O  O336  1  0.19317526  0.08323290  0.06117392  1
  O  O337  1  0.19108691  0.08324688  0.31233997  1
  O  O338  1  0.19332322  0.08365160  0.56099680  1
  O  O339  1  0.19218413  0.08344364  0.81308697  1
  O  O340  1  0.19409445  0.41717547  0.06143949  1
  O  O341  1  0.19357819  0.41693777  0.31147245  1
  O  O342  1  0.19159358  0.41683101  0.56322194  1
  O  O343  1  0.19426313  0.41671984  0.81112748  1
  O  O344  1  0.19072543  0.74996040  0.06220959  1
  O  O345  1  0.18991837  0.75016188  0.31208842  1
  O  O346  1  0.19360997  0.74951212  0.56161154  1
  O  O347  1  0.19226960  0.74990832  0.81319433  1
  O  O348  1  0.69352519  0.08328372  0.06123628  1
  O  O349  1  0.69446297  0.08341942  0.31158330  1
  O  O350  1  0.69387874  0.08320119  0.56237372  1
  O  O351  1  0.69022955  0.08365597  0.81264986  1
  O  O352  1  0.69267048  0.41669009  0.06108895  1
  O  O353  1  0.69219338  0.41652237  0.31307396  1
  O  O354  1  0.69377579  0.41684155  0.56225388  1
  O  O355  1  0.69088138  0.41678226  0.81287985  1
  O  O356  1  0.69400786  0.74992630  0.06206329  1
  O  O357  1  0.69411215  0.75004399  0.31160006  1
  O  O358  1  0.69180298  0.75017965  0.56325573  1
  O  O359  1  0.69293785  0.74952819  0.81111745  1
  O  O360  1  0.30882536  0.25017336  0.18692853  1
  O  O361  1  0.30712252  0.25045069  0.43863131  1
  O  O362  1  0.30905414  0.25022830  0.68774986  1
  O  O363  1  0.30916425  0.25020743  0.93765278  1
  O  O364  1  0.30820251  0.58353035  0.18729120  1
  O  O365  1  0.30635913  0.58356094  0.43886455  1
  O  O366  1  0.31016717  0.58340018  0.68758168  1
  O  O367  1  0.30912025  0.58318680  0.93762378  1
  O  O368  1  0.30771393  0.91638029  0.18685593  1
  O  O369  1  0.30563139  0.91611057  0.43898517  1
  O  O370  1  0.30917824  0.91627776  0.68733455  1
  O  O371  1  0.30654945  0.91646715  0.93893219  1
  O  O372  1  0.80541581  0.25019449  0.18804357  1
  O  O373  1  0.80651212  0.25030004  0.43938075  1
  O  O374  1  0.80952440  0.25086901  0.68739329  1
  O  O375  1  0.80548283  0.25011898  0.93740558  1
  O  O376  1  0.80857985  0.58329766  0.18720255  1
  O  O377  1  0.80647901  0.58305844  0.43864061  1
  O  O378  1  0.80818706  0.58286403  0.68706682  1
  O  O379  1  0.80602640  0.58349139  0.93852692  1
  O  O380  1  0.80891299  0.91614273  0.18702772  1
  O  O381  1  0.80679477  0.91664321  0.43806860  1
  O  O382  1  0.80648750  0.91635133  0.68840682  1
  O  O383  1  0.80595148  0.91631097  0.93823502  1
  O  O384  1  0.23371532  0.25003885  0.03770670  1
  O  O385  1  0.23466156  0.24992505  0.28806200  1
  O  O386  1  0.23413720  0.24985625  0.54033136  1
  O  O387  1  0.23465278  0.25065249  0.78839424  1
  O  O388  1  0.23373035  0.58369591  0.03764671  1
  O  O389  1  0.23231729  0.58405808  0.28696622  1
  O  O390  1  0.23282464  0.58328947  0.54048282  1
  O  O391  1  0.23627293  0.58309580  0.78847865  1
  O  O392  1  0.23355259  0.91643520  0.04048352  1
  O  O393  1  0.23216421  0.91649672  0.28694388  1
  O  O394  1  0.23375570  0.91638085  0.54153002  1
  O  O395  1  0.23564645  0.91643465  0.78883031  1
  O  O396  1  0.73102498  0.24969023  0.03835687  1
  O  O397  1  0.73214249  0.24986999  0.28992191  1
  O  O398  1  0.73488053  0.25056952  0.54221119  1
  O  O399  1  0.73485005  0.25053743  0.78775217  1
  O  O400  1  0.73220480  0.58321262  0.03954240  1
  O  O401  1  0.73323211  0.58303677  0.28747794  1
  O  O402  1  0.73318091  0.58314655  0.54020189  1
  O  O403  1  0.73338532  0.58381379  0.78770075  1
  O  O404  1  0.73269973  0.91686169  0.03992597  1
  O  O405  1  0.73513212  0.91695804  0.28846334  1
  O  O406  1  0.73428986  0.91672549  0.54058184  1
  O  O407  1  0.73341997  0.91531103  0.78997449  1
  O  O408  1  0.26610561  0.08323120  0.21171197  1
  O  O409  1  0.26558964  0.08318449  0.45890848  1
  O  O410  1  0.26742890  0.08424895  0.71290765  1
  O  O411  1  0.26605942  0.08332344  0.95947911  1
  O  O412  1  0.26630769  0.41713538  0.20934773  1
  O  O413  1  0.26546955  0.41761156  0.46161590  1
  O  O414  1  0.26803773  0.41624948  0.71035884  1
  O  O415  1  0.26670467  0.41710655  0.95941776  1
  O  O416  1  0.26341785  0.74969417  0.21096748  1
  O  O417  1  0.26542615  0.74975064  0.45878569  1
  O  O418  1  0.26793568  0.74929104  0.71329833  1
  O  O419  1  0.26615609  0.74973764  0.96217806  1
  O  O420  1  0.76777368  0.08376706  0.20990056  1
  O  O421  1  0.76854325  0.08394130  0.46155069  1
  O  O422  1  0.76537925  0.08344034  0.71272690  1
  O  O423  1  0.76683169  0.08291403  0.95951937  1
  O  O424  1  0.76461517  0.41629043  0.21070975  1
  O  O425  1  0.76774651  0.41694897  0.46108189  1
  O  O426  1  0.76654815  0.41780225  0.71287544  1
  O  O427  1  0.76476444  0.41713936  0.95872737  1
  O  O428  1  0.76642249  0.74970753  0.20957589  1
  O  O429  1  0.76738933  0.74894830  0.46281865  1
  O  O430  1  0.76690062  0.74924841  0.71028514  1
  O  O431  1  0.76787856  0.74984054  0.96068982  1
  O  O432  1  0.01404492  0.08345911  0.16244436  1
  O  O433  1  0.01672471  0.08309726  0.41291990  1
  O  O434  1  0.01554266  0.08416038  0.66351891  1
  O  O435  1  0.01791454  0.08285599  0.91515870  1
  O  O436  1  0.01608348  0.41748324  0.16481507  1
  O  O437  1  0.01565816  0.41655565  0.41543230  1
  O  O438  1  0.01613961  0.41726831  0.66406115  1
  O  O439  1  0.01600511  0.41688209  0.91246848  1
  O  O440  1  0.01629185  0.74941453  0.16204491  1
  O  O441  1  0.01778137  0.74989903  0.41485753  1
  O  O442  1  0.01477098  0.74900554  0.66385558  1
  O  O443  1  0.01627476  0.75030781  0.91298045  1
  O  O444  1  0.51524957  0.08281587  0.16566629  1
  O  O445  1  0.51542094  0.08350454  0.41278728  1
  O  O446  1  0.51495374  0.08290227  0.66654887  1
  O  O447  1  0.51674640  0.08422794  0.91299352  1
  O  O448  1  0.51618144  0.41704891  0.16509652  1
  O  O449  1  0.51894329  0.41672043  0.41482867  1
  O  O450  1  0.51572052  0.41706598  0.66617516  1
  O  O451  1  0.51660692  0.41680254  0.91297146  1
  O  O452  1  0.51466670  0.74972944  0.16309939  1
  O  O453  1  0.51651894  0.74954190  0.41442230  1
  O  O454  1  0.51719186  0.74953720  0.66585257  1
  O  O455  1  0.51471357  0.74946713  0.91412365  1
  O  O456  1  0.48307773  0.24973019  0.08720826  1
  O  O457  1  0.48508264  0.25033337  0.33463105  1
  O  O458  1  0.48110701  0.25012538  0.58593512  1
  O  O459  1  0.48331881  0.25021601  0.83742756  1
  O  O460  1  0.48330317  0.58337251  0.08692496  1
  O  O461  1  0.48604470  0.58339716  0.33649403  1
  O  O462  1  0.48382229  0.58347549  0.58746440  1
  O  O463  1  0.48410348  0.58324117  0.83760408  1
  O  O464  1  0.48192359  0.91710503  0.08503804  1
  O  O465  1  0.48333562  0.91603342  0.33463759  1
  O  O466  1  0.48137937  0.91598850  0.58556833  1
  O  O467  1  0.48475173  0.91630136  0.83814774  1
  O  O468  1  0.98390211  0.25016798  0.08372895  1
  O  O469  1  0.98317896  0.24988896  0.33425823  1
  O  O470  1  0.98339468  0.25095510  0.58820686  1
  O  O471  1  0.98597784  0.24996572  0.83638502  1
  O  O472  1  0.98378969  0.58382234  0.08568481  1
  O  O473  1  0.98524094  0.58372371  0.33617916  1
  O  O474  1  0.98260232  0.58267564  0.58602563  1
  O  O475  1  0.98499425  0.58381659  0.83711419  1
  O  O476  1  0.98242761  0.91610702  0.08725295  1
  O  O477  1  0.98459319  0.91628137  0.33367283  1
  O  O478  1  0.98365481  0.91623277  0.58526415  1
  O  O479  1  0.98404618  0.91681283  0.83413571  1
  O  O480  1  0.08797628  0.31523262  0.07622023  1
  O  O481  1  0.08723332  0.31421275  0.32754468  1
  O  O482  1  0.08657744  0.31682851  0.57851627  1
  O  O483  1  0.09028867  0.31353945  0.82660149  1
  O  O484  1  0.08765252  0.64918420  0.07707023  1
  O  O485  1  0.08861188  0.64960631  0.32807625  1
  O  O486  1  0.08698234  0.64687987  0.57731254  1
  O  O487  1  0.08812820  0.64995680  0.82807521  1
  O  O488  1  0.08614634  0.98078646  0.07739305  1
  O  O489  1  0.08821489  0.98185501  0.32677812  1
  O  O490  1  0.08722342  0.98149758  0.57778307  1
  O  O491  1  0.08801657  0.98172263  0.82806998  1
  O  O492  1  0.58703400  0.31434512  0.07703090  1
  O  O493  1  0.58879238  0.31597871  0.32776235  1
  O  O494  1  0.58524111  0.31480752  0.57775460  1
  O  O495  1  0.58680092  0.31537896  0.82799615  1
  O  O496  1  0.58696290  0.64857002  0.07640603  1
  O  O497  1  0.59021455  0.64714091  0.32723996  1
  O  O498  1  0.58722912  0.64972861  0.57811223  1
  O  O499  1  0.58806298  0.64764611  0.82710485  1
  O  O500  1  0.58635312  0.98157303  0.07650234  1
  O  O501  1  0.58685995  0.98173803  0.32696955  1
  O  O502  1  0.58537978  0.98043453  0.57737056  1
  O  O503  1  0.58773642  0.98245334  0.82858748  1
  O  O504  1  0.41101313  0.01798362  0.17241600  1
  O  O505  1  0.41196211  0.01811436  0.42175572  1
  O  O506  1  0.41094102  0.01805657  0.67288804  1
  O  O507  1  0.41318564  0.01938577  0.92268874  1
  O  O508  1  0.41255910  0.35187138  0.17191887  1
  O  O509  1  0.41474075  0.35222447  0.42250944  1
  O  O510  1  0.41166083  0.35207737  0.67275613  1
  O  O511  1  0.41297959  0.35175624  0.92201128  1
  O  O512  1  0.41115367  0.68462309  0.17152669  1
  O  O513  1  0.41307878  0.68427661  0.42262475  1
  O  O514  1  0.41321562  0.68444534  0.67322651  1
  O  O515  1  0.41135694  0.68334636  0.92264311  1
  O  O516  1  0.91073285  0.01759589  0.17173638  1
  O  O517  1  0.91289870  0.01839305  0.42252257  1
  O  O518  1  0.91202192  0.01921714  0.67258453  1
  O  O519  1  0.91341938  0.01859606  0.92336372  1
  O  O520  1  0.91222708  0.35277875  0.17186015  1
  O  O521  1  0.91152610  0.35202034  0.42336596  1
  O  O522  1  0.91222440  0.35229969  0.67311389  1
  O  O523  1  0.91250842  0.35179554  0.92225627  1
  O  O524  1  0.91306077  0.68394256  0.17158051  1
  O  O525  1  0.91370267  0.68490375  0.42342859  1
  O  O526  1  0.91146533  0.68286658  0.67244316  1
  O  O527  1  0.91250914  0.68523275  0.92337531  1
  O  O528  1  0.16263218  0.01757232  0.20236627  1
  O  O529  1  0.16147088  0.01844179  0.45201329  1
  O  O530  1  0.16374598  0.01962452  0.70268310  1
  O  O531  1  0.16179675  0.01913374  0.95173338  1
  O  O532  1  0.16239852  0.35257090  0.20219836  1
  O  O533  1  0.16200997  0.35266611  0.45313141  1
  O  O534  1  0.16395129  0.35074057  0.70193997  1
  O  O535  1  0.16308148  0.35189434  0.95241414  1
  O  O536  1  0.15957965  0.68497121  0.20231455  1
  O  O537  1  0.16209095  0.68314728  0.45315015  1
  O  O538  1  0.16410273  0.68482423  0.70308756  1
  O  O539  1  0.16265738  0.68407011  0.95221412  1
  O  O540  1  0.66391038  0.01922958  0.20190233  1
  O  O541  1  0.66489556  0.01850600  0.45243254  1
  O  O542  1  0.66200334  0.01813537  0.70279245  1
  O  O543  1  0.66263038  0.01791717  0.95228271  1
  O  O544  1  0.66098764  0.35123325  0.20382056  1
  O  O545  1  0.66340992  0.35262014  0.45271182  1
  O  O546  1  0.66315660  0.35276948  0.70230782  1
  O  O547  1  0.66083826  0.35167684  0.95202660  1
  O  O548  1  0.66267683  0.68421877  0.20271285  1
  O  O549  1  0.66362994  0.68400097  0.45385332  1
  O  O550  1  0.66299287  0.68378221  0.70176060  1
  O  O551  1  0.66393079  0.68494858  0.95261252  1
  O  O552  1  0.33758475  0.31504111  0.04775014  1
  O  O553  1  0.33826930  0.31439492  0.29705792  1
  O  O554  1  0.33797907  0.31523714  0.54801113  1
  O  O555  1  0.33851219  0.31565134  0.79751701  1
  O  O556  1  0.33706630  0.64952050  0.04763865  1
  O  O557  1  0.33602170  0.64857977  0.29745075  1
  O  O558  1  0.33668513  0.64869913  0.54832018  1
  O  O559  1  0.34015621  0.64775456  0.79773770  1
  O  O560  1  0.33799076  0.98035754  0.04826691  1
  O  O561  1  0.33558505  0.98224841  0.29672119  1
  O  O562  1  0.33785579  0.98117918  0.54788441  1
  O  O563  1  0.33894218  0.98193546  0.79692830  1
  O  O564  1  0.83469338  0.31460735  0.04730331  1
  O  O565  1  0.83608128  0.31425777  0.29758141  1
  O  O566  1  0.83886865  0.31572250  0.54807841  1
  O  O567  1  0.83802647  0.31664538  0.79708986  1
  O  O568  1  0.83621014  0.64898312  0.04788135  1
  O  O569  1  0.83671188  0.64818789  0.29743074  1
  O  O570  1  0.83752345  0.64774763  0.54803397  1
  O  O571  1  0.83710621  0.64865409  0.79668307  1
  O  O572  1  0.83693840  0.98174225  0.04712719  1
  O  O573  1  0.83856549  0.98273572  0.29601422  1
  O  O574  1  0.83804736  0.98183427  0.54710917  1
  O  O575  1  0.83707925  0.98030092  0.79807389  1
  O  O576  1  0.41135750  0.14819252  0.17252714  1
  O  O577  1  0.41180250  0.14824260  0.42149199  1
  O  O578  1  0.41114732  0.14830170  0.67301514  1
  O  O579  1  0.41313335  0.14949095  0.92223244  1
  O  O580  1  0.41260573  0.48238522  0.17228862  1
  O  O581  1  0.41528535  0.48218382  0.42301113  1
  O  O582  1  0.41182565  0.48220743  0.67278335  1
  O  O583  1  0.41313040  0.48195363  0.92196781  1
  O  O584  1  0.41119757  0.81511758  0.17129606  1
  O  O585  1  0.41261560  0.81434386  0.42216834  1
  O  O586  1  0.41304120  0.81453084  0.67313031  1
  O  O587  1  0.41033065  0.81334846  0.92313357  1
  O  O588  1  0.91016821  0.14785218  0.17225867  1
  O  O589  1  0.91298453  0.14829941  0.42298938  1
  O  O590  1  0.91205920  0.14946420  0.67208952  1
  O  O591  1  0.91407901  0.14844920  0.92377865  1
  O  O592  1  0.91261136  0.48321267  0.17150496  1
  O  O593  1  0.91197361  0.48193344  0.42350889  1
  O  O594  1  0.91228671  0.48239516  0.67310377  1
  O  O595  1  0.91242123  0.48185727  0.92238902  1
  O  O596  1  0.91271090  0.81430190  0.17175623  1
  O  O597  1  0.91370109  0.81474228  0.42311927  1
  O  O598  1  0.91054367  0.81293682  0.67305197  1
  O  O599  1  0.91239339  0.81508676  0.92290322  1
  O  O600  1  0.08811954  0.18531691  0.07647359  1
  O  O601  1  0.08662683  0.18399519  0.32748477  1
  O  O602  1  0.08714490  0.18663900  0.57803429  1
  O  O603  1  0.08913642  0.18337179  0.82766176  1
  O  O604  1  0.08787785  0.51930382  0.07630811  1
  O  O605  1  0.08925547  0.51949053  0.32724186  1
  O  O606  1  0.08643993  0.51696037  0.57776188  1
  O  O607  1  0.08889900  0.51973220  0.82750035  1
  O  O608  1  0.08600805  0.85077026  0.07780203  1
  O  O609  1  0.08868374  0.85163071  0.32726284  1
  O  O610  1  0.08736159  0.85121199  0.57808038  1
  O  O611  1  0.08769222  0.85127952  0.82787992  1
  O  O612  1  0.58673795  0.18441449  0.07690603  1
  O  O613  1  0.58911515  0.18582542  0.32675754  1
  O  O614  1  0.58477467  0.18474920  0.57745137  1
  O  O615  1  0.58698867  0.18518156  0.82791208  1
  O  O616  1  0.58727588  0.51872156  0.07690919  1
  O  O617  1  0.58932200  0.51705350  0.32813637  1
  O  O618  1  0.58825506  0.51977468  0.57777250  1
  O  O619  1  0.58763961  0.51760588  0.82762545  1
  O  O620  1  0.58582832  0.85170343  0.07592342  1
  O  O621  1  0.58732915  0.85154646  0.32713169  1
  O  O622  1  0.58517030  0.85024191  0.57786646  1
  O  O623  1  0.58832303  0.85202953  0.82830261  1
  O  O624  1  0.33750432  0.18507035  0.04770160  1
  O  O625  1  0.33794009  0.18404311  0.29624888  1
  O  O626  1  0.33817659  0.18527169  0.54789254  1
  O  O627  1  0.33840155  0.18550816  0.79803090  1
  O  O628  1  0.33792523  0.51959504  0.04807699  1
  O  O629  1  0.33572916  0.51856560  0.29771121  1
  O  O630  1  0.33736911  0.51894684  0.54823308  1
  O  O631  1  0.33973798  0.51755948  0.79718917  1
  O  O632  1  0.33707938  0.85033122  0.04802029  1
  O  O633  1  0.33572156  0.85207447  0.29721132  1
  O  O634  1  0.33774618  0.85125881  0.54805410  1
  O  O635  1  0.33929939  0.85154010  0.79700007  1
  O  O636  1  0.83495135  0.18446192  0.04653730  1
  O  O637  1  0.83582151  0.18417833  0.29711325  1
  O  O638  1  0.83902805  0.18547112  0.54821826  1
  O  O639  1  0.83870975  0.18636648  0.79742094  1
  O  O640  1  0.83653958  0.51901043  0.04815633  1
  O  O641  1  0.83684367  0.51816272  0.29718599  1
  O  O642  1  0.83701633  0.51780209  0.54818948  1
  O  O643  1  0.83691710  0.51853667  0.79746086  1
  O  O644  1  0.83681406  0.85159401  0.04777043  1
  O  O645  1  0.83881923  0.85243272  0.29709246  1
  O  O646  1  0.83798523  0.85138346  0.54687571  1
  O  O647  1  0.83717250  0.85000793  0.79703443  1
  O  O648  1  0.16232423  0.14763758  0.20222366  1
  O  O649  1  0.16168061  0.14843489  0.45169949  1
  O  O650  1  0.16401709  0.14979332  0.70331377  1
  O  O651  1  0.16252021  0.14923563  0.95214227  1
  O  O652  1  0.16269127  0.48276647  0.20245606  1
  O  O653  1  0.16182344  0.48289734  0.45411944  1
  O  O654  1  0.16370432  0.48064822  0.70143182  1
  O  O655  1  0.16301697  0.48224437  0.95226001  1
  O  O656  1  0.15981747  0.81513774  0.20216501  1
  O  O657  1  0.16084610  0.81326427  0.45228179  1
  O  O658  1  0.16441178  0.81471963  0.70294282  1
  O  O659  1  0.16216739  0.81415997  0.95190125  1
  O  O660  1  0.66399923  0.14929453  0.20249354  1
  O  O661  1  0.66451967  0.14866931  0.45321772  1
  O  O662  1  0.66188384  0.14842282  0.70246752  1
  O  O663  1  0.66266684  0.14807620  0.95170416  1
  O  O664  1  0.66113302  0.48154552  0.20356581  1
  O  O665  1  0.66392774  0.48268975  0.45302878  1
  O  O666  1  0.66290642  0.48288962  0.70325078  1
  O  O667  1  0.66066770  0.48193400  0.95226011  1
  O  O668  1  0.66248750  0.81436298  0.20226172  1
  O  O669  1  0.66398173  0.81425557  0.45280463  1
  O  O670  1  0.66267531  0.81364658  0.70118692  1
  O  O671  1  0.66404774  0.81511281  0.95279022  1
