# generated using pymatgen
data_Na2MnFe(PO4)2
_symmetry_space_group_name_H-M   'P 1'
_cell_length_a   21.08761881
_cell_length_b   18.94052474
_cell_length_c   20.04668359
_cell_angle_alpha   90.00001949
_cell_angle_beta   90.00284099
_cell_angle_gamma   89.99881819
_symmetry_Int_Tables_number   1
_chemical_formula_structural   Na2MnFe(PO4)2
_chemical_formula_sum   'Na96 Mn48 Fe48 P96 O384'
_cell_volume   8006.85721944
_cell_formula_units_Z   48
loop_
 _symmetry_equiv_pos_site_id
 _symmetry_equiv_pos_as_xyz
  1  'x, y, z'
loop_
 _atom_site_type_symbol
 _atom_site_label
 _atom_site_symmetry_multiplicity
 _atom_site_fract_x
 _atom_site_fract_y
 _atom_site_fract_z
 _atom_site_occupancy
  Na  Na0  1  -0.00039312  0.00106541  -0.00039081  1
  Na  Na1  1  0.00124499  0.00134851  0.24953573  1
  Na  Na2  1  -0.00113033  -0.00007481  0.50082841  1
  Na  Na3  1  -0.00298933  -0.00015423  0.74959464  1
  Na  Na4  1  -0.00195367  0.33338905  0.00049297  1
  Na  Na5  1  -0.00141723  0.33342008  0.25101208  1
  Na  Na6  1  -0.00107673  0.33326607  0.49925752  1
  Na  Na7  1  -0.00083269  0.33365384  0.74953178  1
  Na  Na8  1  0.00069131  0.66607611  0.00034474  1
  Na  Na9  1  0.00165382  0.66670951  0.24838224  1
  Na  Na10  1  0.00185988  0.66740102  0.49963214  1
  Na  Na11  1  -0.00009031  0.66651571  0.75150102  1
  Na  Na12  1  0.49692596  -0.00085548  0.00041802  1
  Na  Na13  1  0.49914733  0.00044849  0.24972148  1
  Na  Na14  1  0.49863242  0.00003101  0.49992410  1
  Na  Na15  1  0.49909970  0.00065442  0.74954290  1
  Na  Na16  1  0.50165903  0.33364596  0.00024133  1
  Na  Na17  1  0.50083295  0.33365718  0.25058074  1
  Na  Na18  1  0.50128025  0.33340656  0.49958873  1
  Na  Na19  1  0.50145228  0.33302535  0.74978887  1
  Na  Na20  1  0.50047171  0.66638909  0.00043037  1
  Na  Na21  1  0.50015606  0.66636199  0.25023676  1
  Na  Na22  1  0.49843979  0.66645460  0.49916896  1
  Na  Na23  1  0.49711870  0.66511929  0.75103531  1
  Na  Na24  1  0.25106332  0.00088283  0.12592579  1
  Na  Na25  1  0.25025403  0.00061090  0.37406485  1
  Na  Na26  1  0.25041620  0.00054577  0.62424617  1
  Na  Na27  1  0.25205793  0.00098641  0.87612125  1
  Na  Na28  1  0.25093998  0.33364969  0.12390656  1
  Na  Na29  1  0.25088285  0.33348260  0.37456445  1
  Na  Na30  1  0.25139679  0.33302727  0.62575778  1
  Na  Na31  1  0.25211510  0.33386588  0.87509144  1
  Na  Na32  1  0.25142378  0.66581281  0.12433094  1
  Na  Na33  1  0.24925258  0.66542943  0.37564818  1
  Na  Na34  1  0.25159769  0.66701313  0.62481269  1
  Na  Na35  1  0.25168134  0.66605413  0.87457229  1
  Na  Na36  1  0.74973808  -0.00020200  0.12599488  1
  Na  Na37  1  0.75036099  -0.00001085  0.37564558  1
  Na  Na38  1  0.75289352  0.00105979  0.62422138  1
  Na  Na39  1  0.75196020  0.00127007  0.87399920  1
  Na  Na40  1  0.74984916  0.33404132  0.12572992  1
  Na  Na41  1  0.74949847  0.33363317  0.37460889  1
  Na  Na42  1  0.74804297  0.33310976  0.62544777  1
  Na  Na43  1  0.74764921  0.33301805  0.87470309  1
  Na  Na44  1  0.74774701  0.66588324  0.12504270  1
  Na  Na45  1  0.74868135  0.66598457  0.37518995  1
  Na  Na46  1  0.75113615  0.66733506  0.62524748  1
  Na  Na47  1  0.74988147  0.66712402  0.87474486  1
  Na  Na48  1  -0.00108005  0.16705896  -0.00049088  1
  Na  Na49  1  0.00033835  0.16707239  0.25035730  1
  Na  Na50  1  0.00043799  0.16674986  0.49995288  1
  Na  Na51  1  -0.00201486  0.16723850  0.74947077  1
  Na  Na52  1  0.00045622  0.49962938  0.00098335  1
  Na  Na53  1  0.00088034  0.49920266  0.24900711  1
  Na  Na54  1  -0.00145518  0.50018736  0.49980366  1
  Na  Na55  1  -0.00079779  0.49974276  0.75028917  1
  Na  Na56  1  -0.00116353  0.83333250  0.00020042  1
  Na  Na57  1  -0.00099305  0.83425332  0.24956584  1
  Na  Na58  1  -0.00004047  0.83393914  0.49981786  1
  Na  Na59  1  -0.00072919  0.83334934  0.75111016  1
  Na  Na60  1  0.49945697  0.16680803  -0.00021716  1
  Na  Na61  1  0.49977768  0.16643251  0.25051370  1
  Na  Na62  1  0.49957880  0.16620195  0.50027326  1
  Na  Na63  1  0.49785592  0.16763817  0.75011290  1
  Na  Na64  1  0.49973276  0.50036755  0.00100233  1
  Na  Na65  1  0.50095594  0.49908934  0.24971788  1
  Na  Na66  1  0.49953307  0.49924502  0.49925885  1
  Na  Na67  1  0.50085215  0.49900078  0.75033349  1
  Na  Na68  1  0.50021576  0.83293461  0.00012672  1
  Na  Na69  1  0.49779448  0.83474308  0.25014700  1
  Na  Na70  1  0.49986933  0.83330209  0.49930063  1
  Na  Na71  1  0.49978380  0.83315665  0.74992835  1
  Na  Na72  1  0.25141219  0.16609602  0.12466883  1
  Na  Na73  1  0.24888262  0.16719117  0.37464953  1
  Na  Na74  1  0.25255125  0.16607629  0.62542213  1
  Na  Na75  1  0.25312930  0.16611319  0.87547852  1
  Na  Na76  1  0.24996506  0.50026443  0.12402992  1
  Na  Na77  1  0.25109674  0.49899648  0.37423188  1
  Na  Na78  1  0.25180097  0.49952705  0.62566705  1
  Na  Na79  1  0.25212154  0.49999106  0.87508264  1
  Na  Na80  1  0.25235221  0.83272504  0.12546314  1
  Na  Na81  1  0.25194159  0.83274645  0.37523973  1
  Na  Na82  1  0.24858387  0.83422214  0.62375583  1
  Na  Na83  1  0.25072396  0.83279771  0.87527106  1
  Na  Na84  1  0.75025509  0.16623104  0.12635356  1
  Na  Na85  1  0.74908502  0.16733218  0.37374486  1
  Na  Na86  1  0.75099704  0.16642438  0.62464873  1
  Na  Na87  1  0.74959916  0.16745679  0.87468256  1
  Na  Na88  1  0.74861253  0.49953349  0.12516373  1
  Na  Na89  1  0.74879989  0.49908346  0.37569758  1
  Na  Na90  1  0.74899467  0.49884809  0.62560975  1
  Na  Na91  1  0.74817156  0.49962247  0.87515930  1
  Na  Na92  1  0.75051610  0.83275394  0.12484387  1
  Na  Na93  1  0.75082458  0.83363311  0.37601440  1
  Na  Na94  1  0.75171722  0.83336105  0.62469435  1
  Na  Na95  1  0.74980283  0.83356346  0.87402388  1
  Mn  Mn96  1  0.14304544  0.91600866  0.24774907  1
  Mn  Mn97  1  0.89209238  0.58384049  0.62743175  1
  Mn  Mn98  1  0.89154814  0.58291997  0.87795271  1
  Mn  Mn99  1  0.14300957  0.91629473  0.99798812  1
  Mn  Mn100  1  0.64157358  0.58301438  0.49816796  1
  Mn  Mn101  1  0.89210368  0.24956100  0.37786699  1
  Mn  Mn102  1  0.14306686  0.24983403  0.74792578  1
  Mn  Mn103  1  0.10824071  0.75044218  0.37197746  1
  Mn  Mn104  1  0.14253360  0.25061469  0.99746321  1
  Mn  Mn105  1  0.39117771  0.91634680  0.62726852  1
  Mn  Mn106  1  0.35883002  0.75003486  0.00245547  1
  Mn  Mn107  1  0.10785439  0.41675578  0.62254950  1
  Mn  Mn108  1  0.60723986  0.74998773  0.12310227  1
  Mn  Mn109  1  0.10810280  0.41651115  0.37302517  1
  Mn  Mn110  1  0.39220808  0.58333596  0.37670950  1
  Mn  Mn111  1  0.85866763  0.74958330  0.50267955  1
  Mn  Mn112  1  0.89150102  0.91660067  0.87771965  1
  Mn  Mn113  1  0.64292586  0.91750423  0.49779942  1
  Mn  Mn114  1  0.64196381  0.91695552  0.99767398  1
  Mn  Mn115  1  0.14234198  0.91693490  0.74793110  1
  Mn  Mn116  1  0.10746100  0.08351075  0.62309206  1
  Mn  Mn117  1  0.64232497  0.24980749  0.24764647  1
  Mn  Mn118  1  0.39222313  0.91646982  0.87739767  1
  Mn  Mn119  1  0.39241663  0.24949458  0.37762228  1
  Mn  Mn120  1  0.14232857  0.25083425  0.24712536  1
  Mn  Mn121  1  0.60745035  0.75058649  0.37255512  1
  Mn  Mn122  1  0.89063359  0.25075518  0.87741410  1
  Mn  Mn123  1  0.35721475  0.74994799  0.50283382  1
  Mn  Mn124  1  0.64271112  0.91734120  0.74731058  1
  Mn  Mn125  1  0.10854409  0.75017076  0.12231913  1
  Mn  Mn126  1  0.60716395  0.08337371  0.12246311  1
  Mn  Mn127  1  0.10787903  0.41616228  0.87348167  1
  Mn  Mn128  1  0.89205467  0.58273481  0.12706873  1
  Mn  Mn129  1  0.10772671  0.08384747  0.87272997  1
  Mn  Mn130  1  0.10786902  0.75005228  0.87286493  1
  Mn  Mn131  1  0.89195541  0.58398053  0.37658312  1
  Mn  Mn132  1  0.60737451  0.74955987  0.62315238  1
  Mn  Mn133  1  0.14326137  0.58339029  0.74797793  1
  Mn  Mn134  1  0.64135029  0.58370220  0.74738083  1
  Mn  Mn135  1  0.85742211  0.74919346  0.25221883  1
  Mn  Mn136  1  0.85796502  0.08305280  0.25266532  1
  Mn  Mn137  1  0.39281722  0.25030103  0.12745190  1
  Mn  Mn138  1  0.14252375  0.58220745  0.49801354  1
  Mn  Mn139  1  0.35931748  0.41655181  0.75292676  1
  Mn  Mn140  1  0.60761350  0.08314371  0.87305382  1
  Mn  Mn141  1  0.89194345  0.91751380  0.12724941  1
  Mn  Mn142  1  0.60748060  0.08317240  0.62238747  1
  Mn  Mn143  1  0.85635621  0.41662762  0.75220531  1
  Fe  Fe144  1  0.10752802  0.08431457  0.12307993  1
  Fe  Fe145  1  0.60735367  0.41662417  0.12326212  1
  Fe  Fe146  1  0.89276938  0.91697881  0.37647662  1
  Fe  Fe147  1  0.89232092  0.25032071  0.12594065  1
  Fe  Fe148  1  0.35755894  0.75082902  0.75158656  1
  Fe  Fe149  1  0.39300092  0.25041242  0.62638477  1
  Fe  Fe150  1  0.89190999  0.25017318  0.62608134  1
  Fe  Fe151  1  0.10746934  0.08335216  0.37387399  1
  Fe  Fe152  1  0.64308416  0.24978561  0.99866290  1
  Fe  Fe153  1  0.64218390  0.91616637  0.24892280  1
  Fe  Fe154  1  0.35821103  0.41559374  0.50159642  1
  Fe  Fe155  1  0.60705468  0.08284512  0.37388791  1
  Fe  Fe156  1  0.35756495  0.41656988  0.25113806  1
  Fe  Fe157  1  0.85788356  0.75002195  0.75201787  1
  Fe  Fe158  1  0.35765039  0.08371328  0.00246686  1
  Fe  Fe159  1  0.64218492  0.58325703  0.99839497  1
  Fe  Fe160  1  0.85661974  0.41736885  0.25148943  1
  Fe  Fe161  1  0.14296172  0.24987341  0.49950002  1
  Fe  Fe162  1  0.35847029  0.41642573  0.00239917  1
  Fe  Fe163  1  0.60644885  0.41656168  0.62285848  1
  Fe  Fe164  1  0.85717295  0.08390504  0.00210195  1
  Fe  Fe165  1  0.35760256  0.74944662  0.25178625  1
  Fe  Fe166  1  0.35708798  0.08358902  0.25245944  1
  Fe  Fe167  1  0.14416025  0.58298974  0.99814820  1
  Fe  Fe168  1  0.10754917  0.75011840  0.62430910  1
  Fe  Fe169  1  0.39266141  0.91721396  0.37665418  1
  Fe  Fe170  1  0.85700138  0.08387628  0.75141046  1
  Fe  Fe171  1  0.85624470  0.41608620  0.50174205  1
  Fe  Fe172  1  0.60691145  0.41666408  0.87429648  1
  Fe  Fe173  1  0.85637458  0.74960212  0.00147668  1
  Fe  Fe174  1  0.60724583  0.41630544  0.37314293  1
  Fe  Fe175  1  0.14199579  0.91779962  0.49791876  1
  Fe  Fe176  1  0.89338504  0.91662112  0.62655648  1
  Fe  Fe177  1  0.39257810  0.58264581  0.62665887  1
  Fe  Fe178  1  0.14346631  0.58276408  0.24804493  1
  Fe  Fe179  1  0.39240029  0.91608489  0.12769513  1
  Fe  Fe180  1  0.85763067  0.08458299  0.50119725  1
  Fe  Fe181  1  0.35786668  0.08265158  0.75193320  1
  Fe  Fe182  1  0.39382076  0.25074129  0.87694949  1
  Fe  Fe183  1  0.64194611  0.24901701  0.74772156  1
  Fe  Fe184  1  0.64210876  0.58368352  0.24823607  1
  Fe  Fe185  1  0.64253578  0.24931915  0.49890734  1
  Fe  Fe186  1  0.60750300  0.74978150  0.87286638  1
  Fe  Fe187  1  0.85602252  0.41682238  0.00217152  1
  Fe  Fe188  1  0.39326174  0.58321599  0.12722033  1
  Fe  Fe189  1  0.35678664  0.08396851  0.50109935  1
  Fe  Fe190  1  0.10735892  0.41598413  0.12293948  1
  Fe  Fe191  1  0.39381176  0.58269844  0.87744729  1
  P  P192  1  0.05232828  0.25063508  0.11003173  1
  P  P193  1  0.05500014  0.24935748  0.36147499  1
  P  P194  1  0.05243054  0.25008981  0.60950031  1
  P  P195  1  0.05257951  0.25031634  0.85954142  1
  P  P196  1  0.05596398  0.58201429  0.11042902  1
  P  P197  1  0.05420758  0.58296867  0.35859942  1
  P  P198  1  0.05332039  0.58402304  0.61028440  1
  P  P199  1  0.05463806  0.58271732  0.86133301  1
  P  P200  1  0.05366918  0.91783807  0.10982183  1
  P  P201  1  0.05356160  0.91812646  0.36092100  1
  P  P202  1  0.05300869  0.91632660  0.61000702  1
  P  P203  1  0.05308525  0.91716710  0.86004367  1
  P  P204  1  0.55427294  0.25060369  0.10959723  1
  P  P205  1  0.55492255  0.24937097  0.36166858  1
  P  P206  1  0.55376012  0.25000428  0.61042815  1
  P  P207  1  0.55449821  0.25037036  0.86093167  1
  P  P208  1  0.55421262  0.58259650  0.11090172  1
  P  P209  1  0.55393051  0.58235649  0.35947997  1
  P  P210  1  0.55137967  0.58274808  0.60997436  1
  P  P211  1  0.55387852  0.58300360  0.86176694  1
  P  P212  1  0.55257639  0.91663112  0.11121608  1
  P  P213  1  0.55262689  0.91786983  0.35970124  1
  P  P214  1  0.55273790  0.91665850  0.60958470  1
  P  P215  1  0.55342430  0.91633962  0.85977908  1
  P  P216  1  0.44467845  0.08298284  0.13989493  1
  P  P217  1  0.44587823  0.08269329  0.38950307  1
  P  P218  1  0.44445518  0.08427683  0.63905757  1
  P  P219  1  0.44496230  0.08419716  0.88961687  1
  P  P220  1  0.44663166  0.41722740  0.13959928  1
  P  P221  1  0.44617662  0.41630207  0.38910115  1
  P  P222  1  0.44662254  0.41593953  0.63859564  1
  P  P223  1  0.44775884  0.41626137  0.89081688  1
  P  P224  1  0.44596528  0.74938897  0.14076798  1
  P  P225  1  0.44494720  0.75085581  0.38868604  1
  P  P226  1  0.44582294  0.74921948  0.64059082  1
  P  P227  1  0.44720031  0.74930226  0.88899647  1
  P  P228  1  0.94644310  0.08481407  0.13889614  1
  P  P229  1  0.94732583  0.08282681  0.39060010  1
  P  P230  1  0.94437304  0.08411961  0.63887702  1
  P  P231  1  0.94430025  0.08399239  0.88963816  1
  P  P232  1  0.94539904  0.41594621  0.13941479  1
  P  P233  1  0.94461687  0.41717570  0.38940995  1
  P  P234  1  0.94485972  0.41570537  0.63873964  1
  P  P235  1  0.94527334  0.41676654  0.89133584  1
  P  P236  1  0.94548417  0.74959701  0.13867764  1
  P  P237  1  0.94698389  0.75060005  0.38951558  1
  P  P238  1  0.94773085  0.75083369  0.64083726  1
  P  P239  1  0.94477787  0.74957280  0.89044080  1
  P  P240  1  0.19612381  0.08353706  0.23562754  1
  P  P241  1  0.19684202  0.08396427  0.48479328  1
  P  P242  1  0.19846996  0.08349249  0.73516008  1
  P  P243  1  0.19690483  0.08377355  0.98623610  1
  P  P244  1  0.19752925  0.41703291  0.23394636  1
  P  P245  1  0.19860522  0.41538543  0.48526787  1
  P  P246  1  0.19759358  0.41661627  0.73522451  1
  P  P247  1  0.19764581  0.41735979  0.98598279  1
  P  P248  1  0.19850325  0.74912244  0.23495235  1
  P  P249  1  0.19493305  0.75068371  0.48620476  1
  P  P250  1  0.19782147  0.74992449  0.73448744  1
  P  P251  1  0.19762578  0.74871255  0.98497006  1
  P  P252  1  0.69500357  0.08196844  0.23655039  1
  P  P253  1  0.69746342  0.08451847  0.48454766  1
  P  P254  1  0.69748575  0.08400294  0.73466716  1
  P  P255  1  0.69792681  0.08418615  0.98533041  1
  P  P256  1  0.69519778  0.41725629  0.23569233  1
  P  P257  1  0.69492601  0.41530653  0.48594202  1
  P  P258  1  0.69310713  0.41573493  0.73584936  1
  P  P259  1  0.69533997  0.41637813  0.98624312  1
  P  P260  1  0.69612999  0.75050874  0.23539095  1
  P  P261  1  0.69678898  0.75021043  0.48520883  1
  P  P262  1  0.69695691  0.75027542  0.73572611  1
  P  P263  1  0.69645186  0.74941903  0.98451049  1
  P  P264  1  0.30544657  0.25045474  0.01370281  1
  P  P265  1  0.30387934  0.25030305  0.26461133  1
  P  P266  1  0.30322589  0.24974960  0.51525004  1
  P  P267  1  0.30620213  0.24929372  0.76476859  1
  P  P268  1  0.30581335  0.58224349  0.01435602  1
  P  P269  1  0.30393731  0.58270771  0.26334547  1
  P  P270  1  0.30439416  0.58182255  0.51541621  1
  P  P271  1  0.30645069  0.58410573  0.76462676  1
  P  P272  1  0.30460061  0.91740731  0.01615744  1
  P  P273  1  0.30556507  0.91676091  0.26457326  1
  P  P274  1  0.30290012  0.91810438  0.51318343  1
  P  P275  1  0.30335897  0.91651020  0.76501788  1
  P  P276  1  0.80224030  0.25047663  0.01578251  1
  P  P277  1  0.80490821  0.25106497  0.26363047  1
  P  P278  1  0.80243766  0.25026497  0.51502504  1
  P  P279  1  0.80253378  0.24972597  0.76349457  1
  P  P280  1  0.80141570  0.58312551  0.01495227  1
  P  P281  1  0.80144117  0.58225571  0.26478230  1
  P  P282  1  0.80280444  0.58198232  0.51513458  1
  P  P283  1  0.80287533  0.58358440  0.76520980  1
  P  P284  1  0.80296483  0.91675635  0.01498803  1
  P  P285  1  0.80267161  0.91644073  0.26586722  1
  P  P286  1  0.80601684  0.91791345  0.51427268  1
  P  P287  1  0.80531730  0.91683596  0.76319482  1
  O  O288  1  0.05588932  0.25079784  0.18676556  1
  O  O289  1  0.05958193  0.25029421  0.43813448  1
  O  O290  1  0.05662697  0.25013124  0.68617588  1
  O  O291  1  0.05644072  0.25034654  0.93631277  1
  O  O292  1  0.06048954  0.58284479  0.18718605  1
  O  O293  1  0.05736829  0.58265997  0.43540672  1
  O  O294  1  0.05652688  0.58297529  0.68705682  1
  O  O295  1  0.05954346  0.58262530  0.93803706  1
  O  O296  1  0.05705373  0.91703768  0.18664123  1
  O  O297  1  0.05827033  0.91749261  0.43761852  1
  O  O298  1  0.05641454  0.91719633  0.68673935  1
  O  O299  1  0.05678156  0.91717438  0.93678922  1
  O  O300  1  0.55707430  0.24981739  0.18642603  1
  O  O301  1  0.55853392  0.24918623  0.43838123  1
  O  O302  1  0.55805066  0.24883435  0.68716519  1
  O  O303  1  0.55932316  0.24927405  0.93761822  1
  O  O304  1  0.55885148  0.58322775  0.18758022  1
  O  O305  1  0.55649367  0.58302203  0.43628347  1
  O  O306  1  0.55494222  0.58334758  0.68671327  1
  O  O307  1  0.55839232  0.58342736  0.93847719  1
  O  O308  1  0.55771860  0.91686948  0.18778660  1
  O  O309  1  0.55671166  0.91725808  0.43639040  1
  O  O310  1  0.55640403  0.91713584  0.68633533  1
  O  O311  1  0.55631157  0.91702638  0.93662774  1
  O  O312  1  0.44091521  0.08374036  0.06307761  1
  O  O313  1  0.44124309  0.08381701  0.31283256  1
  O  O314  1  0.44027642  0.08347922  0.56228219  1
  O  O315  1  0.44136899  0.08323016  0.81281111  1
  O  O316  1  0.44220043  0.41649382  0.06291601  1
  O  O317  1  0.44125220  0.41617259  0.31244843  1
  O  O318  1  0.44224088  0.41565067  0.56190039  1
  O  O319  1  0.44482803  0.41616765  0.81404591  1
  O  O320  1  0.44387985  0.74943813  0.06392102  1
  O  O321  1  0.44092109  0.74982673  0.31195304  1
  O  O322  1  0.44291981  0.75033732  0.56372330  1
  O  O323  1  0.44223451  0.75018790  0.81243203  1
  O  O324  1  0.94110044  0.08407323  0.06224922  1
  O  O325  1  0.94390567  0.08373180  0.31383231  1
  O  O326  1  0.94091516  0.08462969  0.56211756  1
  O  O327  1  0.93985364  0.08416814  0.81285136  1
  O  O328  1  0.93991883  0.41701250  0.06276668  1
  O  O329  1  0.94034544  0.41728436  0.31264419  1
  O  O330  1  0.94047729  0.41616449  0.56201153  1
  O  O331  1  0.94167003  0.41685566  0.81455860  1
  O  O332  1  0.94035007  0.74898233  0.06198429  1
  O  O333  1  0.94367979  0.74974270  0.31271376  1
  O  O334  1  0.94433055  0.74994756  0.56406663  1
  O  O335  1  0.94042945  0.74941365  0.81364959  1
  O  O336  1  0.19148858  0.08422023  0.06290498  1
  O  O337  1  0.19108933  0.08360212  0.31226195  1
  O  O338  1  0.19347618  0.08364957  0.56151057  1
  O  O339  1  0.19456941  0.08371566  0.81184298  1
  O  O340  1  0.19230743  0.41620177  0.06255302  1
  O  O341  1  0.19369478  0.41623155  0.31064896  1
  O  O342  1  0.19468655  0.41613778  0.56193169  1
  O  O343  1  0.19407796  0.41668573  0.81195358  1
  O  O344  1  0.19463495  0.74940219  0.06174732  1
  O  O345  1  0.19467174  0.74989089  0.31167619  1
  O  O346  1  0.19076579  0.75047109  0.56293113  1
  O  O347  1  0.19395546  0.74964876  0.81121841  1
  O  O348  1  0.69387180  0.08332648  0.06201796  1
  O  O349  1  0.69080022  0.08265207  0.31324017  1
  O  O350  1  0.69377134  0.08362013  0.56123502  1
  O  O351  1  0.69352066  0.08353494  0.81132879  1
  O  O352  1  0.69112888  0.41661914  0.06296467  1
  O  O353  1  0.69083734  0.41640708  0.31241210  1
  O  O354  1  0.69009086  0.41640167  0.56267631  1
  O  O355  1  0.68927080  0.41661267  0.81266749  1
  O  O356  1  0.69254790  0.74999906  0.06122891  1
  O  O357  1  0.69353470  0.75060962  0.31215664  1
  O  O358  1  0.69344917  0.75034987  0.56197958  1
  O  O359  1  0.69137699  0.74997432  0.81236899  1
  O  O360  1  0.30686600  0.25025373  0.18787606  1
  O  O361  1  0.30652973  0.24998759  0.43844435  1
  O  O362  1  0.30991163  0.25049785  0.68798630  1
  O  O363  1  0.30963635  0.25083531  0.93700253  1
  O  O364  1  0.30851678  0.58282737  0.18667939  1
  O  O365  1  0.30711715  0.58245794  0.43858250  1
  O  O366  1  0.31022998  0.58276850  0.68783095  1
  O  O367  1  0.31066452  0.58276935  0.93761174  1
  O  O368  1  0.30915241  0.91671126  0.18776087  1
  O  O369  1  0.30791838  0.91740595  0.43657989  1
  O  O370  1  0.30545878  0.91643199  0.68820579  1
  O  O371  1  0.30723931  0.91640875  0.93932734  1
  O  O372  1  0.80895750  0.25023203  0.18696127  1
  O  O373  1  0.80577308  0.25031341  0.43826723  1
  O  O374  1  0.80735806  0.25047250  0.68691178  1
  O  O375  1  0.80496401  0.25066927  0.93900709  1
  O  O376  1  0.80540860  0.58279305  0.18812603  1
  O  O377  1  0.80566281  0.58272114  0.43838745  1
  O  O378  1  0.80623019  0.58298473  0.68844375  1
  O  O379  1  0.80500422  0.58289861  0.93831510  1
  O  O380  1  0.80658680  0.91680120  0.18913494  1
  O  O381  1  0.80988218  0.91691260  0.43750002  1
  O  O382  1  0.80933294  0.91634392  0.68644129  1
  O  O383  1  0.80555427  0.91699208  0.93819282  1
  O  O384  1  0.23552459  0.25008554  0.03819715  1
  O  O385  1  0.23424718  0.25041389  0.28975623  1
  O  O386  1  0.23328842  0.24950711  0.54026234  1
  O  O387  1  0.23629087  0.25001369  0.78938630  1
  O  O388  1  0.23541715  0.58285564  0.03773165  1
  O  O389  1  0.23374261  0.58230204  0.28765741  1
  O  O390  1  0.23473508  0.58282058  0.54062797  1
  O  O391  1  0.23646766  0.58308554  0.78892716  1
  O  O392  1  0.23502138  0.91683893  0.04160162  1
  O  O393  1  0.23555396  0.91672870  0.28896298  1
  O  O394  1  0.23257486  0.91819922  0.53700440  1
  O  O395  1  0.23409584  0.91685399  0.79137768  1
  O  O396  1  0.73231045  0.25034784  0.04095009  1
  O  O397  1  0.73483663  0.25069750  0.28774626  1
  O  O398  1  0.73242729  0.24998005  0.53979524  1
  O  O399  1  0.73226221  0.24997110  0.78745642  1
  O  O400  1  0.73127546  0.58277623  0.03950601  1
  O  O401  1  0.73140683  0.58274147  0.28931472  1
  O  O402  1  0.73322426  0.58276101  0.54072859  1
  O  O403  1  0.73310591  0.58331266  0.79003721  1
  O  O404  1  0.73338609  0.91651324  0.04063254  1
  O  O405  1  0.73261487  0.91663160  0.29025853  1
  O  O406  1  0.73594905  0.91732462  0.53854673  1
  O  O407  1  0.73543641  0.91720235  0.78787924  1
  O  O408  1  0.26673177  0.08347076  0.21267792  1
  O  O409  1  0.26693313  0.08409865  0.46003739  1
  O  O410  1  0.26849393  0.08321264  0.71071249  1
  O  O411  1  0.26743262  0.08378585  0.96325041  1
  O  O412  1  0.26774562  0.41666051  0.20976448  1
  O  O413  1  0.26864680  0.41568188  0.46058817  1
  O  O414  1  0.26757135  0.41652977  0.71094937  1
  O  O415  1  0.26805990  0.41714766  0.96247071  1
  O  O416  1  0.26858252  0.74950043  0.21053966  1
  O  O417  1  0.26501997  0.74942077  0.46202987  1
  O  O418  1  0.26784887  0.75040735  0.71001472  1
  O  O419  1  0.26735278  0.74905153  0.95995907  1
  O  O420  1  0.76508156  0.08270034  0.21249584  1
  O  O421  1  0.76758007  0.08425810  0.46007377  1
  O  O422  1  0.76752408  0.08365323  0.71025198  1
  O  O423  1  0.76795085  0.08435194  0.96078437  1
  O  O424  1  0.76550041  0.41671562  0.21185189  1
  O  O425  1  0.76528853  0.41564932  0.46233743  1
  O  O426  1  0.76317482  0.41623144  0.71185515  1
  O  O427  1  0.76566266  0.41641115  0.96216154  1
  O  O428  1  0.76558158  0.74976278  0.20957294  1
  O  O429  1  0.76655660  0.74990070  0.46040715  1
  O  O430  1  0.76740580  0.75021947  0.71249284  1
  O  O431  1  0.76666127  0.75006914  0.96035070  1
  O  O432  1  0.01682965  0.08462236  0.16247846  1
  O  O433  1  0.01725769  0.08336058  0.41539821  1
  O  O434  1  0.01434514  0.08368813  0.66361998  1
  O  O435  1  0.01442920  0.08404391  0.91338933  1
  O  O436  1  0.01595261  0.41643366  0.16256539  1
  O  O437  1  0.01480755  0.41674099  0.41322238  1
  O  O438  1  0.01484804  0.41632615  0.66310133  1
  O  O439  1  0.01512121  0.41645415  0.91588391  1
  O  O440  1  0.01572343  0.74994512  0.16222953  1
  O  O441  1  0.01666251  0.75058405  0.41451120  1
  O  O442  1  0.01773863  0.75033206  0.66570864  1
  O  O443  1  0.01492274  0.74970397  0.91417998  1
  O  O444  1  0.51472735  0.08400927  0.16399100  1
  O  O445  1  0.51620622  0.08298698  0.41331680  1
  O  O446  1  0.51453044  0.08389139  0.66322773  1
  O  O447  1  0.51491251  0.08308226  0.91418129  1
  O  O448  1  0.51700750  0.41648284  0.16324685  1
  O  O449  1  0.51662848  0.41631463  0.41240352  1
  O  O450  1  0.51678465  0.41590271  0.66293337  1
  O  O451  1  0.51779834  0.41669416  0.91558959  1
  O  O452  1  0.51549541  0.74996953  0.16636534  1
  O  O453  1  0.51490391  0.75029979  0.41306760  1
  O  O454  1  0.51542749  0.74950713  0.66594109  1
  O  O455  1  0.51743487  0.74954039  0.91312849  1
  O  O456  1  0.48454108  0.25029044  0.08474143  1
  O  O457  1  0.48502091  0.24981126  0.33679166  1
  O  O458  1  0.48346957  0.24986031  0.58646624  1
  O  O459  1  0.48408852  0.25028977  0.83735074  1
  O  O460  1  0.48380873  0.58329982  0.08739979  1
  O  O461  1  0.48424482  0.58266260  0.33431320  1
  O  O462  1  0.48150198  0.58280633  0.58497470  1
  O  O463  1  0.48356853  0.58219631  0.83781888  1
  O  O464  1  0.48216599  0.91597961  0.08776614  1
  O  O465  1  0.48244650  0.91764531  0.33560717  1
  O  O466  1  0.48292885  0.91657140  0.58493205  1
  O  O467  1  0.48377215  0.91679131  0.83461880  1
  O  O468  1  0.98233996  0.25050232  0.08524834  1
  O  O469  1  0.98487350  0.24989005  0.33756282  1
  O  O470  1  0.98225868  0.24978907  0.58531612  1
  O  O471  1  0.98274438  0.25051191  0.83506374  1
  O  O472  1  0.98563788  0.58258490  0.08694657  1
  O  O473  1  0.98448243  0.58314242  0.33354630  1
  O  O474  1  0.98367980  0.58389925  0.58496395  1
  O  O475  1  0.98448449  0.58288124  0.83767296  1
  O  O476  1  0.98393205  0.91744286  0.08488518  1
  O  O477  1  0.98332753  0.91773941  0.33681476  1
  O  O478  1  0.98284606  0.91695235  0.58564800  1
  O  O479  1  0.98328811  0.91692350  0.83551691  1
  O  O480  1  0.08615057  0.31582203  0.07734366  1
  O  O481  1  0.08849481  0.31422018  0.32781812  1
  O  O482  1  0.08630733  0.31496503  0.57636907  1
  O  O483  1  0.08664148  0.31532951  0.82706372  1
  O  O484  1  0.08987925  0.64668649  0.07690551  1
  O  O485  1  0.08870706  0.64788761  0.32622349  1
  O  O486  1  0.08737035  0.64930371  0.57848561  1
  O  O487  1  0.08811123  0.64781628  0.82815936  1
  O  O488  1  0.08744997  0.98316815  0.07775520  1
  O  O489  1  0.08688517  0.98338739  0.32816050  1
  O  O490  1  0.08702580  0.98126196  0.57694414  1
  O  O491  1  0.08672241  0.98226258  0.82723612  1
  O  O492  1  0.58828698  0.31581130  0.07757725  1
  O  O493  1  0.58872913  0.31447347  0.32887660  1
  O  O494  1  0.58732447  0.31511862  0.57767158  1
  O  O495  1  0.58763088  0.31567188  0.82814704  1
  O  O496  1  0.58788439  0.64736370  0.07730264  1
  O  O497  1  0.58831606  0.64728153  0.32697157  1
  O  O498  1  0.58526575  0.64774602  0.57726350  1
  O  O499  1  0.58668557  0.64811895  0.82802497  1
  O  O500  1  0.58530213  0.98178371  0.07738928  1
  O  O501  1  0.58636656  0.98292125  0.32699186  1
  O  O502  1  0.58657941  0.98175889  0.57687653  1
  O  O503  1  0.58758683  0.98140964  0.82732510  1
  O  O504  1  0.41148865  0.01768836  0.17267462  1
  O  O505  1  0.41228820  0.01766057  0.42241007  1
  O  O506  1  0.41058374  0.01942767  0.67242250  1
  O  O507  1  0.41040263  0.01972343  0.92277970  1
  O  O508  1  0.41291432  0.35252155  0.17324446  1
  O  O509  1  0.41298309  0.35133664  0.42286342  1
  O  O510  1  0.41337707  0.35089993  0.67199062  1
  O  O511  1  0.41405532  0.35113673  0.92346736  1
  O  O512  1  0.41202516  0.68396653  0.17282588  1
  O  O513  1  0.41115233  0.68595381  0.42175974  1
  O  O514  1  0.41169902  0.68403410  0.67239826  1
  O  O515  1  0.41401790  0.68409414  0.92211249  1
  O  O516  1  0.91328145  0.01975851  0.17261538  1
  O  O517  1  0.91324183  0.01781627  0.42275500  1
  O  O518  1  0.91048989  0.01896543  0.67140830  1
  O  O519  1  0.91072628  0.01904086  0.92291270  1
  O  O520  1  0.91233402  0.35072833  0.17252872  1
  O  O521  1  0.91076327  0.35225400  0.42258902  1
  O  O522  1  0.91156151  0.35028156  0.67154993  1
  O  O523  1  0.91087075  0.35186691  0.92380059  1
  O  O524  1  0.91245646  0.68443451  0.17221168  1
  O  O525  1  0.91309648  0.68549888  0.42226830  1
  O  O526  1  0.91327515  0.68615952  0.67380311  1
  O  O527  1  0.91114354  0.68467354  0.92376776  1
  O  O528  1  0.16287948  0.01857377  0.20217691  1
  O  O529  1  0.16281261  0.01910202  0.45174489  1
  O  O530  1  0.16445981  0.01859085  0.70239098  1
  O  O531  1  0.16401834  0.01855641  0.95289619  1
  O  O532  1  0.16353513  0.35217258  0.20073148  1
  O  O533  1  0.16486932  0.35021639  0.45278952  1
  O  O534  1  0.16375383  0.35160395  0.70254219  1
  O  O535  1  0.16436332  0.35246822  0.95217966  1
  O  O536  1  0.16484415  0.68408174  0.20239941  1
  O  O537  1  0.16104164  0.68577604  0.45322529  1
  O  O538  1  0.16417470  0.68482659  0.70160082  1
  O  O539  1  0.16382057  0.68346664  0.95277749  1
  O  O540  1  0.66180821  0.01670681  0.20354564  1
  O  O541  1  0.66327689  0.01966859  0.45159954  1
  O  O542  1  0.66375395  0.01912506  0.70150982  1
  O  O543  1  0.66427234  0.01920103  0.95217860  1
  O  O544  1  0.66147344  0.35246958  0.20212225  1
  O  O545  1  0.66178062  0.35004086  0.45295330  1
  O  O546  1  0.65971052  0.35047527  0.70312359  1
  O  O547  1  0.66196102  0.35116102  0.95319979  1
  O  O548  1  0.66147968  0.68551463  0.20340197  1
  O  O549  1  0.66242221  0.68526867  0.45299521  1
  O  O550  1  0.66374857  0.68517770  0.70228338  1
  O  O551  1  0.66296971  0.68406022  0.95195329  1
  O  O552  1  0.33889590  0.31562015  0.04686892  1
  O  O553  1  0.33808477  0.31543018  0.29679179  1
  O  O554  1  0.33747313  0.31464482  0.54797370  1
  O  O555  1  0.34053384  0.31396775  0.79813082  1
  O  O556  1  0.33944521  0.64706714  0.04785142  1
  O  O557  1  0.33702271  0.64779172  0.29684320  1
  O  O558  1  0.33917241  0.64652586  0.54786816  1
  O  O559  1  0.33957101  0.64971486  0.79699932  1
  O  O560  1  0.33868967  0.98262187  0.04807958  1
  O  O561  1  0.33912899  0.98205266  0.29737577  1
  O  O562  1  0.33638134  0.98310197  0.54623283  1
  O  O563  1  0.33811772  0.98149554  0.79682302  1
  O  O564  1  0.83633848  0.31554233  0.04827703  1
  O  O565  1  0.83810274  0.31631199  0.29642842  1
  O  O566  1  0.83626414  0.31524433  0.54795360  1
  O  O567  1  0.83567532  0.31464817  0.79734224  1
  O  O568  1  0.83499864  0.64829723  0.04765116  1
  O  O569  1  0.83540263  0.64719083  0.29770063  1
  O  O570  1  0.83745206  0.64687366  0.54745429  1
  O  O571  1  0.83696798  0.64867235  0.79736738  1
  O  O572  1  0.83693667  0.98203250  0.04733325  1
  O  O573  1  0.83692318  0.98132373  0.29864565  1
  O  O574  1  0.83928363  0.98345024  0.54654723  1
  O  O575  1  0.83890435  0.98217746  0.79569832  1
  O  O576  1  0.41059741  0.14771128  0.17320089  1
  O  O577  1  0.41232304  0.14754343  0.42321040  1
  O  O578  1  0.41114960  0.14956644  0.67177614  1
  O  O579  1  0.41191728  0.14977050  0.92218326  1
  O  O580  1  0.41351990  0.48247185  0.17269044  1
  O  O581  1  0.41274268  0.48117822  0.42245184  1
  O  O582  1  0.41339583  0.48105150  0.67180978  1
  O  O583  1  0.41347764  0.48105800  0.92339788  1
  O  O584  1  0.41108229  0.81411413  0.17281855  1
  O  O585  1  0.41167148  0.81623899  0.42136180  1
  O  O586  1  0.41132725  0.81414319  0.67318354  1
  O  O587  1  0.41375117  0.81421643  0.92257955  1
  O  O588  1  0.91318479  0.14987175  0.17208598  1
  O  O589  1  0.91294690  0.14763099  0.42352558  1
  O  O590  1  0.91066996  0.14920874  0.67195228  1
  O  O591  1  0.91060350  0.14890223  0.92288007  1
  O  O592  1  0.91192430  0.48080984  0.17327848  1
  O  O593  1  0.91113461  0.48215888  0.42254123  1
  O  O594  1  0.91102322  0.48052243  0.67207784  1
  O  O595  1  0.91126487  0.48163986  0.92431768  1
  O  O596  1  0.91206061  0.81471153  0.17165851  1
  O  O597  1  0.91299893  0.81575245  0.42163553  1
  O  O598  1  0.91392252  0.81617620  0.67296314  1
  O  O599  1  0.91101905  0.81456428  0.92337989  1
  O  O600  1  0.08641506  0.18569377  0.07740540  1
  O  O601  1  0.08801348  0.18390281  0.32864178  1
  O  O602  1  0.08657269  0.18510518  0.57683679  1
  O  O603  1  0.08639061  0.18519057  0.82688610  1
  O  O604  1  0.08905658  0.51653642  0.07759484  1
  O  O605  1  0.08846192  0.51790056  0.32622146  1
  O  O606  1  0.08733382  0.51901938  0.57730134  1
  O  O607  1  0.08790491  0.51771502  0.82790080  1
  O  O608  1  0.08781264  0.85274674  0.07732887  1
  O  O609  1  0.08714528  0.85327556  0.32728744  1
  O  O610  1  0.08670200  0.85117883  0.57754606  1
  O  O611  1  0.08704424  0.85201311  0.82764823  1
  O  O612  1  0.58860076  0.18585456  0.07672921  1
  O  O613  1  0.58829598  0.18417581  0.32871107  1
  O  O614  1  0.58743222  0.18530884  0.57669955  1
  O  O615  1  0.58772165  0.18550779  0.82686615  1
  O  O616  1  0.58724132  0.51736557  0.07769540  1
  O  O617  1  0.58796797  0.51714408  0.32742841  1
  O  O618  1  0.58531345  0.51761944  0.57765084  1
  O  O619  1  0.58731608  0.51789565  0.82891641  1
  O  O620  1  0.58611511  0.85175328  0.07791998  1
  O  O621  1  0.58639534  0.85290522  0.32648688  1
  O  O622  1  0.58677722  0.85161793  0.57727259  1
  O  O623  1  0.58741851  0.85111987  0.82776218  1
  O  O624  1  0.33922228  0.18544806  0.04661756  1
  O  O625  1  0.33786734  0.18518398  0.29720122  1
  O  O626  1  0.33748245  0.18467718  0.54742338  1
  O  O627  1  0.33974210  0.18392402  0.79707425  1
  O  O628  1  0.33901145  0.51718081  0.04773309  1
  O  O629  1  0.33754171  0.51755334  0.29623951  1
  O  O630  1  0.33819868  0.51642534  0.54749203  1
  O  O631  1  0.34081597  0.51953597  0.79811466  1
  O  O632  1  0.33927422  0.85249003  0.04845784  1
  O  O633  1  0.33934478  0.85179524  0.29747242  1
  O  O634  1  0.33597802  0.85303153  0.54688411  1
  O  O635  1  0.33763318  0.85124525  0.79706407  1
  O  O636  1  0.83659651  0.18554255  0.04823095  1
  O  O637  1  0.83842506  0.18611437  0.29706514  1
  O  O638  1  0.83674415  0.18528600  0.54739111  1
  O  O639  1  0.83585894  0.18458307  0.79652024  1
  O  O640  1  0.83531992  0.51816690  0.04784385  1
  O  O641  1  0.83504329  0.51710878  0.29735208  1
  O  O642  1  0.83639667  0.51654205  0.54722983  1
  O  O643  1  0.83666505  0.51846148  0.79791553  1
  O  O644  1  0.83722766  0.85158616  0.04692162  1
  O  O645  1  0.83673714  0.85142035  0.29833360  1
  O  O646  1  0.84014606  0.85326573  0.54772490  1
  O  O647  1  0.83871927  0.85177295  0.79646076  1
  O  O648  1  0.16305897  0.14857589  0.20187918  1
  O  O649  1  0.16291929  0.14914152  0.45238482  1
  O  O650  1  0.16484336  0.14849754  0.70216257  1
  O  O651  1  0.16387931  0.14867665  0.95236385  1
  O  O652  1  0.16369308  0.48199778  0.20132249  1
  O  O653  1  0.16471320  0.48031120  0.45219381  1
  O  O654  1  0.16386466  0.48164208  0.70243128  1
  O  O655  1  0.16462478  0.48269040  0.95294019  1
  O  O656  1  0.16466451  0.81416736  0.20209648  1
  O  O657  1  0.16231813  0.81624361  0.45303345  1
  O  O658  1  0.16343187  0.81480193  0.70194555  1
  O  O659  1  0.16348096  0.81378405  0.95258193  1
  O  O660  1  0.66134075  0.14692839  0.20327433  1
  O  O661  1  0.66350632  0.14960802  0.45217189  1
  O  O662  1  0.66376503  0.14913190  0.70205224  1
  O  O663  1  0.66403474  0.14935082  0.95293393  1
  O  O664  1  0.66182994  0.48234797  0.20263712  1
  O  O665  1  0.66128808  0.48006882  0.45226570  1
  O  O666  1  0.65922713  0.48050502  0.70236694  1
  O  O667  1  0.66172000  0.48128226  0.95290969  1
  O  O668  1  0.66233527  0.81590504  0.20313229  1
  O  O669  1  0.66293149  0.81534717  0.45262296  1
  O  O670  1  0.66389647  0.81529266  0.70225823  1
  O  O671  1  0.66232303  0.81421231  0.95147906  1
