# generated using pymatgen
data_Na2MnFe(PO4)2
_symmetry_space_group_name_H-M   'P 1'
_cell_length_a   21.08081459
_cell_length_b   18.93150127
_cell_length_c   20.04005993
_cell_angle_alpha   89.99948062
_cell_angle_beta   89.99753464
_cell_angle_gamma   90.00222669
_symmetry_Int_Tables_number   1
_chemical_formula_structural   Na2MnFe(PO4)2
_chemical_formula_sum   'Na96 Mn48 Fe48 P96 O384'
_cell_volume   7997.81692553
_cell_formula_units_Z   48
loop_
 _symmetry_equiv_pos_site_id
 _symmetry_equiv_pos_as_xyz
  1  'x, y, z'
loop_
 _atom_site_type_symbol
 _atom_site_label
 _atom_site_symmetry_multiplicity
 _atom_site_fract_x
 _atom_site_fract_y
 _atom_site_fract_z
 _atom_site_occupancy
  Na  Na0  1  0.00007566  0.00036949  -0.00079422  1
  Na  Na1  1  -0.00101231  -0.00017638  0.25001108  1
  Na  Na2  1  -0.00033548  -0.00003992  0.50031349  1
  Na  Na3  1  -0.00072945  -0.00049945  0.75095941  1
  Na  Na4  1  0.00015728  0.33279209  -0.00002343  1
  Na  Na5  1  0.00086237  0.33338031  0.25015099  1
  Na  Na6  1  -0.00142963  0.33262075  0.49947821  1
  Na  Na7  1  -0.00041341  0.33373854  0.75025758  1
  Na  Na8  1  -0.00275269  0.66572044  -0.00049273  1
  Na  Na9  1  -0.00166277  0.66712149  0.24922391  1
  Na  Na10  1  -0.00227397  0.66601447  0.50069170  1
  Na  Na11  1  -0.00060228  0.66702165  0.74971898  1
  Na  Na12  1  0.49911151  -0.00056743  0.00103976  1
  Na  Na13  1  0.49886726  -0.00044562  0.24906978  1
  Na  Na14  1  0.50043492  0.00026739  0.49982077  1
  Na  Na15  1  0.50118857  0.00058187  0.74963200  1
  Na  Na16  1  0.49973291  0.33324123  0.00035552  1
  Na  Na17  1  0.50062487  0.33321130  0.25122579  1
  Na  Na18  1  0.49930417  0.33278095  0.49901339  1
  Na  Na19  1  0.49921690  0.33279182  0.74961639  1
  Na  Na20  1  0.49902630  0.66611307  0.00016956  1
  Na  Na21  1  0.49842751  0.66557699  0.24969969  1
  Na  Na22  1  0.50069658  0.66699049  0.50025101  1
  Na  Na23  1  0.50022605  0.66676262  0.75015059  1
  Na  Na24  1  0.24975981  0.00001036  0.12639066  1
  Na  Na25  1  0.25045524  0.00025062  0.37428099  1
  Na  Na26  1  0.24924448  -0.00078556  0.62433807  1
  Na  Na27  1  0.24878904  -0.00082866  0.87498010  1
  Na  Na28  1  0.25120081  0.33357063  0.12463717  1
  Na  Na29  1  0.25078840  0.33299134  0.37494916  1
  Na  Na30  1  0.25168210  0.33385420  0.62623201  1
  Na  Na31  1  0.24923461  0.33309905  0.87408018  1
  Na  Na32  1  0.25220251  0.66652874  0.12536218  1
  Na  Na33  1  0.25074389  0.66696773  0.37547439  1
  Na  Na34  1  0.24789835  0.66572482  0.62414989  1
  Na  Na35  1  0.25110455  0.66731350  0.87555951  1
  Na  Na36  1  0.75169373  0.00062558  0.12567939  1
  Na  Na37  1  0.74973224  -0.00008079  0.37586615  1
  Na  Na38  1  0.75101432  0.00056575  0.62458358  1
  Na  Na39  1  0.75090313  0.00022453  0.87403864  1
  Na  Na40  1  0.74939292  0.33308112  0.12483317  1
  Na  Na41  1  0.74755267  0.33192441  0.37414373  1
  Na  Na42  1  0.75138477  0.33399152  0.62502415  1
  Na  Na43  1  0.74977209  0.33288413  0.87593664  1
  Na  Na44  1  0.75085576  0.66685074  0.12498968  1
  Na  Na45  1  0.75167147  0.66672762  0.37429671  1
  Na  Na46  1  0.75179228  0.66662168  0.62582801  1
  Na  Na47  1  0.75195827  0.66707003  0.87447026  1
  Na  Na48  1  -0.00150117  0.16653643  0.00038701  1
  Na  Na49  1  0.00135616  0.16551318  0.24945135  1
  Na  Na50  1  -0.00051536  0.16644444  0.49901145  1
  Na  Na51  1  -0.00276989  0.16732502  0.75062582  1
  Na  Na52  1  0.00050184  0.49973870  -0.00035143  1
  Na  Na53  1  -0.00287133  0.50154934  0.24967136  1
  Na  Na54  1  -0.00201882  0.50061236  0.50114258  1
  Na  Na55  1  -0.00151731  0.50087348  0.74967883  1
  Na  Na56  1  -0.00065309  0.83383847  -0.00093617  1
  Na  Na57  1  -0.00166044  0.83436787  0.24978761  1
  Na  Na58  1  -0.00086222  0.83406393  0.50072352  1
  Na  Na59  1  0.00051618  0.83349936  0.75033589  1
  Na  Na60  1  0.49878153  0.16718643  0.00122807  1
  Na  Na61  1  0.50072238  0.16590537  0.25011728  1
  Na  Na62  1  0.50116769  0.16579252  0.49952274  1
  Na  Na63  1  0.50092567  0.16565900  0.74932101  1
  Na  Na64  1  0.49999844  0.50028715  -0.00026170  1
  Na  Na65  1  0.49848521  0.50063845  0.25118534  1
  Na  Na66  1  0.50006562  0.50008990  0.49956275  1
  Na  Na67  1  0.49982713  0.50088534  0.74942082  1
  Na  Na68  1  0.49922726  0.83377389  0.00056858  1
  Na  Na69  1  0.50036201  0.83305866  0.24912874  1
  Na  Na70  1  0.49809242  0.83509564  0.49982295  1
  Na  Na71  1  0.50005244  0.83327997  0.75065824  1
  Na  Na72  1  0.25036403  0.16600370  0.12572793  1
  Na  Na73  1  0.24818324  0.16718659  0.37414676  1
  Na  Na74  1  0.25223246  0.16510925  0.62490606  1
  Na  Na75  1  0.25097748  0.16610926  0.87540939  1
  Na  Na76  1  0.25223480  0.49989211  0.12449217  1
  Na  Na77  1  0.25357394  0.49879908  0.37505315  1
  Na  Na78  1  0.25031083  0.49998550  0.62520132  1
  Na  Na79  1  0.24904912  0.50106776  0.87538835  1
  Na  Na80  1  0.25178041  0.83272582  0.12594362  1
  Na  Na81  1  0.24974461  0.83418382  0.37580683  1
  Na  Na82  1  0.24826027  0.83425752  0.62399759  1
  Na  Na83  1  0.24885150  0.83396636  0.87420150  1
  Na  Na84  1  0.75130050  0.16533853  0.12587805  1
  Na  Na85  1  0.74776663  0.16667020  0.37499658  1
  Na  Na86  1  0.74867818  0.16665106  0.62529373  1
  Na  Na87  1  0.75119228  0.16569496  0.87424614  1
  Na  Na88  1  0.74886341  0.50099547  0.12458496  1
  Na  Na89  1  0.75018685  0.50050442  0.37431870  1
  Na  Na90  1  0.75189449  0.50036794  0.62496896  1
  Na  Na91  1  0.75163281  0.49988651  0.87571690  1
  Na  Na92  1  0.75162618  0.83333001  0.12506194  1
  Na  Na93  1  0.75178631  0.83357704  0.37500905  1
  Na  Na94  1  0.75348365  0.83210381  0.62537640  1
  Na  Na95  1  0.75065826  0.83351220  0.87437997  1
  Mn  Mn96  1  0.64281712  0.91622730  0.74768550  1
  Mn  Mn97  1  0.64230912  0.24950113  0.99822812  1
  Mn  Mn98  1  0.64199355  0.58355526  0.24769929  1
  Mn  Mn99  1  0.10682382  0.41651236  0.62253515  1
  Mn  Mn100  1  0.39242474  0.58389529  0.62731615  1
  Mn  Mn101  1  0.60884177  0.75065833  0.62260206  1
  Mn  Mn102  1  0.14245568  0.58264520  0.24821959  1
  Mn  Mn103  1  0.60804780  0.41672660  0.87228742  1
  Mn  Mn104  1  0.14233884  0.24951812  0.49863958  1
  Mn  Mn105  1  0.10823785  0.41691430  0.37268953  1
  Mn  Mn106  1  0.35708553  0.08377185  0.25252129  1
  Mn  Mn107  1  0.35745856  0.75046826  0.50279031  1
  Mn  Mn108  1  0.10659924  0.74993273  0.37292262  1
  Mn  Mn109  1  0.60817303  0.75094631  0.37333449  1
  Mn  Mn110  1  0.10715193  0.08371049  0.62289375  1
  Mn  Mn111  1  0.85738417  0.41655569  0.50178270  1
  Mn  Mn112  1  0.39236439  0.24924920  0.37761020  1
  Mn  Mn113  1  0.10798581  0.74909870  0.87320351  1
  Mn  Mn114  1  0.35842187  0.08268339  0.75232447  1
  Mn  Mn115  1  0.64257799  0.91629317  0.99802354  1
  Mn  Mn116  1  0.14178481  0.24966749  0.74687658  1
  Mn  Mn117  1  0.60753654  0.74926654  0.12222541  1
  Mn  Mn118  1  0.89249385  0.91630036  0.87742886  1
  Mn  Mn119  1  0.35750106  0.41749175  0.75230238  1
  Mn  Mn120  1  0.64339659  0.58319803  0.74845976  1
  Mn  Mn121  1  0.35706810  0.74977526  0.75153297  1
  Mn  Mn122  1  0.85770322  0.41661664  0.00321342  1
  Mn  Mn123  1  0.85736118  0.08353655  0.50225585  1
  Mn  Mn124  1  0.89190752  0.25067546  0.87775434  1
  Mn  Mn125  1  0.10734247  0.75048455  0.12236396  1
  Mn  Mn126  1  0.89206374  0.25005700  0.37679491  1
  Mn  Mn127  1  0.14249238  0.58422517  0.99813571  1
  Mn  Mn128  1  0.10791677  0.08406107  0.87308459  1
  Mn  Mn129  1  0.64246392  0.25041467  0.74762508  1
  Mn  Mn130  1  0.60833349  0.41632683  0.62262162  1
  Mn  Mn131  1  0.85795754  0.75087233  0.25222696  1
  Mn  Mn132  1  0.14166971  0.91658393  0.24767066  1
  Mn  Mn133  1  0.39240221  0.24993092  0.87733242  1
  Mn  Mn134  1  0.14255064  0.24957858  0.99833822  1
  Mn  Mn135  1  0.64262719  0.91587525  0.49774953  1
  Mn  Mn136  1  0.39190543  0.91645438  0.87725623  1
  Mn  Mn137  1  0.60724888  0.41661009  0.37275748  1
  Mn  Mn138  1  0.35812131  0.41663981  0.00224374  1
  Mn  Mn139  1  0.35835785  0.74953871  0.25281977  1
  Mn  Mn140  1  0.60763456  0.08356516  0.12258080  1
  Mn  Mn141  1  0.14169030  0.58278995  0.49731325  1
  Mn  Mn142  1  0.10797126  0.41671537  0.12303493  1
  Mn  Mn143  1  0.85724846  0.41574590  0.25191050  1
  Fe  Fe144  1  0.85708451  0.75058181  0.00146786  1
  Fe  Fe145  1  0.14242016  0.91733576  0.49809997  1
  Fe  Fe146  1  0.14219108  0.91619532  0.74755216  1
  Fe  Fe147  1  0.64376660  0.58344926  0.49873977  1
  Fe  Fe148  1  0.85716125  0.08340610  0.25202627  1
  Fe  Fe149  1  0.64267626  0.58392981  0.99805105  1
  Fe  Fe150  1  0.39318093  0.58277961  0.12675900  1
  Fe  Fe151  1  0.39326010  0.24938088  0.62603946  1
  Fe  Fe152  1  0.10608093  0.75011524  0.62350647  1
  Fe  Fe153  1  0.85832710  0.74995570  0.75238717  1
  Fe  Fe154  1  0.14193445  0.58388418  0.74854623  1
  Fe  Fe155  1  0.85815453  0.41640179  0.75218765  1
  Fe  Fe156  1  0.39230665  0.91717205  0.62647073  1
  Fe  Fe157  1  0.89247798  0.58334413  0.62737281  1
  Fe  Fe158  1  0.60709953  0.08231134  0.37326040  1
  Fe  Fe159  1  0.10715143  0.41713594  0.87336838  1
  Fe  Fe160  1  0.35811959  0.75090277  0.00124981  1
  Fe  Fe161  1  0.89306595  0.58298659  0.87705563  1
  Fe  Fe162  1  0.85767898  0.08276507  0.00201146  1
  Fe  Fe163  1  0.35783248  0.41588017  0.50233906  1
  Fe  Fe164  1  0.14268210  0.25067023  0.24796739  1
  Fe  Fe165  1  0.10635106  0.08299736  0.12302316  1
  Fe  Fe166  1  0.10720713  0.08314412  0.37359739  1
  Fe  Fe167  1  0.89107556  0.24963513  0.62648296  1
  Fe  Fe168  1  0.64308890  0.91702017  0.24854439  1
  Fe  Fe169  1  0.39264493  0.25056492  0.12741664  1
  Fe  Fe170  1  0.35805565  0.41626657  0.25133266  1
  Fe  Fe171  1  0.85796802  0.74996317  0.50206463  1
  Fe  Fe172  1  0.60727056  0.08312655  0.62316569  1
  Fe  Fe173  1  0.60654213  0.41682887  0.12392177  1
  Fe  Fe174  1  0.89270550  0.24957984  0.12747833  1
  Fe  Fe175  1  0.35758267  0.08259219  0.00195050  1
  Fe  Fe176  1  0.89246580  0.91672772  0.37719044  1
  Fe  Fe177  1  0.35751093  0.08356031  0.50124470  1
  Fe  Fe178  1  0.39256505  0.58382214  0.87669153  1
  Fe  Fe179  1  0.14320743  0.91653754  0.99957265  1
  Fe  Fe180  1  0.89265802  0.91726685  0.12667015  1
  Fe  Fe181  1  0.39285256  0.91653706  0.37653814  1
  Fe  Fe182  1  0.60758326  0.75030865  0.87385641  1
  Fe  Fe183  1  0.85685191  0.08356973  0.75133766  1
  Fe  Fe184  1  0.39219753  0.91664620  0.12687057  1
  Fe  Fe185  1  0.64205736  0.25063965  0.49866885  1
  Fe  Fe186  1  0.89331227  0.91714555  0.62700231  1
  Fe  Fe187  1  0.89191627  0.58360227  0.37707518  1
  Fe  Fe188  1  0.64244322  0.24935423  0.24762312  1
  Fe  Fe189  1  0.89195527  0.58305383  0.12627373  1
  Fe  Fe190  1  0.60784370  0.08274570  0.87409464  1
  Fe  Fe191  1  0.39289070  0.58409839  0.37755631  1
  P  P192  1  0.05318024  0.24899130  0.11132597  1
  P  P193  1  0.05431675  0.24916790  0.35938753  1
  P  P194  1  0.05067202  0.24978098  0.60981474  1
  P  P195  1  0.05349036  0.25058523  0.86020103  1
  P  P196  1  0.05177836  0.58362843  0.10995799  1
  P  P197  1  0.05128044  0.58349428  0.35991720  1
  P  P198  1  0.05278592  0.58422600  0.61136115  1
  P  P199  1  0.05275979  0.58301424  0.85958969  1
  P  P200  1  0.05233402  0.91762031  0.10938047  1
  P  P201  1  0.05289257  0.91737761  0.36126447  1
  P  P202  1  0.05394025  0.91627414  0.61078919  1
  P  P203  1  0.05573482  0.91649934  0.86086043  1
  P  P204  1  0.55318431  0.25081484  0.11160765  1
  P  P205  1  0.55528724  0.24872597  0.36061347  1
  P  P206  1  0.55300453  0.24933260  0.60935711  1
  P  P207  1  0.55362915  0.24866558  0.86012228  1
  P  P208  1  0.55284268  0.58226549  0.10963644  1
  P  P209  1  0.55356396  0.58387792  0.36141524  1
  P  P210  1  0.55473335  0.58349578  0.60932105  1
  P  P211  1  0.55359335  0.58468221  0.86114571  1
  P  P212  1  0.55323400  0.91668680  0.11124752  1
  P  P213  1  0.55290046  0.91732286  0.35925974  1
  P  P214  1  0.55245791  0.91716873  0.61001756  1
  P  P215  1  0.55371725  0.91662607  0.86051687  1
  P  P216  1  0.44478830  0.08340552  0.13906633  1
  P  P217  1  0.44706353  0.08235696  0.39014103  1
  P  P218  1  0.44644976  0.08322197  0.63825866  1
  P  P219  1  0.44761634  0.08289553  0.89094856  1
  P  P220  1  0.44710672  0.41669098  0.14066553  1
  P  P221  1  0.44455270  0.41708596  0.38949475  1
  P  P222  1  0.44583931  0.41579435  0.63877044  1
  P  P223  1  0.44688785  0.41759809  0.88979837  1
  P  P224  1  0.44523705  0.74985492  0.13861375  1
  P  P225  1  0.44671043  0.75046667  0.39018486  1
  P  P226  1  0.44707386  0.75116471  0.64021100  1
  P  P227  1  0.44713313  0.74966178  0.89031586  1
  P  P228  1  0.94532306  0.08294161  0.13938979  1
  P  P229  1  0.94625747  0.08290739  0.38872607  1
  P  P230  1  0.94560709  0.08320609  0.64051048  1
  P  P231  1  0.94482479  0.08327380  0.88974436  1
  P  P232  1  0.94649114  0.41624309  0.13997545  1
  P  P233  1  0.94664052  0.41715301  0.38985516  1
  P  P234  1  0.94519349  0.41628899  0.64041039  1
  P  P235  1  0.94663555  0.41753385  0.88926114  1
  P  P236  1  0.94486671  0.75063225  0.13815770  1
  P  P237  1  0.94541768  0.75043113  0.39069129  1
  P  P238  1  0.94558232  0.75060360  0.63945435  1
  P  P239  1  0.94506534  0.74922560  0.88943632  1
  P  P240  1  0.19390196  0.08406262  0.23564999  1
  P  P241  1  0.19704679  0.08257175  0.48441243  1
  P  P242  1  0.19669377  0.08247892  0.73470573  1
  P  P243  1  0.19681151  0.08226523  0.98680570  1
  P  P244  1  0.19839846  0.41626598  0.23485616  1
  P  P245  1  0.19812901  0.41610320  0.48519210  1
  P  P246  1  0.19476703  0.41804637  0.73607268  1
  P  P247  1  0.19615920  0.41680991  0.98430789  1
  P  P248  1  0.19654943  0.74963035  0.23514127  1
  P  P249  1  0.19460055  0.75095172  0.48626144  1
  P  P250  1  0.19530389  0.74959790  0.73409205  1
  P  P251  1  0.19826436  0.75108951  0.98549966  1
  P  P252  1  0.69606607  0.08251614  0.23645533  1
  P  P253  1  0.69438281  0.08385130  0.48570117  1
  P  P254  1  0.69587722  0.08302812  0.73541976  1
  P  P255  1  0.69792009  0.08303172  0.98460733  1
  P  P256  1  0.69542411  0.41603545  0.23418118  1
  P  P257  1  0.69657682  0.41715792  0.48488904  1
  P  P258  1  0.69875490  0.41707139  0.73507601  1
  P  P259  1  0.69520638  0.41757297  0.98647745  1
  P  P260  1  0.69653248  0.75131522  0.23499951  1
  P  P261  1  0.69890939  0.74910189  0.48510653  1
  P  P262  1  0.69768036  0.74979086  0.73625159  1
  P  P263  1  0.69741952  0.74936025  0.98442280  1
  P  P264  1  0.30428585  0.24911817  0.01575507  1
  P  P265  1  0.30357973  0.25064267  0.26394781  1
  P  P266  1  0.30409419  0.24932691  0.51552034  1
  P  P267  1  0.30456574  0.24966387  0.76391734  1
  P  P268  1  0.30555154  0.58448904  0.01442946  1
  P  P269  1  0.30568581  0.58223048  0.26476694  1
  P  P270  1  0.30443887  0.58277288  0.51418121  1
  P  P271  1  0.30230488  0.58391064  0.76561541  1
  P  P272  1  0.30302947  0.91660670  0.01568564  1
  P  P273  1  0.30484788  0.91660175  0.26502391  1
  P  P274  1  0.30404544  0.91803733  0.51405968  1
  P  P275  1  0.30294102  0.91630228  0.76360399  1
  P  P276  1  0.80397263  0.24891314  0.01609232  1
  P  P277  1  0.80294648  0.24881019  0.26383376  1
  P  P278  1  0.80192201  0.24969659  0.51514623  1
  P  P279  1  0.80453986  0.24995709  0.76397507  1
  P  P280  1  0.80381113  0.58435078  0.01418655  1
  P  P281  1  0.80502312  0.58320775  0.26419311  1
  P  P282  1  0.80453733  0.58412933  0.51456900  1
  P  P283  1  0.80626847  0.58312792  0.76479225  1
  P  P284  1  0.80403597  0.91669219  0.01531446  1
  P  P285  1  0.80432212  0.91806223  0.26472695  1
  P  P286  1  0.80539363  0.91609375  0.51467181  1
  P  P287  1  0.80538193  0.91691616  0.76349836  1
  O  O288  1  0.05824849  0.25004106  0.18795651  1
  O  O289  1  0.05719893  0.24982417  0.43621100  1
  O  O290  1  0.05489319  0.24968092  0.68648802  1
  O  O291  1  0.05680400  0.24944335  0.93701180  1
  O  O292  1  0.05596257  0.58389738  0.18661858  1
  O  O293  1  0.05534599  0.58304685  0.43667034  1
  O  O294  1  0.05758564  0.58377831  0.68796116  1
  O  O295  1  0.05660737  0.58382584  0.93632117  1
  O  O296  1  0.05579730  0.91676299  0.18614514  1
  O  O297  1  0.05776002  0.91720788  0.43793866  1
  O  O298  1  0.05838061  0.91687226  0.68754885  1
  O  O299  1  0.06012049  0.91652839  0.93760007  1
  O  O300  1  0.55817057  0.24956576  0.18830444  1
  O  O301  1  0.55914706  0.24989672  0.43738031  1
  O  O302  1  0.55664654  0.25016678  0.68611983  1
  O  O303  1  0.55645708  0.24959143  0.93694225  1
  O  O304  1  0.55634016  0.58334963  0.18640158  1
  O  O305  1  0.55911198  0.58393750  0.43799446  1
  O  O306  1  0.55821622  0.58348803  0.68614885  1
  O  O307  1  0.55839679  0.58398960  0.93781833  1
  O  O308  1  0.55849507  0.91682289  0.18783052  1
  O  O309  1  0.55680139  0.91658882  0.43598579  1
  O  O310  1  0.55666799  0.91638033  0.68669132  1
  O  O311  1  0.55650013  0.91649056  0.93731149  1
  O  O312  1  0.44090188  0.08315285  0.06230439  1
  O  O313  1  0.44314238  0.08341540  0.31344030  1
  O  O314  1  0.44188944  0.08304367  0.56162299  1
  O  O315  1  0.44412377  0.08270199  0.81413652  1
  O  O316  1  0.44396901  0.41637033  0.06391686  1
  O  O317  1  0.44099540  0.41605474  0.31269546  1
  O  O318  1  0.44197130  0.41639725  0.56195663  1
  O  O319  1  0.44372573  0.41728568  0.81299540  1
  O  O320  1  0.44160600  0.75055129  0.06186172  1
  O  O321  1  0.44423149  0.74996443  0.31338263  1
  O  O322  1  0.44356941  0.75062117  0.56344717  1
  O  O323  1  0.44325934  0.75011143  0.81361937  1
  O  O324  1  0.94122430  0.08306291  0.06263517  1
  O  O325  1  0.94162313  0.08346746  0.31205192  1
  O  O326  1  0.94323276  0.08340248  0.56364383  1
  O  O327  1  0.94042520  0.08317325  0.81303513  1
  O  O328  1  0.94402098  0.41592099  0.06312625  1
  O  O329  1  0.94348287  0.41637938  0.31311291  1
  O  O330  1  0.94238645  0.41616396  0.56358234  1
  O  O331  1  0.94204405  0.41670005  0.81260834  1
  O  O332  1  0.94119755  0.75053441  0.06140483  1
  O  O333  1  0.94303847  0.75078145  0.31377208  1
  O  O334  1  0.94154221  0.75027230  0.56271766  1
  O  O335  1  0.94166720  0.75042116  0.81260072  1
  O  O336  1  0.19167414  0.08312705  0.06345189  1
  O  O337  1  0.19000006  0.08296297  0.31243865  1
  O  O338  1  0.19318604  0.08291486  0.56112102  1
  O  O339  1  0.19362300  0.08349610  0.81151649  1
  O  O340  1  0.19323453  0.41692604  0.06116668  1
  O  O341  1  0.19460445  0.41686733  0.31158159  1
  O  O342  1  0.19351833  0.41653505  0.56189655  1
  O  O343  1  0.19049377  0.41740709  0.81284252  1
  O  O344  1  0.19436169  0.74995692  0.06218181  1
  O  O345  1  0.19285376  0.74996717  0.31193364  1
  O  O346  1  0.18997328  0.75013763  0.56297212  1
  O  O347  1  0.19323136  0.74944915  0.81096344  1
  O  O348  1  0.69364819  0.08303738  0.06135534  1
  O  O349  1  0.69141411  0.08236785  0.31312346  1
  O  O350  1  0.69039704  0.08288736  0.56253481  1
  O  O351  1  0.69132867  0.08284501  0.81211188  1
  O  O352  1  0.69060842  0.41711731  0.06316142  1
  O  O353  1  0.69259225  0.41685572  0.31101524  1
  O  O354  1  0.69448893  0.41718287  0.56170833  1
  O  O355  1  0.69456138  0.41694366  0.81182298  1
  O  O356  1  0.69355739  0.74982427  0.06117942  1
  O  O357  1  0.69365701  0.75067471  0.31177955  1
  O  O358  1  0.69534520  0.74995594  0.56186058  1
  O  O359  1  0.69212288  0.75017049  0.81283417  1
  O  O360  1  0.30859704  0.25007340  0.18729584  1
  O  O361  1  0.30641167  0.24914742  0.43864292  1
  O  O362  1  0.30939517  0.24936534  0.68720179  1
  O  O363  1  0.30699813  0.24986152  0.93889230  1
  O  O364  1  0.30973353  0.58298812  0.18793170  1
  O  O365  1  0.30888425  0.58393189  0.43742021  1
  O  O366  1  0.30642775  0.58367680  0.68887708  1
  O  O367  1  0.30944555  0.58373493  0.93763278  1
  O  O368  1  0.30934291  0.91659294  0.18826690  1
  O  O369  1  0.30897501  0.91720824  0.43737787  1
  O  O370  1  0.30825969  0.91667789  0.68696604  1
  O  O371  1  0.30587289  0.91677929  0.93886818  1
  O  O372  1  0.80831398  0.24942791  0.18722975  1
  O  O373  1  0.80577171  0.24929942  0.43842114  1
  O  O374  1  0.80788474  0.24998032  0.68716348  1
  O  O375  1  0.80676541  0.24999287  0.93923625  1
  O  O376  1  0.80914968  0.58318352  0.18738844  1
  O  O377  1  0.80856237  0.58339358  0.43776770  1
  O  O378  1  0.80980527  0.58340869  0.68788177  1
  O  O379  1  0.80861468  0.58312881  0.93750466  1
  O  O380  1  0.80883230  0.91740976  0.18803386  1
  O  O381  1  0.80906628  0.91714588  0.43783506  1
  O  O382  1  0.80902341  0.91677872  0.68672335  1
  O  O383  1  0.80666883  0.91675402  0.93850820  1
  O  O384  1  0.23454785  0.24975529  0.04088792  1
  O  O385  1  0.23326471  0.25020425  0.28762118  1
  O  O386  1  0.23454533  0.24946975  0.54137047  1
  O  O387  1  0.23448458  0.24975156  0.78782610  1
  O  O388  1  0.23548135  0.58339591  0.03875630  1
  O  O389  1  0.23567710  0.58305397  0.28920783  1
  O  O390  1  0.23434720  0.58278861  0.53819404  1
  O  O391  1  0.23216487  0.58432467  0.78981029  1
  O  O392  1  0.23316154  0.91646572  0.04115766  1
  O  O393  1  0.23461276  0.91699866  0.28848967  1
  O  O394  1  0.23353279  0.91717378  0.53739728  1
  O  O395  1  0.23255893  0.91613853  0.78700017  1
  O  O396  1  0.73420408  0.24922897  0.04108674  1
  O  O397  1  0.73248352  0.24897245  0.28711633  1
  O  O398  1  0.73183144  0.25020362  0.53957913  1
  O  O399  1  0.73477984  0.24955921  0.78910260  1
  O  O400  1  0.73341198  0.58421009  0.03793376  1
  O  O401  1  0.73488012  0.58350564  0.28801474  1
  O  O402  1  0.73440570  0.58352763  0.53897959  1
  O  O403  1  0.73630059  0.58330069  0.78929931  1
  O  O404  1  0.73436850  0.91680062  0.04075500  1
  O  O405  1  0.73406718  0.91714704  0.28878955  1
  O  O406  1  0.73539034  0.91649371  0.53908035  1
  O  O407  1  0.73554595  0.91677704  0.78830878  1
  O  O408  1  0.26413857  0.08323986  0.21201178  1
  O  O409  1  0.26713483  0.08347664  0.45984020  1
  O  O410  1  0.26637782  0.08215861  0.70962946  1
  O  O411  1  0.26713492  0.08251165  0.96284376  1
  O  O412  1  0.26838640  0.41639203  0.21012260  1
  O  O413  1  0.26833145  0.41574774  0.46128326  1
  O  O414  1  0.26484831  0.41743860  0.71202429  1
  O  O415  1  0.26596037  0.41687274  0.95946047  1
  O  O416  1  0.26644060  0.74951382  0.21082568  1
  O  O417  1  0.26475347  0.75106238  0.46237142  1
  O  O418  1  0.26480688  0.74986960  0.70816146  1
  O  O419  1  0.26818167  0.75106876  0.96056305  1
  O  O420  1  0.76638607  0.08306665  0.21258357  1
  O  O421  1  0.76452290  0.08324334  0.46167644  1
  O  O422  1  0.76626367  0.08343372  0.71177877  1
  O  O423  1  0.76813695  0.08285613  0.96067928  1
  O  O424  1  0.76513848  0.41669535  0.20909407  1
  O  O425  1  0.76592654  0.41631888  0.45861831  1
  O  O426  1  0.76878230  0.41716743  0.71079964  1
  O  O427  1  0.76538127  0.41671336  0.96254918  1
  O  O428  1  0.76626260  0.75060082  0.20992479  1
  O  O429  1  0.76882166  0.74981122  0.46023105  1
  O  O430  1  0.76821505  0.74945108  0.71317996  1
  O  O431  1  0.76758571  0.75017871  0.96021534  1
  O  O432  1  0.01564491  0.08276207  0.16335642  1
  O  O433  1  0.01648947  0.08336193  0.41285290  1
  O  O434  1  0.01514931  0.08310999  0.66623733  1
  O  O435  1  0.01496375  0.08346418  0.91356039  1
  O  O436  1  0.01599909  0.41704323  0.16571897  1
  O  O437  1  0.01617573  0.41673344  0.41549493  1
  O  O438  1  0.01493293  0.41694728  0.66551719  1
  O  O439  1  0.01686354  0.41700477  0.91331314  1
  O  O440  1  0.01464797  0.75093232  0.16327009  1
  O  O441  1  0.01491933  0.75009969  0.41634015  1
  O  O442  1  0.01586803  0.75066090  0.66361719  1
  O  O443  1  0.01502198  0.74957776  0.91395571  1
  O  O444  1  0.51479826  0.08328182  0.16341010  1
  O  O445  1  0.51724536  0.08288311  0.41422817  1
  O  O446  1  0.51678363  0.08314173  0.66234320  1
  O  O447  1  0.51758973  0.08288110  0.91580283  1
  O  O448  1  0.51698286  0.41693957  0.16591746  1
  O  O449  1  0.51466159  0.41649220  0.41361931  1
  O  O450  1  0.51576441  0.41666100  0.66345429  1
  O  O451  1  0.51653317  0.41696217  0.91499856  1
  O  O452  1  0.51514602  0.74929580  0.16336690  1
  O  O453  1  0.51623792  0.75103491  0.41591311  1
  O  O454  1  0.51680530  0.75039958  0.66520284  1
  O  O455  1  0.51718565  0.75022970  0.91499236  1
  O  O456  1  0.48283121  0.25045534  0.08799483  1
  O  O457  1  0.48508388  0.24922838  0.33669216  1
  O  O458  1  0.48303978  0.24928735  0.58457710  1
  O  O459  1  0.48410988  0.24907582  0.83451063  1
  O  O460  1  0.48266009  0.58290803  0.08543481  1
  O  O461  1  0.48311086  0.58350155  0.33812758  1
  O  O462  1  0.48478685  0.58363023  0.58500079  1
  O  O463  1  0.48328611  0.58433218  0.83713210  1
  O  O464  1  0.48278335  0.91677153  0.08784136  1
  O  O465  1  0.48274527  0.91663935  0.33498231  1
  O  O466  1  0.48237133  0.91753741  0.58564710  1
  O  O467  1  0.48412478  0.91671138  0.83496429  1
  O  O468  1  0.98281473  0.24903018  0.08763717  1
  O  O469  1  0.98450920  0.24954073  0.33437916  1
  O  O470  1  0.98058640  0.24952709  0.58540070  1
  O  O471  1  0.98364488  0.25057171  0.83560343  1
  O  O472  1  0.98162337  0.58302159  0.08564146  1
  O  O473  1  0.98117246  0.58420005  0.33568129  1
  O  O474  1  0.98221151  0.58354804  0.58804569  1
  O  O475  1  0.98264838  0.58379980  0.83529232  1
  O  O476  1  0.98227912  0.91741647  0.08484136  1
  O  O477  1  0.98255831  0.91682506  0.33742570  1
  O  O478  1  0.98346855  0.91698461  0.58735715  1
  O  O479  1  0.98548749  0.91633048  0.83730712  1
  O  O480  1  0.08656428  0.31391088  0.07775525  1
  O  O481  1  0.08880037  0.31411247  0.32672702  1
  O  O482  1  0.08445646  0.31485251  0.57704358  1
  O  O483  1  0.08738050  0.31578992  0.82806451  1
  O  O484  1  0.08506511  0.64881571  0.07671489  1
  O  O485  1  0.08527111  0.64844781  0.32728522  1
  O  O486  1  0.08547978  0.64945639  0.57789153  1
  O  O487  1  0.08692733  0.64788964  0.82659073  1
  O  O488  1  0.08637021  0.98279920  0.07704312  1
  O  O489  1  0.08598992  0.98247070  0.32789635  1
  O  O490  1  0.08759327  0.98107055  0.57709236  1
  O  O491  1  0.08906364  0.98150386  0.82744966  1
  O  O492  1  0.58625961  0.31611565  0.07871059  1
  O  O493  1  0.58919141  0.31347965  0.32720148  1
  O  O494  1  0.58696497  0.31433577  0.57638649  1
  O  O495  1  0.58800364  0.31361618  0.82741506  1
  O  O496  1  0.58710193  0.64694423  0.07633964  1
  O  O497  1  0.58644262  0.64899527  0.32766942  1
  O  O498  1  0.58902328  0.64843542  0.57668495  1
  O  O499  1  0.58691034  0.64999451  0.82822706  1
  O  O500  1  0.58650259  0.98163485  0.07767223  1
  O  O501  1  0.58644139  0.98265242  0.32659067  1
  O  O502  1  0.58655560  0.98204309  0.57745790  1
  O  O503  1  0.58792671  0.98185734  0.82843094  1
  O  O504  1  0.41108891  0.01834611  0.17198914  1
  O  O505  1  0.41345440  0.01711068  0.42267203  1
  O  O506  1  0.41311038  0.01816841  0.67183634  1
  O  O507  1  0.41333241  0.01788461  0.92346201  1
  O  O508  1  0.41296893  0.35175244  0.17354364  1
  O  O509  1  0.41073560  0.35210787  0.42268668  1
  O  O510  1  0.41258070  0.35029306  0.67123635  1
  O  O511  1  0.41260538  0.35260729  0.92230198  1
  O  O512  1  0.41152901  0.68446973  0.17101120  1
  O  O513  1  0.41257335  0.68544801  0.42272050  1
  O  O514  1  0.41282626  0.68611796  0.67275421  1
  O  O515  1  0.41309761  0.68471356  0.92297382  1
  O  O516  1  0.91177439  0.01777754  0.17248143  1
  O  O517  1  0.91295884  0.01783799  0.42195557  1
  O  O518  1  0.91128159  0.01805110  0.67265923  1
  O  O519  1  0.91146848  0.01815469  0.92304406  1
  O  O520  1  0.91268354  0.35091627  0.17245240  1
  O  O521  1  0.91220435  0.35208972  0.42216230  1
  O  O522  1  0.91130963  0.35104914  0.67287421  1
  O  O523  1  0.91283027  0.35286249  0.92284897  1
  O  O524  1  0.91118532  0.68546243  0.17093631  1
  O  O525  1  0.91082131  0.68535548  0.42265721  1
  O  O526  1  0.91203975  0.68559695  0.67273423  1
  O  O527  1  0.91128071  0.68399423  0.92175649  1
  O  O528  1  0.15995674  0.01935740  0.20211812  1
  O  O529  1  0.16331489  0.01733830  0.45162509  1
  O  O530  1  0.16233356  0.01738537  0.70270373  1
  O  O531  1  0.16353641  0.01702086  0.95389817  1
  O  O532  1  0.16439654  0.35116543  0.20233530  1
  O  O533  1  0.16441725  0.35093489  0.45263090  1
  O  O534  1  0.16110013  0.35311856  0.70263966  1
  O  O535  1  0.16195541  0.35172238  0.95206187  1
  O  O536  1  0.16265082  0.68460750  0.20248264  1
  O  O537  1  0.16143517  0.68580939  0.45279333  1
  O  O538  1  0.16083194  0.68445655  0.70202478  1
  O  O539  1  0.16432986  0.68609646  0.95240211  1
  O  O540  1  0.66319520  0.01724074  0.20292092  1
  O  O541  1  0.66061431  0.01895272  0.45225278  1
  O  O542  1  0.66268262  0.01798311  0.70182898  1
  O  O543  1  0.66400394  0.01811048  0.95165649  1
  O  O544  1  0.66148076  0.35069514  0.20213804  1
  O  O545  1  0.66161924  0.35222000  0.45316796  1
  O  O546  1  0.66492688  0.35200689  0.70225778  1
  O  O547  1  0.66161619  0.35254021  0.95323131  1
  O  O548  1  0.66224362  0.68635651  0.20243445  1
  O  O549  1  0.66519662  0.68391401  0.45263970  1
  O  O550  1  0.66451129  0.68479014  0.70282508  1
  O  O551  1  0.66379121  0.68424058  0.95157675  1
  O  O552  1  0.33883625  0.31409469  0.04822940  1
  O  O553  1  0.33699748  0.31562203  0.29706174  1
  O  O554  1  0.33875164  0.31423460  0.54767408  1
  O  O555  1  0.33800673  0.31482332  0.79698192  1
  O  O556  1  0.33864806  0.64991996  0.04710404  1
  O  O557  1  0.33984262  0.64700129  0.29815788  1
  O  O558  1  0.33767256  0.64790697  0.54771433  1
  O  O559  1  0.33644287  0.64891778  0.79821173  1
  O  O560  1  0.33722390  0.98155073  0.04835889  1
  O  O561  1  0.33858824  0.98151494  0.29820858  1
  O  O562  1  0.33683640  0.98355953  0.54718944  1
  O  O563  1  0.33618728  0.98113974  0.79744953  1
  O  O564  1  0.83841874  0.31377224  0.04879317  1
  O  O565  1  0.83588624  0.31396464  0.29748758  1
  O  O566  1  0.83627843  0.31452005  0.54768958  1
  O  O567  1  0.83798779  0.31526172  0.79693677  1
  O  O568  1  0.83720776  0.64960740  0.04697532  1
  O  O569  1  0.83876920  0.64822729  0.29722478  1
  O  O570  1  0.83803807  0.64929237  0.54755258  1
  O  O571  1  0.84021186  0.64811703  0.79759466  1
  O  O572  1  0.83835325  0.98166757  0.04781872  1
  O  O573  1  0.83752410  0.98325375  0.29798793  1
  O  O574  1  0.83938848  0.98095562  0.54779799  1
  O  O575  1  0.83890619  0.98215414  0.79627066  1
  O  O576  1  0.41140570  0.14865058  0.17211515  1
  O  O577  1  0.41298150  0.14711508  0.42340557  1
  O  O578  1  0.41336504  0.14847110  0.67153084  1
  O  O579  1  0.41327905  0.14778679  0.92340105  1
  O  O580  1  0.41289687  0.48186390  0.17284844  1
  O  O581  1  0.41116076  0.48231506  0.42220623  1
  O  O582  1  0.41176479  0.48071016  0.67181607  1
  O  O583  1  0.41303937  0.48279515  0.92209647  1
  O  O584  1  0.41176356  0.81489765  0.17185548  1
  O  O585  1  0.41216135  0.81568976  0.42191504  1
  O  O586  1  0.41324880  0.81649679  0.67238023  1
  O  O587  1  0.41290499  0.81462134  0.92319562  1
  O  O588  1  0.91177856  0.14785719  0.17297168  1
  O  O589  1  0.91258865  0.14784290  0.42206782  1
  O  O590  1  0.91101435  0.14818127  0.67262759  1
  O  O591  1  0.91105899  0.14806728  0.92306723  1
  O  O592  1  0.91160992  0.48123701  0.17152253  1
  O  O593  1  0.91250054  0.48237106  0.42190736  1
  O  O594  1  0.91079616  0.48133214  0.67269966  1
  O  O595  1  0.91346442  0.48290729  0.92220414  1
  O  O596  1  0.91112185  0.81590547  0.17096309  1
  O  O597  1  0.91121583  0.81553911  0.42298982  1
  O  O598  1  0.91219831  0.81580344  0.67253170  1
  O  O599  1  0.91097130  0.81396975  0.92267771  1
  O  O600  1  0.08628360  0.18362302  0.07820177  1
  O  O601  1  0.08831897  0.18396078  0.32727051  1
  O  O602  1  0.08465049  0.18477441  0.57709338  1
  O  O603  1  0.08723020  0.18551218  0.82721839  1
  O  O604  1  0.08596473  0.51873090  0.07740674  1
  O  O605  1  0.08480534  0.51830299  0.32697252  1
  O  O606  1  0.08606712  0.51928836  0.57758419  1
  O  O607  1  0.08629741  0.51785155  0.82689498  1
  O  O608  1  0.08656229  0.85284009  0.07633382  1
  O  O609  1  0.08622206  0.85236416  0.32769678  1
  O  O610  1  0.08696369  0.85106926  0.57760013  1
  O  O611  1  0.08913459  0.85141438  0.82758164  1
  O  O612  1  0.58659592  0.18594613  0.07781516  1
  O  O613  1  0.58851278  0.18331509  0.32787485  1
  O  O614  1  0.58720791  0.18430750  0.57712543  1
  O  O615  1  0.58762153  0.18320475  0.82841760  1
  O  O616  1  0.58639091  0.51696403  0.07726431  1
  O  O617  1  0.58671520  0.51883723  0.32779626  1
  O  O618  1  0.58869364  0.51845417  0.57661947  1
  O  O619  1  0.58708921  0.51973820  0.82754010  1
  O  O620  1  0.58634658  0.85160505  0.07774202  1
  O  O621  1  0.58733399  0.85262442  0.32633681  1
  O  O622  1  0.58598276  0.85202162  0.57680944  1
  O  O623  1  0.58791078  0.85138064  0.82822713  1
  O  O624  1  0.33821676  0.18392494  0.04791259  1
  O  O625  1  0.33683647  0.18561532  0.29764417  1
  O  O626  1  0.33844028  0.18400411  0.54742306  1
  O  O627  1  0.33793837  0.18456189  0.79721249  1
  O  O628  1  0.33979017  0.51971688  0.04765082  1
  O  O629  1  0.33918851  0.51689025  0.29718596  1
  O  O630  1  0.33797684  0.51752363  0.54678282  1
  O  O631  1  0.33622043  0.51902184  0.79865233  1
  O  O632  1  0.33744036  0.85153741  0.04790951  1
  O  O633  1  0.33821747  0.85160284  0.29839608  1
  O  O634  1  0.33780372  0.85346745  0.54807548  1
  O  O635  1  0.33606715  0.85117638  0.79699684  1
  O  O636  1  0.83800616  0.18361202  0.04802855  1
  O  O637  1  0.83609038  0.18379557  0.29736305  1
  O  O638  1  0.83559504  0.18469984  0.54825666  1
  O  O639  1  0.83850304  0.18479535  0.79642663  1
  O  O640  1  0.83723485  0.51948201  0.04806456  1
  O  O641  1  0.83843655  0.51820041  0.29746154  1
  O  O642  1  0.83849625  0.51927726  0.54774232  1
  O  O643  1  0.83980298  0.51787985  0.79761485  1
  O  O644  1  0.83821549  0.85151944  0.04750386  1
  O  O645  1  0.83839203  0.85324995  0.29801278  1
  O  O646  1  0.83910679  0.85088697  0.54716426  1
  O  O647  1  0.83919972  0.85190420  0.79649228  1
  O  O648  1  0.16085649  0.14945566  0.20277768  1
  O  O649  1  0.16249916  0.14737637  0.45182874  1
  O  O650  1  0.16285149  0.14752924  0.70171237  1
  O  O651  1  0.16350032  0.14722228  0.95301608  1
  O  O652  1  0.16462177  0.48136225  0.20198449  1
  O  O653  1  0.16464706  0.48109999  0.45179613  1
  O  O654  1  0.16174190  0.48357496  0.70326096  1
  O  O655  1  0.16174444  0.48181899  0.95201036  1
  O  O656  1  0.16283185  0.81484576  0.20244164  1
  O  O657  1  0.16121359  0.81631103  0.45349146  1
  O  O658  1  0.16060195  0.81462736  0.70209630  1
  O  O659  1  0.16416745  0.81618031  0.95331929  1
  O  O660  1  0.66237322  0.14739195  0.20301929  1
  O  O661  1  0.66104092  0.14911922  0.45306402  1
  O  O662  1  0.66207807  0.14788121  0.70215696  1
  O  O663  1  0.66420684  0.14807875  0.95170838  1
  O  O664  1  0.66082839  0.48086846  0.20166260  1
  O  O665  1  0.66277308  0.48264035  0.45278105  1
  O  O666  1  0.66491926  0.48204244  0.70236898  1
  O  O667  1  0.66241805  0.48303021  0.95324259  1
  O  O668  1  0.66292833  0.81671447  0.20279788  1
  O  O669  1  0.66471634  0.81409990  0.45240376  1
  O  O670  1  0.66492622  0.81486555  0.70221033  1
  O  O671  1  0.66322322  0.81424084  0.95154239  1
