# generated using pymatgen
data_Na2MnFe(PO4)2
_symmetry_space_group_name_H-M   'P 1'
_cell_length_a   21.08913323
_cell_length_b   18.94219709
_cell_length_c   20.04790406
_cell_angle_alpha   89.99932677
_cell_angle_beta   90.00038938
_cell_angle_gamma   89.99733113
_symmetry_Int_Tables_number   1
_chemical_formula_structural   Na2MnFe(PO4)2
_chemical_formula_sum   'Na96 Mn48 Fe48 P96 O384'
_cell_volume   8008.62680702
_cell_formula_units_Z   48
loop_
 _symmetry_equiv_pos_site_id
 _symmetry_equiv_pos_as_xyz
  1  'x, y, z'
loop_
 _atom_site_type_symbol
 _atom_site_label
 _atom_site_symmetry_multiplicity
 _atom_site_fract_x
 _atom_site_fract_y
 _atom_site_fract_z
 _atom_site_occupancy
  Na  Na0  1  -0.00067005  -0.00030923  0.00108499  1
  Na  Na1  1  0.00236226  0.00046894  0.24923350  1
  Na  Na2  1  0.00153577  -0.00009755  0.49963143  1
  Na  Na3  1  -0.00109863  -0.00082525  0.75056467  1
  Na  Na4  1  -0.00207546  0.33353992  0.00000444  1
  Na  Na5  1  -0.00114375  0.33266717  0.24958054  1
  Na  Na6  1  0.00106907  0.33372038  0.50018574  1
  Na  Na7  1  -0.00163704  0.33318682  0.75022222  1
  Na  Na8  1  0.00028249  0.66689399  0.00047992  1
  Na  Na9  1  0.00002371  0.66672411  0.25030557  1
  Na  Na10  1  -0.00093352  0.66653967  0.49999168  1
  Na  Na11  1  -0.00008635  0.66646697  0.74940141  1
  Na  Na12  1  0.49631323  -0.00120781  0.00052624  1
  Na  Na13  1  0.50093475  0.00073220  0.24969285  1
  Na  Na14  1  0.49925457  -0.00006813  0.49898190  1
  Na  Na15  1  0.49740043  -0.00055357  0.75069265  1
  Na  Na16  1  0.50158483  0.33419323  -0.00057662  1
  Na  Na17  1  0.49803419  0.33307764  0.25000619  1
  Na  Na18  1  0.49767926  0.33358478  0.49984685  1
  Na  Na19  1  0.49784518  0.33278825  0.75015181  1
  Na  Na20  1  0.49950967  0.66584865  0.00046867  1
  Na  Na21  1  0.49830838  0.66619079  0.24928091  1
  Na  Na22  1  0.49863217  0.66627733  0.50018684  1
  Na  Na23  1  0.50079454  0.66654981  0.75031217  1
  Na  Na24  1  0.25100603  0.00067044  0.12459501  1
  Na  Na25  1  0.24777614  -0.00123796  0.37428308  1
  Na  Na26  1  0.25331942  0.00137152  0.62511655  1
  Na  Na27  1  0.25174373  -0.00001994  0.87582301  1
  Na  Na28  1  0.25131567  0.33418277  0.12514336  1
  Na  Na29  1  0.25150977  0.33414731  0.37453083  1
  Na  Na30  1  0.24971117  0.33354755  0.62538865  1
  Na  Na31  1  0.25072448  0.33428392  0.87504086  1
  Na  Na32  1  0.25048030  0.66667821  0.12514414  1
  Na  Na33  1  0.25157192  0.66713498  0.37534016  1
  Na  Na34  1  0.24945442  0.66588978  0.62420372  1
  Na  Na35  1  0.25091236  0.66693197  0.87523265  1
  Na  Na36  1  0.75120330  0.00080295  0.12617534  1
  Na  Na37  1  0.74745143  -0.00147051  0.37412573  1
  Na  Na38  1  0.75091835  0.00009292  0.62486651  1
  Na  Na39  1  0.75163886  0.00022771  0.87468817  1
  Na  Na40  1  0.75124634  0.33349358  0.12540985  1
  Na  Na41  1  0.75098827  0.33317892  0.37471895  1
  Na  Na42  1  0.75159973  0.33383863  0.62492421  1
  Na  Na43  1  0.75094905  0.33364748  0.87514858  1
  Na  Na44  1  0.74827484  0.66555881  0.12508592  1
  Na  Na45  1  0.75153960  0.66774303  0.37533253  1
  Na  Na46  1  0.75064807  0.66642787  0.62421170  1
  Na  Na47  1  0.75021022  0.66650505  0.87554824  1
  Na  Na48  1  -0.00216145  0.16746712  0.00025602  1
  Na  Na49  1  0.00050604  0.16657033  0.25010988  1
  Na  Na50  1  0.00217345  0.16641298  0.49998342  1
  Na  Na51  1  -0.00098682  0.16725464  0.75000144  1
  Na  Na52  1  -0.00085869  0.50077476  0.00068111  1
  Na  Na53  1  0.00175974  0.49956762  0.24853192  1
  Na  Na54  1  0.00086998  0.50061199  0.50080754  1
  Na  Na55  1  0.00002352  0.49974753  0.75009239  1
  Na  Na56  1  -0.00104900  0.83357851  0.00000503  1
  Na  Na57  1  0.00023883  0.83299005  0.25089031  1
  Na  Na58  1  -0.00184901  0.83326393  0.49889496  1
  Na  Na59  1  -0.00056879  0.83255090  0.75040681  1
  Na  Na60  1  0.49909076  0.16683362  -0.00032639  1
  Na  Na61  1  0.49821338  0.16701615  0.24897515  1
  Na  Na62  1  0.50020396  0.16585746  0.49962554  1
  Na  Na63  1  0.49870773  0.16717913  0.75115348  1
  Na  Na64  1  0.50067318  0.50016443  -0.00023247  1
  Na  Na65  1  0.49898076  0.50066095  0.25022097  1
  Na  Na66  1  0.49656256  0.50112251  0.50023703  1
  Na  Na67  1  0.50095387  0.49964345  0.75000466  1
  Na  Na68  1  0.49759966  0.83392602  0.00103916  1
  Na  Na69  1  0.49960986  0.83266611  0.24969300  1
  Na  Na70  1  0.49879601  0.83307404  0.49900351  1
  Na  Na71  1  0.49658440  0.83399382  0.75019969  1
  Na  Na72  1  0.25040622  0.16637813  0.12500024  1
  Na  Na73  1  0.24991212  0.16635099  0.37430500  1
  Na  Na74  1  0.24937483  0.16773175  0.62451534  1
  Na  Na75  1  0.25362045  0.16522582  0.87621150  1
  Na  Na76  1  0.25136850  0.49959126  0.12551486  1
  Na  Na77  1  0.25117420  0.50039097  0.37468877  1
  Na  Na78  1  0.25235902  0.49884479  0.62468608  1
  Na  Na79  1  0.24817740  0.50107956  0.87474497  1
  Na  Na80  1  0.25123776  0.83277040  0.12439063  1
  Na  Na81  1  0.25099931  0.83256751  0.37489963  1
  Na  Na82  1  0.25045449  0.83319622  0.62553025  1
  Na  Na83  1  0.25191581  0.83259123  0.87509138  1
  Na  Na84  1  0.75027216  0.16707556  0.12583473  1
  Na  Na85  1  0.75036190  0.16670489  0.37442773  1
  Na  Na86  1  0.74988675  0.16710042  0.62417605  1
  Na  Na87  1  0.75163677  0.16656074  0.87502416  1
  Na  Na88  1  0.74932664  0.50015839  0.12470605  1
  Na  Na89  1  0.74913737  0.50105823  0.37536824  1
  Na  Na90  1  0.75105514  0.49995192  0.62457943  1
  Na  Na91  1  0.74955079  0.50004914  0.87516153  1
  Na  Na92  1  0.75120738  0.83260253  0.12602988  1
  Na  Na93  1  0.74967867  0.83341038  0.37451796  1
  Na  Na94  1  0.75233493  0.83188821  0.62503850  1
  Na  Na95  1  0.75095944  0.83320766  0.87526051  1
  Mn  Mn96  1  0.10778535  0.41639596  0.12252251  1
  Mn  Mn97  1  0.85869321  0.41706069  0.50140814  1
  Mn  Mn98  1  0.14282664  0.91653344  0.74778370  1
  Mn  Mn99  1  0.10871252  0.08231763  0.62342188  1
  Mn  Mn100  1  0.85828096  0.08254514  0.50131997  1
  Mn  Mn101  1  0.10768811  0.08415361  0.87291850  1
  Mn  Mn102  1  0.14192655  0.25011920  0.99753714  1
  Mn  Mn103  1  0.89285693  0.24938397  0.62671949  1
  Mn  Mn104  1  0.64172855  0.25001554  0.49725298  1
  Mn  Mn105  1  0.85827642  0.08345263  0.75224838  1
  Mn  Mn106  1  0.14316344  0.58312238  0.49737107  1
  Mn  Mn107  1  0.14266540  0.25015522  0.74912919  1
  Mn  Mn108  1  0.39231510  0.25034724  0.12711682  1
  Mn  Mn109  1  0.14259859  0.25017640  0.24739323  1
  Mn  Mn110  1  0.85822495  0.41791239  0.25292315  1
  Mn  Mn111  1  0.60721577  0.08298613  0.62311270  1
  Mn  Mn112  1  0.85806454  0.08262033  0.25281746  1
  Mn  Mn113  1  0.39227715  0.91661844  0.37654659  1
  Mn  Mn114  1  0.39106350  0.24978175  0.62756390  1
  Mn  Mn115  1  0.89192862  0.58408509  0.12782925  1
  Mn  Mn116  1  0.64180422  0.91639505  0.49843670  1
  Mn  Mn117  1  0.64226772  0.91720590  0.99817883  1
  Mn  Mn118  1  0.60649062  0.41673769  0.37290400  1
  Mn  Mn119  1  0.10827302  0.41702437  0.62312296  1
  Mn  Mn120  1  0.35818400  0.41709617  0.00171322  1
  Mn  Mn121  1  0.39271063  0.58310343  0.87707591  1
  Mn  Mn122  1  0.10788181  0.74965081  0.37272378  1
  Mn  Mn123  1  0.60744971  0.75023632  0.87290686  1
  Mn  Mn124  1  0.14255045  0.91680558  0.49845473  1
  Mn  Mn125  1  0.89186408  0.91671344  0.87787064  1
  Mn  Mn126  1  0.60752615  0.75031470  0.62307389  1
  Mn  Mn127  1  0.10781602  0.74929819  0.87285246  1
  Mn  Mn128  1  0.64183418  0.58359333  0.49767662  1
  Mn  Mn129  1  0.35738571  0.74965425  0.75228856  1
  Mn  Mn130  1  0.14240994  0.58332814  0.99790934  1
  Mn  Mn131  1  0.64211598  0.25054128  0.24813585  1
  Mn  Mn132  1  0.60719510  0.41645116  0.62298392  1
  Mn  Mn133  1  0.85772641  0.74994722  0.00314072  1
  Mn  Mn134  1  0.89257536  0.91692287  0.37704243  1
  Mn  Mn135  1  0.60688417  0.75019410  0.12311530  1
  Mn  Mn136  1  0.60737384  0.08321801  0.87337008  1
  Mn  Mn137  1  0.35770019  0.08333712  0.50178240  1
  Mn  Mn138  1  0.60714020  0.08334195  0.12224839  1
  Mn  Mn139  1  0.89240556  0.58377001  0.62774433  1
  Mn  Mn140  1  0.60761846  0.41650815  0.12324097  1
  Mn  Mn141  1  0.64239754  0.25040273  0.74776297  1
  Mn  Mn142  1  0.64169650  0.91590491  0.74770903  1
  Mn  Mn143  1  0.14307245  0.91653058  0.99820464  1
  Fe  Fe144  1  0.35638493  0.08317319  0.25196391  1
  Fe  Fe145  1  0.89245602  0.58269660  0.87662911  1
  Fe  Fe146  1  0.89273158  0.91663867  0.62640507  1
  Fe  Fe147  1  0.85726915  0.75018194  0.50160477  1
  Fe  Fe148  1  0.35765902  0.74971835  0.00232549  1
  Fe  Fe149  1  0.64254398  0.91592583  0.24794031  1
  Fe  Fe150  1  0.89198940  0.25065084  0.87717788  1
  Fe  Fe151  1  0.85760731  0.74913970  0.75174264  1
  Fe  Fe152  1  0.10759249  0.75056125  0.12391710  1
  Fe  Fe153  1  0.39246906  0.58373623  0.62784312  1
  Fe  Fe154  1  0.39259182  0.58354321  0.12714036  1
  Fe  Fe155  1  0.10816777  0.41676476  0.37334625  1
  Fe  Fe156  1  0.85768152  0.08375135  0.00224578  1
  Fe  Fe157  1  0.64210081  0.58382857  0.24912496  1
  Fe  Fe158  1  0.89249769  0.24932640  0.12671008  1
  Fe  Fe159  1  0.14352298  0.58408049  0.24884311  1
  Fe  Fe160  1  0.64365361  0.25001500  0.99817957  1
  Fe  Fe161  1  0.35737425  0.41695251  0.25206383  1
  Fe  Fe162  1  0.10613660  0.41677151  0.87350974  1
  Fe  Fe163  1  0.85659856  0.41654269  0.00122885  1
  Fe  Fe164  1  0.85747555  0.41747499  0.75238198  1
  Fe  Fe165  1  0.14297178  0.91575262  0.24771507  1
  Fe  Fe166  1  0.35674663  0.41680308  0.50174215  1
  Fe  Fe167  1  0.60805916  0.41632365  0.87287348  1
  Fe  Fe168  1  0.89313533  0.58246832  0.37584158  1
  Fe  Fe169  1  0.39301283  0.25023069  0.87735109  1
  Fe  Fe170  1  0.35796097  0.08419109  0.75225680  1
  Fe  Fe171  1  0.39206131  0.91626372  0.12800016  1
  Fe  Fe172  1  0.10711673  0.08303598  0.12298062  1
  Fe  Fe173  1  0.39206223  0.25003737  0.37665433  1
  Fe  Fe174  1  0.39237311  0.58328176  0.37639082  1
  Fe  Fe175  1  0.60698331  0.74996631  0.37302596  1
  Fe  Fe176  1  0.85702143  0.74969392  0.25160803  1
  Fe  Fe177  1  0.39199894  0.91629077  0.62681606  1
  Fe  Fe178  1  0.35739580  0.08332066  0.00256522  1
  Fe  Fe179  1  0.35676066  0.75003542  0.25182232  1
  Fe  Fe180  1  0.89326448  0.91675052  0.12718434  1
  Fe  Fe181  1  0.14286039  0.25046593  0.49774780  1
  Fe  Fe182  1  0.64358574  0.58340683  0.74835249  1
  Fe  Fe183  1  0.60694857  0.08325119  0.37309033  1
  Fe  Fe184  1  0.35707540  0.41664293  0.75248026  1
  Fe  Fe185  1  0.10806431  0.08394804  0.37285112  1
  Fe  Fe186  1  0.10679073  0.75029595  0.62338698  1
  Fe  Fe187  1  0.35783419  0.74976556  0.50217111  1
  Fe  Fe188  1  0.89390418  0.25039381  0.37662123  1
  Fe  Fe189  1  0.14241610  0.58326815  0.74861085  1
  Fe  Fe190  1  0.39200830  0.91679754  0.87736062  1
  Fe  Fe191  1  0.64245967  0.58268772  0.99811528  1
  P  P192  1  0.05224012  0.24921524  0.11000031  1
  P  P193  1  0.05433486  0.25068803  0.36098886  1
  P  P194  1  0.05494644  0.25007217  0.60962866  1
  P  P195  1  0.05146429  0.25115766  0.86053858  1
  P  P196  1  0.05491888  0.58477691  0.11154256  1
  P  P197  1  0.05343162  0.58261156  0.35940856  1
  P  P198  1  0.05501154  0.58439058  0.61114875  1
  P  P199  1  0.05262517  0.58231086  0.85978405  1
  P  P200  1  0.05407568  0.91598090  0.11151572  1
  P  P201  1  0.05471899  0.91697643  0.35932187  1
  P  P202  1  0.05230138  0.91522169  0.61017756  1
  P  P203  1  0.05347638  0.91666377  0.86036377  1
  P  P204  1  0.55398009  0.25011026  0.10898357  1
  P  P205  1  0.55132387  0.24958120  0.35977150  1
  P  P206  1  0.55242809  0.25015202  0.60988665  1
  P  P207  1  0.55386681  0.25053862  0.86136172  1
  P  P208  1  0.55377274  0.58338264  0.11085024  1
  P  P209  1  0.55204712  0.58428530  0.35974882  1
  P  P210  1  0.55312731  0.58325565  0.61121092  1
  P  P211  1  0.55573488  0.58245036  0.86045188  1
  P  P212  1  0.55263994  0.91647599  0.11117218  1
  P  P213  1  0.55402527  0.91615955  0.35925831  1
  P  P214  1  0.55103705  0.91636701  0.60995196  1
  P  P215  1  0.55141131  0.91676687  0.86046674  1
  P  P216  1  0.44418137  0.08255821  0.13972139  1
  P  P217  1  0.44609146  0.08373836  0.38813060  1
  P  P218  1  0.44561443  0.08265963  0.64063946  1
  P  P219  1  0.44443463  0.08369365  0.88987217  1
  P  P220  1  0.44582393  0.41772853  0.14057033  1
  P  P221  1  0.44388165  0.41690677  0.38920427  1
  P  P222  1  0.44407426  0.41752034  0.63979545  1
  P  P223  1  0.44713708  0.41634515  0.88879199  1
  P  P224  1  0.44415512  0.74967359  0.13956291  1
  P  P225  1  0.44552547  0.74927278  0.38889453  1
  P  P226  1  0.44518487  0.74968940  0.63897003  1
  P  P227  1  0.44575416  0.75007013  0.89093866  1
  P  P228  1  0.94641933  0.08311921  0.13906758  1
  P  P229  1  0.94874304  0.08387093  0.38960155  1
  P  P230  1  0.94730321  0.08220605  0.63969011  1
  P  P231  1  0.94590309  0.08420432  0.89112020  1
  P  P232  1  0.94502180  0.41619392  0.13860688  1
  P  P233  1  0.94877065  0.41728837  0.38958122  1
  P  P234  1  0.94624244  0.41680206  0.64075184  1
  P  P235  1  0.94528953  0.41738157  0.88951308  1
  P  P236  1  0.94713314  0.75096621  0.14097771  1
  P  P237  1  0.94474624  0.74866551  0.38898789  1
  P  P238  1  0.94576511  0.75080106  0.63924113  1
  P  P239  1  0.94534032  0.74836348  0.88917104  1
  P  P240  1  0.19563790  0.08261053  0.23518882  1
  P  P241  1  0.19622841  0.08392008  0.48427232  1
  P  P242  1  0.19881670  0.08367594  0.73567230  1
  P  P243  1  0.19671983  0.08316531  0.98625804  1
  P  P244  1  0.19684774  0.41766587  0.23631420  1
  P  P245  1  0.19737781  0.41645379  0.48432652  1
  P  P246  1  0.19643164  0.41730466  0.73658818  1
  P  P247  1  0.19594987  0.41676197  0.98414441  1
  P  P248  1  0.19726445  0.74980071  0.23481931  1
  P  P249  1  0.19714221  0.75008639  0.48618958  1
  P  P250  1  0.19578844  0.74898464  0.73443979  1
  P  P251  1  0.19720181  0.75013692  0.98623577  1
  P  P252  1  0.69487763  0.08284574  0.23610626  1
  P  P253  1  0.69595046  0.08307847  0.48388773  1
  P  P254  1  0.69683629  0.08326395  0.73494324  1
  P  P255  1  0.69820616  0.08404303  0.98536604  1
  P  P256  1  0.69650816  0.41783773  0.23543957  1
  P  P257  1  0.69664727  0.41672875  0.48469996  1
  P  P258  1  0.69700074  0.41755290  0.73602551  1
  P  P259  1  0.69675375  0.41613123  0.98489499  1
  P  P260  1  0.69585688  0.74949225  0.23645627  1
  P  P261  1  0.69691932  0.75010112  0.48436089  1
  P  P262  1  0.69786027  0.74889040  0.73518075  1
  P  P263  1  0.69635259  0.74970243  0.98549767  1
  P  P264  1  0.30445513  0.24997347  0.01415423  1
  P  P265  1  0.30411961  0.24987226  0.26514607  1
  P  P266  1  0.30305249  0.25077549  0.51344187  1
  P  P267  1  0.30424967  0.25044649  0.76613701  1
  P  P268  1  0.30431703  0.58373719  0.01563393  1
  P  P269  1  0.30421977  0.58383668  0.26421109  1
  P  P270  1  0.30586802  0.58330303  0.51411002  1
  P  P271  1  0.30307890  0.58266008  0.76407567  1
  P  P272  1  0.30576432  0.91645409  0.01475548  1
  P  P273  1  0.30306884  0.91654951  0.26349627  1
  P  P274  1  0.30427638  0.91583262  0.51519404  1
  P  P275  1  0.30522784  0.91736115  0.76477639  1
  P  P276  1  0.80427013  0.25032218  0.01449959  1
  P  P277  1  0.80569990  0.24995932  0.26482090  1
  P  P278  1  0.80494452  0.24985287  0.51347537  1
  P  P279  1  0.80438143  0.25098726  0.76543193  1
  P  P280  1  0.80314503  0.58222612  0.01394372  1
  P  P281  1  0.80252381  0.58432578  0.26559527  1
  P  P282  1  0.80493147  0.58404431  0.51353365  1
  P  P283  1  0.80331314  0.58341078  0.76547273  1
  P  P284  1  0.80413565  0.91763441  0.01652441  1
  P  P285  1  0.80358823  0.91566145  0.26384870  1
  P  P286  1  0.80398189  0.91586567  0.51516647  1
  P  P287  1  0.80454647  0.91543753  0.76381389  1
  O  O288  1  0.05644183  0.24981361  0.18669164  1
  O  O289  1  0.05898625  0.25075717  0.43765906  1
  O  O290  1  0.05778095  0.25033096  0.68642879  1
  O  O291  1  0.05537018  0.25055364  0.93719627  1
  O  O292  1  0.05971813  0.58404470  0.18820850  1
  O  O293  1  0.05705603  0.58350795  0.43616315  1
  O  O294  1  0.05907962  0.58331075  0.68786804  1
  O  O295  1  0.05628314  0.58331969  0.93652843  1
  O  O296  1  0.05893003  0.91586400  0.18817724  1
  O  O297  1  0.05764254  0.91588416  0.43609303  1
  O  O298  1  0.05611161  0.91580520  0.68686615  1
  O  O299  1  0.05702703  0.91662441  0.93714667  1
  O  O300  1  0.55701809  0.25009781  0.18576473  1
  O  O301  1  0.55502975  0.25011083  0.43646602  1
  O  O302  1  0.55591217  0.25057530  0.68666494  1
  O  O303  1  0.55933327  0.25008093  0.93797226  1
  O  O304  1  0.55860770  0.58350526  0.18751006  1
  O  O305  1  0.55558235  0.58381385  0.43646937  1
  O  O306  1  0.55881378  0.58330928  0.68780873  1
  O  O307  1  0.55969348  0.58291200  0.93730328  1
  O  O308  1  0.55837514  0.91630097  0.18774736  1
  O  O309  1  0.55651338  0.91603685  0.43605344  1
  O  O310  1  0.55497089  0.91600770  0.68665646  1
  O  O311  1  0.55570005  0.91680990  0.93714237  1
  O  O312  1  0.44036279  0.08328079  0.06290903  1
  O  O313  1  0.44099166  0.08313572  0.31151550  1
  O  O314  1  0.44304132  0.08357585  0.56379683  1
  O  O315  1  0.44101256  0.08383936  0.81306553  1
  O  O316  1  0.44346111  0.41704145  0.06378372  1
  O  O317  1  0.44032929  0.41700247  0.31237366  1
  O  O318  1  0.43994768  0.41671473  0.56300438  1
  O  O319  1  0.44190371  0.41706977  0.81218311  1
  O  O320  1  0.44084094  0.74955940  0.06279920  1
  O  O321  1  0.44061633  0.74993803  0.31219262  1
  O  O322  1  0.44182775  0.74953676  0.56218096  1
  O  O323  1  0.44276840  0.74899936  0.81412458  1
  O  O324  1  0.94161992  0.08324678  0.06244585  1
  O  O325  1  0.94471865  0.08305597  0.31291122  1
  O  O326  1  0.94447275  0.08283347  0.56295749  1
  O  O327  1  0.94320864  0.08340120  0.81430613  1
  O  O328  1  0.94051271  0.41718340  0.06191137  1
  O  O329  1  0.94514563  0.41741259  0.31286221  1
  O  O330  1  0.94340552  0.41725460  0.56396118  1
  O  O331  1  0.94116137  0.41745048  0.81279496  1
  O  O332  1  0.94344619  0.75008624  0.06421220  1
  O  O333  1  0.94059969  0.74960705  0.31226258  1
  O  O334  1  0.94137335  0.74989443  0.56252697  1
  O  O335  1  0.94133812  0.74876462  0.81243231  1
  O  O336  1  0.19105468  0.08347601  0.06290552  1
  O  O337  1  0.19094372  0.08339795  0.31191304  1
  O  O338  1  0.19375595  0.08329951  0.56111518  1
  O  O339  1  0.19477614  0.08338886  0.81236425  1
  O  O340  1  0.19289118  0.41645791  0.06099498  1
  O  O341  1  0.19194134  0.41707608  0.31292869  1
  O  O342  1  0.19381360  0.41700677  0.56105353  1
  O  O343  1  0.19100307  0.41695411  0.81315619  1
  O  O344  1  0.19202196  0.75027737  0.06281829  1
  O  O345  1  0.19387191  0.74982196  0.31154290  1
  O  O346  1  0.19172108  0.75024212  0.56272666  1
  O  O347  1  0.19310253  0.74961360  0.81130445  1
  O  O348  1  0.69403309  0.08355131  0.06205877  1
  O  O349  1  0.69023761  0.08352577  0.31281906  1
  O  O350  1  0.69285360  0.08338031  0.56068909  1
  O  O351  1  0.69341900  0.08309447  0.81172836  1
  O  O352  1  0.69340337  0.41620686  0.06159071  1
  O  O353  1  0.69293403  0.41691184  0.31215659  1
  O  O354  1  0.69337577  0.41656938  0.56148577  1
  O  O355  1  0.69212893  0.41641931  0.81268845  1
  O  O356  1  0.69294257  0.75017744  0.06226465  1
  O  O357  1  0.69130298  0.74976218  0.31310202  1
  O  O358  1  0.69295694  0.74979187  0.56107719  1
  O  O359  1  0.69383129  0.75003448  0.81183827  1
  O  O360  1  0.30676240  0.25006697  0.18835191  1
  O  O361  1  0.30788936  0.24981484  0.43683552  1
  O  O362  1  0.30602897  0.25045336  0.68922754  1
  O  O363  1  0.30878287  0.25073534  0.93746341  1
  O  O364  1  0.30832566  0.58343210  0.18755051  1
  O  O365  1  0.30942417  0.58379346  0.43728510  1
  O  O366  1  0.30761599  0.58312372  0.68741511  1
  O  O367  1  0.30716460  0.58313829  0.93883238  1
  O  O368  1  0.30739695  0.91673904  0.18683041  1
  O  O369  1  0.30692363  0.91628886  0.43836884  1
  O  O370  1  0.30882621  0.91656814  0.68797992  1
  O  O371  1  0.30920053  0.91634427  0.93789383  1
  O  O372  1  0.80989564  0.24955473  0.18800562  1
  O  O373  1  0.81011453  0.24995291  0.43672758  1
  O  O374  1  0.80729795  0.25014376  0.68862913  1
  O  O375  1  0.80864463  0.25018885  0.93777512  1
  O  O376  1  0.80599991  0.58335995  0.18885522  1
  O  O377  1  0.80923781  0.58298870  0.43686831  1
  O  O378  1  0.80660852  0.58332646  0.68873741  1
  O  O379  1  0.80803389  0.58293562  0.93737689  1
  O  O380  1  0.80899804  0.91665419  0.18728557  1
  O  O381  1  0.80687904  0.91684615  0.43836226  1
  O  O382  1  0.80872093  0.91620675  0.68710306  1
  O  O383  1  0.80690137  0.91677769  0.93967311  1
  O  O384  1  0.23455900  0.25034254  0.03874199  1
  O  O385  1  0.23435975  0.25010559  0.29014621  1
  O  O386  1  0.23286221  0.25073046  0.53754237  1
  O  O387  1  0.23480945  0.24997853  0.79214256  1
  O  O388  1  0.23460768  0.58278408  0.04065848  1
  O  O389  1  0.23394470  0.58409436  0.28852371  1
  O  O390  1  0.23581249  0.58273231  0.53834173  1
  O  O391  1  0.23289201  0.58368049  0.78825666  1
  O  O392  1  0.23578164  0.91685003  0.03918832  1
  O  O393  1  0.23285656  0.91583273  0.28765692  1
  O  O394  1  0.23469380  0.91703733  0.54066237  1
  O  O395  1  0.23534924  0.91593856  0.78950484  1
  O  O396  1  0.73391939  0.25037498  0.03848409  1
  O  O397  1  0.73549797  0.25016420  0.28844471  1
  O  O398  1  0.73486287  0.25021393  0.53727549  1
  O  O399  1  0.73466812  0.25027470  0.79053535  1
  O  O400  1  0.73272466  0.58238477  0.03762255  1
  O  O401  1  0.73252817  0.58431483  0.29027384  1
  O  O402  1  0.73495952  0.58359565  0.53793596  1
  O  O403  1  0.73334143  0.58342620  0.79026696  1
  O  O404  1  0.73446011  0.91682410  0.04175048  1
  O  O405  1  0.73315755  0.91576984  0.28717528  1
  O  O406  1  0.73432972  0.91594358  0.54045185  1
  O  O407  1  0.73464987  0.91608511  0.78851720  1
  O  O408  1  0.26613458  0.08350736  0.21191490  1
  O  O409  1  0.26587173  0.08267048  0.45891942  1
  O  O410  1  0.26879852  0.08462935  0.71109463  1
  O  O411  1  0.26727387  0.08257330  0.96352213  1
  O  O412  1  0.26732014  0.41703117  0.21286189  1
  O  O413  1  0.26751490  0.41731071  0.46009536  1
  O  O414  1  0.26675959  0.41642805  0.71290603  1
  O  O415  1  0.26574890  0.41762932  0.95953566  1
  O  O416  1  0.26741923  0.74987593  0.21047034  1
  O  O417  1  0.26753698  0.74958007  0.46272475  1
  O  O418  1  0.26554531  0.74929820  0.70955757  1
  O  O419  1  0.26755062  0.74990903  0.96268213  1
  O  O420  1  0.76511055  0.08342607  0.21254364  1
  O  O421  1  0.76568756  0.08249496  0.45878891  1
  O  O422  1  0.76656447  0.08361838  0.70999757  1
  O  O423  1  0.76832713  0.08372173  0.96113038  1
  O  O424  1  0.76622774  0.41743348  0.21050720  1
  O  O425  1  0.76634845  0.41699872  0.45967661  1
  O  O426  1  0.76734276  0.41746123  0.71234738  1
  O  O427  1  0.76688935  0.41643573  0.96039137  1
  O  O428  1  0.76610619  0.74919899  0.21226158  1
  O  O429  1  0.76711769  0.75055871  0.46037121  1
  O  O430  1  0.76788582  0.74870553  0.71066820  1
  O  O431  1  0.76616101  0.74992640  0.96078270  1
  O  O432  1  0.01681252  0.08303757  0.16279338  1
  O  O433  1  0.01886281  0.08343651  0.41388176  1
  O  O434  1  0.01681973  0.08273457  0.66547139  1
  O  O435  1  0.01556273  0.08365398  0.91645169  1
  O  O436  1  0.01515622  0.41619239  0.16255511  1
  O  O437  1  0.01865347  0.41733437  0.41468229  1
  O  O438  1  0.01601289  0.41654342  0.66558953  1
  O  O439  1  0.01548163  0.41725947  0.91386596  1
  O  O440  1  0.01720584  0.75028948  0.16538715  1
  O  O441  1  0.01490850  0.74962673  0.41297149  1
  O  O442  1  0.01597282  0.74978847  0.66336011  1
  O  O443  1  0.01527897  0.74944814  0.91370733  1
  O  O444  1  0.51427639  0.08351501  0.16358934  1
  O  O445  1  0.51639985  0.08293774  0.41191232  1
  O  O446  1  0.51507980  0.08336009  0.66644571  1
  O  O447  1  0.51434704  0.08316053  0.91467151  1
  O  O448  1  0.51540043  0.41698431  0.16603060  1
  O  O449  1  0.51379235  0.41736997  0.41393051  1
  O  O450  1  0.51412203  0.41662912  0.66390591  1
  O  O451  1  0.51745259  0.41688710  0.91248009  1
  O  O452  1  0.51410566  0.74977118  0.16403063  1
  O  O453  1  0.51596237  0.75000915  0.41242715  1
  O  O454  1  0.51484645  0.74992027  0.66428574  1
  O  O455  1  0.51541922  0.74974868  0.91615554  1
  O  O456  1  0.48414859  0.25038182  0.08437015  1
  O  O457  1  0.48130040  0.25009709  0.33510677  1
  O  O458  1  0.48262323  0.24983574  0.58512672  1
  O  O459  1  0.48340006  0.25019116  0.83808927  1
  O  O460  1  0.48331131  0.58339819  0.08749076  1
  O  O461  1  0.48186522  0.58351025  0.33544853  1
  O  O462  1  0.48269247  0.58342937  0.58804443  1
  O  O463  1  0.48561696  0.58307445  0.83648518  1
  O  O464  1  0.48209087  0.91623764  0.08848030  1
  O  O465  1  0.48426156  0.91641995  0.33405719  1
  O  O466  1  0.48115308  0.91642218  0.58509926  1
  O  O467  1  0.48115108  0.91685673  0.83665625  1
  O  O468  1  0.98207021  0.24978383  0.08591644  1
  O  O469  1  0.98407616  0.25025910  0.33687523  1
  O  O470  1  0.98522761  0.25013460  0.58458752  1
  O  O471  1  0.98140647  0.25071880  0.83612606  1
  O  O472  1  0.98477332  0.58441861  0.08771874  1
  O  O473  1  0.98340477  0.58303657  0.33471884  1
  O  O474  1  0.98501384  0.58401558  0.58700600  1
  O  O475  1  0.98260160  0.58254163  0.83521766  1
  O  O476  1  0.98376182  0.91635372  0.08769647  1
  O  O477  1  0.98485253  0.91667028  0.33454376  1
  O  O478  1  0.98251605  0.91608708  0.58500142  1
  O  O479  1  0.98364122  0.91624077  0.83586052  1
  O  O480  1  0.08607623  0.31415148  0.07710729  1
  O  O481  1  0.08733783  0.31590106  0.32759926  1
  O  O482  1  0.08915964  0.31504369  0.57701338  1
  O  O483  1  0.08505079  0.31638433  0.82797008  1
  O  O484  1  0.08801966  0.65018240  0.07862201  1
  O  O485  1  0.08766838  0.64755414  0.32662874  1
  O  O486  1  0.08831880  0.64961360  0.57822910  1
  O  O487  1  0.08684597  0.64703604  0.82673950  1
  O  O488  1  0.08752245  0.98104058  0.07833737  1
  O  O489  1  0.08876873  0.98209200  0.32718571  1
  O  O490  1  0.08687917  0.98008064  0.57778036  1
  O  O491  1  0.08709368  0.98190038  0.82776009  1
  O  O492  1  0.58825938  0.31506472  0.07665839  1
  O  O493  1  0.58522785  0.31467962  0.32704369  1
  O  O494  1  0.58612500  0.31523755  0.57711137  1
  O  O495  1  0.58678935  0.31569537  0.82776076  1
  O  O496  1  0.58716295  0.64825579  0.07734918  1
  O  O497  1  0.58552627  0.64947496  0.32693545  1
  O  O498  1  0.58630176  0.64827314  0.57760166  1
  O  O499  1  0.58952368  0.64737973  0.82728827  1
  O  O500  1  0.58537830  0.98159460  0.07739592  1
  O  O501  1  0.58845143  0.98104133  0.32692918  1
  O  O502  1  0.58493176  0.98144909  0.57746947  1
  O  O503  1  0.58506744  0.98167653  0.82749221  1
  O  O504  1  0.41093535  0.01732504  0.17276711  1
  O  O505  1  0.41260996  0.01879039  0.42149541  1
  O  O506  1  0.41154086  0.01731504  0.67237537  1
  O  O507  1  0.41027887  0.01875340  0.92251538  1
  O  O508  1  0.41102633  0.35301943  0.17301697  1
  O  O509  1  0.41034056  0.35165396  0.42198829  1
  O  O510  1  0.40990377  0.35279862  0.67296736  1
  O  O511  1  0.41400081  0.35125958  0.92212190  1
  O  O512  1  0.41053706  0.68454705  0.17244936  1
  O  O513  1  0.41247038  0.68408818  0.42209980  1
  O  O514  1  0.41150423  0.68458543  0.67201139  1
  O  O515  1  0.41139749  0.68516705  0.92353740  1
  O  O516  1  0.91330094  0.01795471  0.17251536  1
  O  O517  1  0.91493083  0.01878690  0.42235001  1
  O  O518  1  0.91322081  0.01700619  0.67175438  1
  O  O519  1  0.91129631  0.01945967  0.92374976  1
  O  O520  1  0.91165490  0.35101937  0.17130741  1
  O  O521  1  0.91480036  0.35223675  0.42209709  1
  O  O522  1  0.91183562  0.35188876  0.67289121  1
  O  O523  1  0.91148901  0.35238546  0.92252714  1
  O  O524  1  0.91265992  0.68622168  0.17376698  1
  O  O525  1  0.91183065  0.68317884  0.42174838  1
  O  O526  1  0.91176138  0.68613309  0.67286581  1
  O  O527  1  0.91240693  0.68286630  0.92208289  1
  O  O528  1  0.16280866  0.01728561  0.20202712  1
  O  O529  1  0.16123082  0.01929760  0.45198324  1
  O  O530  1  0.16565601  0.01831962  0.70265844  1
  O  O531  1  0.16354576  0.01826519  0.95279083  1
  O  O532  1  0.16354962  0.35273475  0.20259205  1
  O  O533  1  0.16383950  0.35136638  0.45149946  1
  O  O534  1  0.16300263  0.35230313  0.70320553  1
  O  O535  1  0.16209313  0.35170957  0.95145043  1
  O  O536  1  0.16344849  0.68475495  0.20214086  1
  O  O537  1  0.16381961  0.68517247  0.45254567  1
  O  O538  1  0.16167309  0.68391498  0.70231063  1
  O  O539  1  0.16390794  0.68507477  0.95286882  1
  O  O540  1  0.66185348  0.01747670  0.20307227  1
  O  O541  1  0.66131067  0.01809773  0.45190483  1
  O  O542  1  0.66299872  0.01806644  0.70245973  1
  O  O543  1  0.66437937  0.01898765  0.95248268  1
  O  O544  1  0.66246317  0.35291202  0.20258345  1
  O  O545  1  0.66261433  0.35180160  0.45200943  1
  O  O546  1  0.66365479  0.35268203  0.70232899  1
  O  O547  1  0.66317401  0.35099232  0.95194101  1
  O  O548  1  0.66227758  0.68435193  0.20355563  1
  O  O549  1  0.66327163  0.68506398  0.45131550  1
  O  O550  1  0.66402925  0.68367654  0.70276237  1
  O  O551  1  0.66252876  0.68448319  0.95331953  1
  O  O552  1  0.33816781  0.31499743  0.04714180  1
  O  O553  1  0.33848043  0.31476777  0.29753120  1
  O  O554  1  0.33633311  0.31594232  0.54648007  1
  O  O555  1  0.33861343  0.31565076  0.79815062  1
  O  O556  1  0.33804389  0.64897989  0.04799864  1
  O  O557  1  0.33773793  0.64896921  0.29727237  1
  O  O558  1  0.33926830  0.64838286  0.54735274  1
  O  O559  1  0.33703918  0.64740877  0.79727882  1
  O  O560  1  0.33967782  0.98136649  0.04764497  1
  O  O561  1  0.33599873  0.98178554  0.29687051  1
  O  O562  1  0.33922775  0.98052475  0.54738963  1
  O  O563  1  0.33824143  0.98289825  0.79735791  1
  O  O564  1  0.83765150  0.31556575  0.04738290  1
  O  O565  1  0.83945789  0.31498527  0.29772661  1
  O  O566  1  0.83860477  0.31478252  0.54660347  1
  O  O567  1  0.83810820  0.31637422  0.79768902  1
  O  O568  1  0.83630569  0.64718012  0.04779793  1
  O  O569  1  0.83693371  0.64923160  0.29766464  1
  O  O570  1  0.83814302  0.64957966  0.54614020  1
  O  O571  1  0.83745859  0.64836080  0.79806562  1
  O  O572  1  0.83811444  0.98295271  0.04851571  1
  O  O573  1  0.83665938  0.98057722  0.29783449  1
  O  O574  1  0.83842348  0.98068025  0.54781196  1
  O  O575  1  0.83855154  0.98026862  0.79699529  1
  O  O576  1  0.41006001  0.14732335  0.17272351  1
  O  O577  1  0.41308927  0.14889087  0.42153614  1
  O  O578  1  0.41083905  0.14743868  0.67317455  1
  O  O579  1  0.41085852  0.14892753  0.92270775  1
  O  O580  1  0.41177482  0.48296344  0.17268453  1
  O  O581  1  0.40993502  0.48191451  0.42191149  1
  O  O582  1  0.41089160  0.48287104  0.67278161  1
  O  O583  1  0.41373357  0.48127265  0.92232371  1
  O  O584  1  0.41027320  0.81460729  0.17263405  1
  O  O585  1  0.41173729  0.81406464  0.42232114  1
  O  O586  1  0.41107957  0.81477473  0.67130038  1
  O  O587  1  0.41157333  0.81522362  0.92289138  1
  O  O588  1  0.91318302  0.14817620  0.17233793  1
  O  O589  1  0.91516078  0.14893014  0.42221554  1
  O  O590  1  0.91291608  0.14719321  0.67204928  1
  O  O591  1  0.91181546  0.14952523  0.92305003  1
  O  O592  1  0.91189335  0.48131055  0.17218781  1
  O  O593  1  0.91480162  0.48244598  0.42204761  1
  O  O594  1  0.91219209  0.48181299  0.67343158  1
  O  O595  1  0.91177861  0.48246682  0.92273805  1
  O  O596  1  0.91332406  0.81611561  0.17343454  1
  O  O597  1  0.91066603  0.81335567  0.42231733  1
  O  O598  1  0.91261019  0.81608015  0.67213580  1
  O  O599  1  0.91120230  0.81313407  0.92218358  1
  O  O600  1  0.08566021  0.18400906  0.07729204  1
  O  O601  1  0.08781940  0.18564732  0.32779842  1
  O  O602  1  0.08924596  0.18506922  0.57736811  1
  O  O603  1  0.08551036  0.18624417  0.82770594  1
  O  O604  1  0.08825894  0.51977530  0.07810225  1
  O  O605  1  0.08750526  0.51760061  0.32699160  1
  O  O606  1  0.08868368  0.51945913  0.57786911  1
  O  O607  1  0.08658032  0.51708719  0.82745231  1
  O  O608  1  0.08709476  0.85067749  0.07824543  1
  O  O609  1  0.08893957  0.85199850  0.32658154  1
  O  O610  1  0.08580263  0.84997163  0.57740986  1
  O  O611  1  0.08756624  0.85171180  0.82787199  1
  O  O612  1  0.58799066  0.18512605  0.07630221  1
  O  O613  1  0.58505491  0.18455429  0.32711124  1
  O  O614  1  0.58656183  0.18508315  0.57767203  1
  O  O615  1  0.58688817  0.18544555  0.82779793  1
  O  O616  1  0.58713112  0.51837562  0.07744030  1
  O  O617  1  0.58629516  0.51955102  0.32682418  1
  O  O618  1  0.58597750  0.51817407  0.57750323  1
  O  O619  1  0.58918041  0.51732307  0.82752302  1
  O  O620  1  0.58571982  0.85156704  0.07752608  1
  O  O621  1  0.58796338  0.85088740  0.32684862  1
  O  O622  1  0.58495066  0.85140793  0.57713520  1
  O  O623  1  0.58476793  0.85159614  0.82738628  1
  O  O624  1  0.33788518  0.18472740  0.04688450  1
  O  O625  1  0.33801147  0.18461399  0.29752885  1
  O  O626  1  0.33633795  0.18576165  0.54695840  1
  O  O627  1  0.33921298  0.18565626  0.79797736  1
  O  O628  1  0.33908334  0.51907671  0.04815774  1
  O  O629  1  0.33770708  0.51891384  0.29761551  1
  O  O630  1  0.33964702  0.51821839  0.54681980  1
  O  O631  1  0.33612890  0.51745808  0.79738113  1
  O  O632  1  0.33922094  0.85124270  0.04762064  1
  O  O633  1  0.33691697  0.85163561  0.29643203  1
  O  O634  1  0.33801015  0.85052197  0.54744796  1
  O  O635  1  0.33979326  0.85272834  0.79776851  1
  O  O636  1  0.83771345  0.18533663  0.04800604  1
  O  O637  1  0.83929766  0.18505891  0.29811149  1
  O  O638  1  0.83802061  0.18451947  0.54658906  1
  O  O639  1  0.83911170  0.18639870  0.79818340  1
  O  O640  1  0.83634859  0.51714140  0.04710207  1
  O  O641  1  0.83661985  0.51946270  0.29871799  1
  O  O642  1  0.83883152  0.51942215  0.54705365  1
  O  O643  1  0.83730835  0.51841927  0.79826365  1
  O  O644  1  0.83898434  0.85290028  0.04897689  1
  O  O645  1  0.83669966  0.85046791  0.29685752  1
  O  O646  1  0.83828414  0.85063995  0.54701519  1
  O  O647  1  0.83784111  0.85001468  0.79651832  1
  O  O648  1  0.16193952  0.14740707  0.20160290  1
  O  O649  1  0.16267066  0.14935610  0.45198602  1
  O  O650  1  0.16442828  0.14844894  0.70328213  1
  O  O651  1  0.16415298  0.14834299  0.95243074  1
  O  O652  1  0.16395567  0.48287424  0.20314247  1
  O  O653  1  0.16323874  0.48123684  0.45131018  1
  O  O654  1  0.16373599  0.48253818  0.70293211  1
  O  O655  1  0.16124125  0.48151610  0.95191017  1
  O  O656  1  0.16335079  0.81467397  0.20175631  1
  O  O657  1  0.16418018  0.81512983  0.45256792  1
  O  O658  1  0.16150760  0.81395489  0.70183113  1
  O  O659  1  0.16413627  0.81509332  0.95262473  1
  O  O660  1  0.66143460  0.14782983  0.20277509  1
  O  O661  1  0.66186362  0.14806639  0.45113019  1
  O  O662  1  0.66275929  0.14836560  0.70263514  1
  O  O663  1  0.66459278  0.14914139  0.95261036  1
  O  O664  1  0.66275101  0.48329161  0.20344367  1
  O  O665  1  0.66234582  0.48180881  0.45256965  1
  O  O666  1  0.66375476  0.48288647  0.70316394  1
  O  O667  1  0.66257095  0.48098391  0.95218151  1
  O  O668  1  0.66256810  0.81451446  0.20291127  1
  O  O669  1  0.66276304  0.81497245  0.45173911  1
  O  O670  1  0.66411360  0.81385230  0.70196544  1
  O  O671  1  0.66253448  0.81481961  0.95276226  1
