# generated using pymatgen
data_Na2MnFe(PO4)2
_symmetry_space_group_name_H-M   'P 1'
_cell_length_a   21.08557323
_cell_length_b   18.93741935
_cell_length_c   20.04458371
_cell_angle_alpha   89.99981461
_cell_angle_beta   90.00296433
_cell_angle_gamma   90.00066356
_symmetry_Int_Tables_number   1
_chemical_formula_structural   Na2MnFe(PO4)2
_chemical_formula_sum   'Na96 Mn48 Fe48 P96 O384'
_cell_volume   8003.92939759
_cell_formula_units_Z   48
loop_
 _symmetry_equiv_pos_site_id
 _symmetry_equiv_pos_as_xyz
  1  'x, y, z'
loop_
 _atom_site_type_symbol
 _atom_site_label
 _atom_site_symmetry_multiplicity
 _atom_site_fract_x
 _atom_site_fract_y
 _atom_site_fract_z
 _atom_site_occupancy
  Na  Na0  1  -0.00097675  -0.00049258  0.00031016  1
  Na  Na1  1  0.00127598  0.00069787  0.24972155  1
  Na  Na2  1  -0.00105601  -0.00015618  0.50042453  1
  Na  Na3  1  -0.00048632  0.00050083  0.74922289  1
  Na  Na4  1  -0.00193797  0.33283651  0.00000864  1
  Na  Na5  1  0.00042372  0.33330891  0.24891098  1
  Na  Na6  1  0.00054238  0.33297861  0.50045107  1
  Na  Na7  1  -0.00089849  0.33337383  0.75020294  1
  Na  Na8  1  0.00157744  0.66653936  0.00051322  1
  Na  Na9  1  0.00284716  0.66652864  0.25052941  1
  Na  Na10  1  0.00377492  0.66738138  0.49924798  1
  Na  Na11  1  0.00174778  0.66682316  0.75062907  1
  Na  Na12  1  0.50013435  0.00044191  0.00097600  1
  Na  Na13  1  0.49948644  -0.00034076  0.25140234  1
  Na  Na14  1  0.50011305  0.00064254  0.49920904  1
  Na  Na15  1  0.49945580  -0.00002586  0.74856419  1
  Na  Na16  1  0.50051330  0.33329031  0.00080788  1
  Na  Na17  1  0.49863188  0.33302229  0.25003698  1
  Na  Na18  1  0.49837079  0.33255309  0.49942025  1
  Na  Na19  1  0.50243985  0.33367146  0.74966337  1
  Na  Na20  1  0.50064086  0.66670722  0.00035898  1
  Na  Na21  1  0.49847118  0.66641126  0.25026486  1
  Na  Na22  1  0.49864855  0.66634592  0.49993277  1
  Na  Na23  1  0.50126631  0.66670605  0.74892333  1
  Na  Na24  1  0.25138998  0.00014927  0.12449878  1
  Na  Na25  1  0.25134011  0.00087775  0.37471980  1
  Na  Na26  1  0.24827736  -0.00050078  0.62523470  1
  Na  Na27  1  0.25012377  0.00016171  0.87509072  1
  Na  Na28  1  0.25044378  0.33339535  0.12479169  1
  Na  Na29  1  0.25219244  0.33407798  0.37610910  1
  Na  Na30  1  0.25055058  0.33297394  0.62460644  1
  Na  Na31  1  0.24940216  0.33314548  0.87477837  1
  Na  Na32  1  0.24842534  0.66557831  0.12464381  1
  Na  Na33  1  0.24953677  0.66669769  0.37524614  1
  Na  Na34  1  0.24841843  0.66615832  0.62473126  1
  Na  Na35  1  0.25066139  0.66702943  0.87560327  1
  Na  Na36  1  0.74833199  -0.00042952  0.12416636  1
  Na  Na37  1  0.74833503  -0.00059041  0.37459795  1
  Na  Na38  1  0.75115911  0.00081464  0.62614790  1
  Na  Na39  1  0.75096643  0.00083469  0.87626711  1
  Na  Na40  1  0.74920809  0.33283171  0.12504268  1
  Na  Na41  1  0.74914389  0.33227785  0.37393483  1
  Na  Na42  1  0.74945594  0.33241203  0.62500880  1
  Na  Na43  1  0.75122105  0.33404222  0.87502174  1
  Na  Na44  1  0.74870507  0.66613423  0.12515776  1
  Na  Na45  1  0.74921851  0.66692051  0.37476322  1
  Na  Na46  1  0.74822075  0.66595412  0.62445974  1
  Na  Na47  1  0.74872228  0.66609273  0.87577289  1
  Na  Na48  1  -0.00160152  0.16758542  0.00009173  1
  Na  Na49  1  -0.00110696  0.16744997  0.24976875  1
  Na  Na50  1  -0.00106293  0.16706481  0.50057310  1
  Na  Na51  1  -0.00045264  0.16635858  0.74915900  1
  Na  Na52  1  -0.00074464  0.50003001  0.00003557  1
  Na  Na53  1  0.00202394  0.49975534  0.24983808  1
  Na  Na54  1  0.00172417  0.49959982  0.49933386  1
  Na  Na55  1  0.00009997  0.49981504  0.75098452  1
  Na  Na56  1  0.00060325  0.83374510  0.00090879  1
  Na  Na57  1  0.00343427  0.83229851  0.24949040  1
  Na  Na58  1  0.00266908  0.83306007  0.50018288  1
  Na  Na59  1  0.00074238  0.83344001  0.74980026  1
  Na  Na60  1  0.50325905  0.16639560  -0.00000526  1
  Na  Na61  1  0.50031766  0.16682272  0.25070776  1
  Na  Na62  1  0.49844365  0.16781251  0.49973660  1
  Na  Na63  1  0.50267195  0.16668167  0.74965798  1
  Na  Na64  1  0.49909481  0.50037664  0.00116593  1
  Na  Na65  1  0.49822111  0.49966161  0.24947424  1
  Na  Na66  1  0.49809193  0.50027280  0.49991512  1
  Na  Na67  1  0.50014539  0.49936904  0.74891351  1
  Na  Na68  1  0.49754866  0.83453988  0.00045380  1
  Na  Na69  1  0.49930389  0.83311115  0.25183114  1
  Na  Na70  1  0.50020909  0.83274981  0.49876341  1
  Na  Na71  1  0.50108158  0.83273463  0.74884316  1
  Na  Na72  1  0.25085655  0.16693141  0.12472007  1
  Na  Na73  1  0.25209074  0.16644353  0.37610439  1
  Na  Na74  1  0.24983708  0.16701970  0.62452717  1
  Na  Na75  1  0.24901495  0.16733470  0.87405309  1
  Na  Na76  1  0.24977527  0.49961584  0.12422496  1
  Na  Na77  1  0.25034848  0.49937716  0.37549505  1
  Na  Na78  1  0.24896007  0.50043185  0.62490389  1
  Na  Na79  1  0.25036520  0.49948546  0.87519302  1
  Na  Na80  1  0.25040248  0.83335166  0.12472321  1
  Na  Na81  1  0.24990863  0.83312415  0.37463372  1
  Na  Na82  1  0.24895375  0.83360207  0.62495479  1
  Na  Na83  1  0.25017278  0.83367728  0.87640624  1
  Na  Na84  1  0.74787950  0.16777181  0.12431332  1
  Na  Na85  1  0.75006689  0.16688886  0.37397692  1
  Na  Na86  1  0.75099346  0.16635667  0.62537524  1
  Na  Na87  1  0.74838201  0.16769217  0.87622495  1
  Na  Na88  1  0.75110309  0.49961433  0.12574953  1
  Na  Na89  1  0.74917294  0.50070292  0.37437392  1
  Na  Na90  1  0.75055208  0.49936321  0.62515761  1
  Na  Na91  1  0.75053695  0.49976175  0.87533837  1
  Na  Na92  1  0.74742382  0.83400735  0.12415023  1
  Na  Na93  1  0.74737492  0.83380319  0.37506314  1
  Na  Na94  1  0.74801413  0.83410897  0.62496214  1
  Na  Na95  1  0.75150581  0.83212408  0.87580823  1
  Mn  Mn96  1  0.10805570  0.08355267  0.37284995  1
  Mn  Mn97  1  0.64164063  0.58286298  0.49685113  1
  Mn  Mn98  1  0.85690187  0.08255331  0.25174279  1
  Mn  Mn99  1  0.39144688  0.58419005  0.12780238  1
  Mn  Mn100  1  0.60738084  0.74982901  0.87245493  1
  Mn  Mn101  1  0.60743187  0.08385623  0.37297070  1
  Mn  Mn102  1  0.60635625  0.41710797  0.37291075  1
  Mn  Mn103  1  0.35729388  0.08331883  0.75217506  1
  Mn  Mn104  1  0.35784523  0.75036364  0.75186846  1
  Mn  Mn105  1  0.85825796  0.75048885  0.50192808  1
  Mn  Mn106  1  0.14308131  0.25007594  0.49769468  1
  Mn  Mn107  1  0.60826740  0.41668439  0.62217673  1
  Mn  Mn108  1  0.14290013  0.91701915  0.99768127  1
  Mn  Mn109  1  0.89326135  0.58347657  0.37689149  1
  Mn  Mn110  1  0.60849299  0.08298959  0.62227638  1
  Mn  Mn111  1  0.85783150  0.74975843  0.75165050  1
  Mn  Mn112  1  0.10699510  0.41589528  0.87303006  1
  Mn  Mn113  1  0.14177450  0.25026162  0.99769946  1
  Mn  Mn114  1  0.14216609  0.58329167  0.74788416  1
  Mn  Mn115  1  0.39248961  0.24913897  0.12736203  1
  Mn  Mn116  1  0.35815342  0.74924796  0.00245598  1
  Mn  Mn117  1  0.10877378  0.41590004  0.37229837  1
  Mn  Mn118  1  0.89223663  0.91589672  0.62707560  1
  Mn  Mn119  1  0.39182181  0.91657450  0.37755028  1
  Mn  Mn120  1  0.89210010  0.25060542  0.62720657  1
  Mn  Mn121  1  0.64231720  0.91654252  0.74825003  1
  Mn  Mn122  1  0.89304429  0.58359865  0.62666195  1
  Mn  Mn123  1  0.85781576  0.41690764  0.25220447  1
  Mn  Mn124  1  0.10794869  0.75078143  0.87288167  1
  Mn  Mn125  1  0.64212418  0.58234079  0.99800981  1
  Mn  Mn126  1  0.35773499  0.41647346  0.75262954  1
  Mn  Mn127  1  0.60672202  0.74906702  0.37266148  1
  Mn  Mn128  1  0.39328070  0.25028783  0.87657006  1
  Mn  Mn129  1  0.89163260  0.58381338  0.87745759  1
  Mn  Mn130  1  0.85762934  0.75027786  0.25186081  1
  Mn  Mn131  1  0.10704950  0.08353309  0.87283028  1
  Mn  Mn132  1  0.85798471  0.41636046  0.50190947  1
  Mn  Mn133  1  0.35917951  0.08436789  0.00171382  1
  Mn  Mn134  1  0.60737855  0.41681663  0.12280773  1
  Mn  Mn135  1  0.85682072  0.08387515  0.00246224  1
  Mn  Mn136  1  0.85797250  0.74928368  0.00318690  1
  Mn  Mn137  1  0.64113857  0.91680544  0.99723804  1
  Mn  Mn138  1  0.89224326  0.91667738  0.37654713  1
  Mn  Mn139  1  0.10848846  0.08394242  0.12294043  1
  Mn  Mn140  1  0.89253789  0.91596347  0.12814231  1
  Mn  Mn141  1  0.39196737  0.58308225  0.62741971  1
  Mn  Mn142  1  0.14237827  0.91676024  0.49735202  1
  Mn  Mn143  1  0.39234153  0.91703777  0.62710832  1
  Fe  Fe144  1  0.39228465  0.91672469  0.87583035  1
  Fe  Fe145  1  0.85687444  0.08315039  0.50095304  1
  Fe  Fe146  1  0.60787071  0.41682444  0.87339930  1
  Fe  Fe147  1  0.39286036  0.91694414  0.12735108  1
  Fe  Fe148  1  0.64234352  0.58258319  0.74856697  1
  Fe  Fe149  1  0.89190301  0.24944078  0.87664189  1
  Fe  Fe150  1  0.85748086  0.08359578  0.75242825  1
  Fe  Fe151  1  0.14306078  0.24984963  0.24874792  1
  Fe  Fe152  1  0.10874135  0.75048417  0.37249258  1
  Fe  Fe153  1  0.64211906  0.25005286  0.24808001  1
  Fe  Fe154  1  0.35638525  0.74962330  0.25154725  1
  Fe  Fe155  1  0.89239014  0.25062077  0.12704874  1
  Fe  Fe156  1  0.14351248  0.58269717  0.24787870  1
  Fe  Fe157  1  0.35699757  0.41677961  0.50228254  1
  Fe  Fe158  1  0.39218448  0.25044686  0.37659208  1
  Fe  Fe159  1  0.10667257  0.08359019  0.62315703  1
  Fe  Fe160  1  0.14199877  0.91735537  0.74882371  1
  Fe  Fe161  1  0.10830958  0.74944146  0.12358069  1
  Fe  Fe162  1  0.85729802  0.41665205  0.75155088  1
  Fe  Fe163  1  0.10752239  0.41656190  0.62388527  1
  Fe  Fe164  1  0.14170324  0.24967789  0.74778326  1
  Fe  Fe165  1  0.10764685  0.41672064  0.12305859  1
  Fe  Fe166  1  0.35780141  0.08381840  0.25144394  1
  Fe  Fe167  1  0.14374414  0.91731201  0.24818280  1
  Fe  Fe168  1  0.35656715  0.41644622  0.25136513  1
  Fe  Fe169  1  0.39109981  0.58286981  0.37652544  1
  Fe  Fe170  1  0.39331924  0.24982402  0.62729829  1
  Fe  Fe171  1  0.14344146  0.58296226  0.49845753  1
  Fe  Fe172  1  0.89401081  0.58345948  0.12718467  1
  Fe  Fe173  1  0.14300363  0.58266552  0.99827945  1
  Fe  Fe174  1  0.64266880  0.91729998  0.49876328  1
  Fe  Fe175  1  0.89225964  0.24991417  0.37631371  1
  Fe  Fe176  1  0.35745478  0.08329833  0.50270300  1
  Fe  Fe177  1  0.89264214  0.91673796  0.87640070  1
  Fe  Fe178  1  0.10825058  0.74996776  0.62317651  1
  Fe  Fe179  1  0.64268258  0.24949135  0.49801019  1
  Fe  Fe180  1  0.35624979  0.75004724  0.50212127  1
  Fe  Fe181  1  0.60676289  0.08246357  0.12412748  1
  Fe  Fe182  1  0.39317253  0.58308543  0.87625051  1
  Fe  Fe183  1  0.85718571  0.41686178  0.00218886  1
  Fe  Fe184  1  0.64313169  0.25114973  0.99794165  1
  Fe  Fe185  1  0.60625450  0.75040853  0.12428962  1
  Fe  Fe186  1  0.64384013  0.25038232  0.74830172  1
  Fe  Fe187  1  0.64138125  0.91640590  0.24767838  1
  Fe  Fe188  1  0.60754451  0.75006793  0.62269147  1
  Fe  Fe189  1  0.35763764  0.41653489  0.00091225  1
  Fe  Fe190  1  0.64163836  0.58355295  0.24808868  1
  Fe  Fe191  1  0.60743599  0.08328436  0.87268271  1
  P  P192  1  0.05356590  0.25100613  0.11120888  1
  P  P193  1  0.05281891  0.24962683  0.35928769  1
  P  P194  1  0.05466737  0.25005254  0.61115255  1
  P  P195  1  0.05186921  0.24987903  0.85933144  1
  P  P196  1  0.05544376  0.58271021  0.11088582  1
  P  P197  1  0.05650739  0.58372897  0.36035159  1
  P  P198  1  0.05475281  0.58281055  0.60944172  1
  P  P199  1  0.05426301  0.58294563  0.86149051  1
  P  P200  1  0.05554228  0.91628841  0.11133230  1
  P  P201  1  0.05456561  0.91662876  0.35905154  1
  P  P202  1  0.05488625  0.91719515  0.61121567  1
  P  P203  1  0.05253055  0.91725852  0.85951631  1
  P  P204  1  0.55531733  0.24912874  0.11083869  1
  P  P205  1  0.55333713  0.25032643  0.36064751  1
  P  P206  1  0.55469498  0.24994389  0.61007275  1
  P  P207  1  0.55601351  0.25079183  0.86064372  1
  P  P208  1  0.55387266  0.58428645  0.11147780  1
  P  P209  1  0.55119223  0.58291185  0.35923494  1
  P  P210  1  0.55459871  0.58363348  0.61061165  1
  P  P211  1  0.55277618  0.58194992  0.85953956  1
  P  P212  1  0.55295199  0.91628140  0.11177237  1
  P  P213  1  0.55484547  0.91684813  0.36088090  1
  P  P214  1  0.55414537  0.91615587  0.60885963  1
  P  P215  1  0.55151381  0.91742354  0.85968264  1
  P  P216  1  0.44749869  0.08283475  0.14098374  1
  P  P217  1  0.44427000  0.08433647  0.38951912  1
  P  P218  1  0.44591342  0.08434102  0.63886801  1
  P  P219  1  0.44846918  0.08334367  0.88936412  1
  P  P220  1  0.44448158  0.41647308  0.13960746  1
  P  P221  1  0.44346866  0.41678942  0.38907582  1
  P  P222  1  0.44550820  0.41548630  0.63883758  1
  P  P223  1  0.44791822  0.41718325  0.89034612  1
  P  P224  1  0.44659093  0.75095295  0.14110363  1
  P  P225  1  0.44346242  0.74872773  0.38937213  1
  P  P226  1  0.44665859  0.75012732  0.63850119  1
  P  P227  1  0.44653218  0.74955746  0.88954097  1
  P  P228  1  0.94646921  0.08419308  0.13997005  1
  P  P229  1  0.94586691  0.08404829  0.39027347  1
  P  P230  1  0.94525965  0.08341938  0.63915900  1
  P  P231  1  0.94480749  0.08341632  0.88890865  1
  P  P232  1  0.94666409  0.41725834  0.13871355  1
  P  P233  1  0.94722074  0.41569989  0.38962690  1
  P  P234  1  0.94747411  0.41704126  0.64047903  1
  P  P235  1  0.94401543  0.41573076  0.88961233  1
  P  P236  1  0.94868660  0.74859355  0.14034913  1
  P  P237  1  0.94893733  0.75032502  0.38964426  1
  P  P238  1  0.94889507  0.74959720  0.63976322  1
  P  P239  1  0.94659859  0.75094019  0.89036239  1
  P  P240  1  0.19850726  0.08394442  0.23532948  1
  P  P241  1  0.19706263  0.08356254  0.48614556  1
  P  P242  1  0.19529744  0.08344392  0.73443910  1
  P  P243  1  0.19730834  0.08375612  0.98453389  1
  P  P244  1  0.19731897  0.41608696  0.23466528  1
  P  P245  1  0.19676174  0.41697166  0.48658705  1
  P  P246  1  0.19587218  0.41570180  0.73449406  1
  P  P247  1  0.19644114  0.41710148  0.98594816  1
  P  P248  1  0.19641507  0.74995948  0.23563430  1
  P  P249  1  0.19584143  0.74932975  0.48551260  1
  P  P250  1  0.19616632  0.75110110  0.73479104  1
  P  P251  1  0.19553865  0.74905497  0.98647314  1
  P  P252  1  0.69523551  0.08340194  0.23433591  1
  P  P253  1  0.69747682  0.08364561  0.48498065  1
  P  P254  1  0.69680268  0.08410514  0.73670839  1
  P  P255  1  0.69376251  0.08426326  0.98600295  1
  P  P256  1  0.69585599  0.41672572  0.23525071  1
  P  P257  1  0.69663751  0.41533719  0.48430063  1
  P  P258  1  0.69665913  0.41643255  0.73639316  1
  P  P259  1  0.69721449  0.41619259  0.98479411  1
  P  P260  1  0.69526737  0.74987049  0.23434277  1
  P  P261  1  0.69529206  0.75083749  0.48572902  1
  P  P262  1  0.69579572  0.74906972  0.73448037  1
  P  P263  1  0.69500800  0.74975103  0.98632392  1
  P  P264  1  0.30381217  0.25099288  0.01449528  1
  P  P265  1  0.30284197  0.25009732  0.26536685  1
  P  P266  1  0.30594421  0.25010563  0.51462504  1
  P  P267  1  0.30281593  0.24979910  0.76378047  1
  P  P268  1  0.30389612  0.58222476  0.01365810  1
  P  P269  1  0.30224436  0.58304087  0.26512412  1
  P  P270  1  0.30350972  0.58351265  0.51385158  1
  P  P271  1  0.30378139  0.58346571  0.76588845  1
  P  P272  1  0.30613772  0.91695233  0.01466614  1
  P  P273  1  0.30390876  0.91660420  0.26353857  1
  P  P274  1  0.30343730  0.91650995  0.51496112  1
  P  P275  1  0.30214948  0.91683451  0.76550577  1
  P  P276  1  0.80400323  0.25101643  0.01449016  1
  P  P277  1  0.80369762  0.24985311  0.26387352  1
  P  P278  1  0.80336128  0.24905164  0.51358362  1
  P  P279  1  0.80325750  0.24998635  0.76545461  1
  P  P280  1  0.80420513  0.58238462  0.01629543  1
  P  P281  1  0.80325224  0.58384281  0.26384288  1
  P  P282  1  0.80328493  0.58342576  0.51476249  1
  P  P283  1  0.80201064  0.58292808  0.76465940  1
  P  P284  1  0.80419855  0.91668449  0.01430569  1
  P  P285  1  0.80106470  0.91614527  0.26473059  1
  P  P286  1  0.80230655  0.91749992  0.51473025  1
  P  P287  1  0.80389071  0.91708879  0.76586907  1
  O  O288  1  0.05915383  0.25019536  0.18779831  1
  O  O289  1  0.05720482  0.24965500  0.43599615  1
  O  O290  1  0.05812402  0.24998822  0.68791736  1
  O  O291  1  0.05578703  0.25006278  0.93609240  1
  O  O292  1  0.06018247  0.58253110  0.18766710  1
  O  O293  1  0.06059926  0.58271828  0.43709952  1
  O  O294  1  0.05682199  0.58286342  0.68630469  1
  O  O295  1  0.05863858  0.58255283  0.93822694  1
  O  O296  1  0.06037603  0.91727775  0.18806379  1
  O  O297  1  0.05732079  0.91748531  0.43589438  1
  O  O298  1  0.05841698  0.91725797  0.68794417  1
  O  O299  1  0.05667118  0.91733921  0.93624715  1
  O  O300  1  0.55877106  0.25049948  0.18768928  1
  O  O301  1  0.55829819  0.25003405  0.43731294  1
  O  O302  1  0.56009107  0.24999963  0.68676142  1
  O  O303  1  0.55941706  0.25112563  0.93747444  1
  O  O304  1  0.55787991  0.58314120  0.18820395  1
  O  O305  1  0.55536099  0.58288327  0.43596976  1
  O  O306  1  0.55909011  0.58263800  0.68734060  1
  O  O307  1  0.55619031  0.58241625  0.93630515  1
  O  O308  1  0.55710400  0.91620941  0.18851321  1
  O  O309  1  0.55927438  0.91721295  0.43756262  1
  O  O310  1  0.55720843  0.91704243  0.68565572  1
  O  O311  1  0.55482232  0.91714790  0.93644575  1
  O  O312  1  0.44439675  0.08403798  0.06425435  1
  O  O313  1  0.44025967  0.08359883  0.31270674  1
  O  O314  1  0.44161082  0.08358726  0.56211668  1
  O  O315  1  0.44449295  0.08411778  0.81266731  1
  O  O316  1  0.44053670  0.41657133  0.06286935  1
  O  O317  1  0.43964587  0.41669128  0.31223752  1
  O  O318  1  0.44098058  0.41642200  0.56209569  1
  O  O319  1  0.44428770  0.41620066  0.81357833  1
  O  O320  1  0.44346028  0.74977268  0.06434320  1
  O  O321  1  0.43911975  0.74948834  0.31260177  1
  O  O322  1  0.44120142  0.75004175  0.56187477  1
  O  O323  1  0.44416291  0.74952875  0.81274165  1
  O  O324  1  0.94298202  0.08357845  0.06320209  1
  O  O325  1  0.94276943  0.08321628  0.31349748  1
  O  O326  1  0.94033344  0.08339175  0.56248708  1
  O  O327  1  0.94135571  0.08367098  0.81206752  1
  O  O328  1  0.94195479  0.41690333  0.06205883  1
  O  O329  1  0.94398453  0.41651439  0.31283921  1
  O  O330  1  0.94373882  0.41670892  0.56374993  1
  O  O331  1  0.94000441  0.41673874  0.81280593  1
  O  O332  1  0.94449117  0.74930332  0.06368648  1
  O  O333  1  0.94442800  0.75019045  0.31299512  1
  O  O334  1  0.94483203  0.74985768  0.56308022  1
  O  O335  1  0.94360358  0.74996418  0.81356658  1
  O  O336  1  0.19413051  0.08368048  0.06130719  1
  O  O337  1  0.19497065  0.08393046  0.31201511  1
  O  O338  1  0.19143312  0.08362323  0.56267969  1
  O  O339  1  0.19255608  0.08364194  0.81125210  1
  O  O340  1  0.19177928  0.41633852  0.06261832  1
  O  O341  1  0.19433859  0.41588080  0.31142851  1
  O  O342  1  0.19180355  0.41626744  0.56314873  1
  O  O343  1  0.19272760  0.41602822  0.81130374  1
  O  O344  1  0.19169366  0.74963166  0.06325600  1
  O  O345  1  0.19262374  0.75027064  0.31241384  1
  O  O346  1  0.19132154  0.75011713  0.56224203  1
  O  O347  1  0.19354530  0.75050213  0.81163547  1
  O  O348  1  0.68969831  0.08279230  0.06271562  1
  O  O349  1  0.69285078  0.08353567  0.31116723  1
  O  O350  1  0.69464530  0.08381391  0.56174572  1
  O  O351  1  0.69175428  0.08315210  0.81336397  1
  O  O352  1  0.69319538  0.41682561  0.06145716  1
  O  O353  1  0.69253863  0.41685675  0.31195695  1
  O  O354  1  0.69403927  0.41597772  0.56112378  1
  O  O355  1  0.69232587  0.41698097  0.81303360  1
  O  O356  1  0.69006099  0.75024988  0.06295661  1
  O  O357  1  0.69242321  0.74958646  0.31117635  1
  O  O358  1  0.69129021  0.74995812  0.56247806  1
  O  O359  1  0.69303411  0.74978062  0.81136139  1
  O  O360  1  0.30626123  0.24984033  0.18864360  1
  O  O361  1  0.30941902  0.25015681  0.43780961  1
  O  O362  1  0.30816881  0.24981179  0.68721531  1
  O  O363  1  0.30713236  0.25028407  0.93774341  1
  O  O364  1  0.30544813  0.58326632  0.18835754  1
  O  O365  1  0.30728569  0.58325821  0.43716156  1
  O  O366  1  0.30677770  0.58340972  0.68905151  1
  O  O367  1  0.30888787  0.58298816  0.93705632  1
  O  O368  1  0.30839044  0.91658412  0.18683284  1
  O  O369  1  0.30605395  0.91665825  0.43814682  1
  O  O370  1  0.30627676  0.91679235  0.68882628  1
  O  O371  1  0.31032494  0.91710404  0.93785019  1
  O  O372  1  0.80883476  0.25030545  0.18717706  1
  O  O373  1  0.80785368  0.24989253  0.43691075  1
  O  O374  1  0.80648443  0.24984760  0.68867130  1
  O  O375  1  0.80839366  0.25004947  0.93781769  1
  O  O376  1  0.80910166  0.58378322  0.18728309  1
  O  O377  1  0.80699224  0.58377218  0.43796923  1
  O  O378  1  0.80604082  0.58350839  0.68800880  1
  O  O379  1  0.80684261  0.58362335  0.93945816  1
  O  O380  1  0.80563601  0.91594158  0.18805897  1
  O  O381  1  0.80589840  0.91647589  0.43804024  1
  O  O382  1  0.80675013  0.91650625  0.68901824  1
  O  O383  1  0.80898403  0.91644355  0.93762222  1
  O  O384  1  0.23414476  0.25043190  0.03962935  1
  O  O385  1  0.23283450  0.25035146  0.29042099  1
  O  O386  1  0.23583244  0.24997691  0.53869857  1
  O  O387  1  0.23236818  0.24974729  0.78717134  1
  O  O388  1  0.23366695  0.58247510  0.03763790  1
  O  O389  1  0.23213893  0.58290835  0.28974094  1
  O  O390  1  0.23338942  0.58333180  0.53838170  1
  O  O391  1  0.23402449  0.58327743  0.79067187  1
  O  O392  1  0.23598967  0.91673467  0.03837869  1
  O  O393  1  0.23367271  0.91684716  0.28779957  1
  O  O394  1  0.23384022  0.91647975  0.54021958  1
  O  O395  1  0.23203343  0.91719172  0.78981859  1
  O  O396  1  0.73352727  0.25059634  0.03794780  1
  O  O397  1  0.73304748  0.24969753  0.28672240  1
  O  O398  1  0.73326476  0.24926185  0.53805955  1
  O  O399  1  0.73324010  0.25036863  0.79021063  1
  O  O400  1  0.73440382  0.58259298  0.04107548  1
  O  O401  1  0.73266541  0.58386338  0.28682279  1
  O  O402  1  0.73344759  0.58275030  0.53927597  1
  O  O403  1  0.73197527  0.58292102  0.78943831  1
  O  O404  1  0.73389488  0.91704582  0.03762629  1
  O  O405  1  0.73085008  0.91630797  0.28855770  1
  O  O406  1  0.73241436  0.91763157  0.53978259  1
  O  O407  1  0.73418175  0.91655850  0.79111282  1
  O  O408  1  0.26855240  0.08381164  0.21040695  1
  O  O409  1  0.26754136  0.08379025  0.46307573  1
  O  O410  1  0.26501807  0.08340597  0.70921405  1
  O  O411  1  0.26692700  0.08399752  0.95934388  1
  O  O412  1  0.26742647  0.41633803  0.20998002  1
  O  O413  1  0.26712798  0.41667737  0.46300702  1
  O  O414  1  0.26565728  0.41660535  0.70963570  1
  O  O415  1  0.26660347  0.41661146  0.96172049  1
  O  O416  1  0.26671396  0.74953738  0.21129788  1
  O  O417  1  0.26616694  0.75010000  0.46179570  1
  O  O418  1  0.26578211  0.75001990  0.70933925  1
  O  O419  1  0.26549296  0.74978431  0.96213130  1
  O  O420  1  0.76476112  0.08363687  0.20853858  1
  O  O421  1  0.76714142  0.08336277  0.45932617  1
  O  O422  1  0.76717559  0.08385048  0.71309158  1
  O  O423  1  0.76391827  0.08415416  0.96221043  1
  O  O424  1  0.76560431  0.41624558  0.21020721  1
  O  O425  1  0.76606987  0.41615289  0.45853865  1
  O  O426  1  0.76689371  0.41592675  0.71201539  1
  O  O427  1  0.76736461  0.41674478  0.96074577  1
  O  O428  1  0.76495343  0.75016719  0.20900258  1
  O  O429  1  0.76517064  0.75039953  0.46102852  1
  O  O430  1  0.76547347  0.75003431  0.70915624  1
  O  O431  1  0.76516138  0.74901182  0.96268883  1
  O  O432  1  0.01625893  0.08412608  0.16480062  1
  O  O433  1  0.01558937  0.08350436  0.41543101  1
  O  O434  1  0.01573226  0.08358143  0.66243984  1
  O  O435  1  0.01455563  0.08354046  0.91407884  1
  O  O436  1  0.01698557  0.41710679  0.16269467  1
  O  O437  1  0.01697445  0.41571708  0.41457882  1
  O  O438  1  0.01752712  0.41657462  0.66492362  1
  O  O439  1  0.01408650  0.41621371  0.91378441  1
  O  O440  1  0.01892839  0.74874520  0.16432929  1
  O  O441  1  0.01923287  0.75053369  0.41343045  1
  O  O442  1  0.01899228  0.74974209  0.66410601  1
  O  O443  1  0.01625161  0.75060051  0.91565148  1
  O  O444  1  0.51741061  0.08274149  0.16590699  1
  O  O445  1  0.51443466  0.08393601  0.41345282  1
  O  O446  1  0.51596575  0.08356653  0.66288235  1
  O  O447  1  0.51846399  0.08373053  0.91407440  1
  O  O448  1  0.51456435  0.41640600  0.16356079  1
  O  O449  1  0.51345643  0.41680872  0.41357968  1
  O  O450  1  0.51560479  0.41599824  0.66265241  1
  O  O451  1  0.51791651  0.41670932  0.91513182  1
  O  O452  1  0.51644065  0.75019778  0.16610291  1
  O  O453  1  0.51369164  0.74942526  0.41298872  1
  O  O454  1  0.51703946  0.75015236  0.66188372  1
  O  O455  1  0.51595780  0.75006252  0.91559129  1
  O  O456  1  0.48533217  0.24985506  0.08640724  1
  O  O457  1  0.48284001  0.25013030  0.33731307  1
  O  O458  1  0.48425751  0.25010099  0.58693269  1
  O  O459  1  0.48610610  0.25046456  0.83576627  1
  O  O460  1  0.48385331  0.58390132  0.08725835  1
  O  O461  1  0.48096431  0.58289012  0.33533337  1
  O  O462  1  0.48451186  0.58327697  0.58664386  1
  O  O463  1  0.48282587  0.58271725  0.83457312  1
  O  O464  1  0.48277815  0.91704643  0.08750287  1
  O  O465  1  0.48454072  0.91662902  0.33748177  1
  O  O466  1  0.48443688  0.91673100  0.58378197  1
  O  O467  1  0.48168419  0.91657562  0.83435547  1
  O  O468  1  0.98307913  0.25075364  0.08785910  1
  O  O469  1  0.98264169  0.24995839  0.33526743  1
  O  O470  1  0.98473954  0.25013491  0.58651026  1
  O  O471  1  0.98172404  0.24985275  0.83516109  1
  O  O472  1  0.98507686  0.58304769  0.08718292  1
  O  O473  1  0.98644374  0.58307944  0.33614911  1
  O  O474  1  0.98531840  0.58327508  0.58334604  1
  O  O475  1  0.98426525  0.58318853  0.83728221  1
  O  O476  1  0.98539946  0.91647186  0.08756084  1
  O  O477  1  0.98488617  0.91667487  0.33377593  1
  O  O478  1  0.98504079  0.91672642  0.58625277  1
  O  O479  1  0.98249106  0.91709872  0.83516847  1
  O  O480  1  0.08644608  0.31631682  0.07781931  1
  O  O481  1  0.08700361  0.31440708  0.32630626  1
  O  O482  1  0.08831646  0.31523174  0.57836563  1
  O  O483  1  0.08585364  0.31481053  0.82657886  1
  O  O484  1  0.08919587  0.64766028  0.07784326  1
  O  O485  1  0.08985594  0.64912032  0.32776537  1
  O  O486  1  0.08970663  0.64768794  0.57748515  1
  O  O487  1  0.08798705  0.64797020  0.82869341  1
  O  O488  1  0.08886257  0.98127056  0.07773909  1
  O  O489  1  0.08896170  0.98162829  0.32655398  1
  O  O490  1  0.08816488  0.98256486  0.57820407  1
  O  O491  1  0.08632967  0.98221487  0.82654665  1
  O  O492  1  0.58950386  0.31374396  0.07729574  1
  O  O493  1  0.58641832  0.31533293  0.32710851  1
  O  O494  1  0.58810222  0.31476855  0.57642749  1
  O  O495  1  0.58957737  0.31600495  0.82770760  1
  O  O496  1  0.58713661  0.64961641  0.07893473  1
  O  O497  1  0.58511025  0.64792727  0.32655864  1
  O  O498  1  0.58778674  0.64893291  0.57775599  1
  O  O499  1  0.58724654  0.64671947  0.82682878  1
  O  O500  1  0.58677047  0.98121393  0.07874772  1
  O  O501  1  0.58807896  0.98184258  0.32742942  1
  O  O502  1  0.58860481  0.98112013  0.57627379  1
  O  O503  1  0.58533492  0.98252484  0.82710412  1
  O  O504  1  0.41310920  0.01796205  0.17329058  1
  O  O505  1  0.41054464  0.01937482  0.42281151  1
  O  O506  1  0.41203084  0.01946701  0.67197437  1
  O  O507  1  0.41471724  0.01818658  0.92174013  1
  O  O508  1  0.41087086  0.35152061  0.17278596  1
  O  O509  1  0.40993830  0.35164591  0.42202585  1
  O  O510  1  0.41250214  0.35014580  0.67194992  1
  O  O511  1  0.41355065  0.35238617  0.92324477  1
  O  O512  1  0.41184533  0.68626585  0.17381058  1
  O  O513  1  0.41033660  0.68343486  0.42227936  1
  O  O514  1  0.41345633  0.68518392  0.67208422  1
  O  O515  1  0.41270255  0.68411312  0.92185615  1
  O  O516  1  0.91259297  0.01909272  0.17276006  1
  O  O517  1  0.91132060  0.01919185  0.42288966  1
  O  O518  1  0.91191670  0.01850696  0.67266111  1
  O  O519  1  0.91105056  0.01825550  0.92147596  1
  O  O520  1  0.91304489  0.35234355  0.17201733  1
  O  O521  1  0.91315960  0.35045539  0.42171830  1
  O  O522  1  0.91303032  0.35224716  0.67318619  1
  O  O523  1  0.91071819  0.35029663  0.92220396  1
  O  O524  1  0.91518651  0.68342689  0.17307849  1
  O  O525  1  0.91555350  0.68521325  0.42270554  1
  O  O526  1  0.91528901  0.68452109  0.67265805  1
  O  O527  1  0.91245016  0.68587973  0.92296883  1
  O  O528  1  0.16467358  0.01895360  0.20255035  1
  O  O529  1  0.16419426  0.01851439  0.45242455  1
  O  O530  1  0.16110884  0.01823465  0.70230268  1
  O  O531  1  0.16327566  0.01862404  0.95220336  1
  O  O532  1  0.16333623  0.35109381  0.20198301  1
  O  O533  1  0.16369092  0.35202637  0.45265955  1
  O  O534  1  0.16197913  0.35060704  0.70195816  1
  O  O535  1  0.16271787  0.35224118  0.95253756  1
  O  O536  1  0.16280200  0.68473960  0.20287052  1
  O  O537  1  0.16285276  0.68402111  0.45255897  1
  O  O538  1  0.16136309  0.68632250  0.70237216  1
  O  O539  1  0.16223718  0.68377090  0.95381036  1
  O  O540  1  0.66098339  0.01816773  0.20221835  1
  O  O541  1  0.66295345  0.01870772  0.45286519  1
  O  O542  1  0.66345477  0.01924903  0.70298861  1
  O  O543  1  0.66012295  0.01955880  0.95206437  1
  O  O544  1  0.66167699  0.35163630  0.20291461  1
  O  O545  1  0.66259205  0.34997660  0.45249351  1
  O  O546  1  0.66315220  0.35119428  0.70344013  1
  O  O547  1  0.66361179  0.35106902  0.95198961  1
  O  O548  1  0.66093145  0.68483845  0.20203531  1
  O  O549  1  0.66129969  0.68598772  0.45239202  1
  O  O550  1  0.66184815  0.68375802  0.70248747  1
  O  O551  1  0.66133653  0.68470839  0.95335510  1
  O  O552  1  0.33766965  0.31616725  0.04674489  1
  O  O553  1  0.33692564  0.31523124  0.29778787  1
  O  O554  1  0.33944995  0.31524410  0.54761383  1
  O  O555  1  0.33607406  0.31478482  0.79732727  1
  O  O556  1  0.33708449  0.64725066  0.04749714  1
  O  O557  1  0.33609803  0.64804220  0.29783646  1
  O  O558  1  0.33672693  0.64883166  0.54686400  1
  O  O559  1  0.33798180  0.64845763  0.79822173  1
  O  O560  1  0.33972296  0.98199355  0.04778215  1
  O  O561  1  0.33753458  0.98153443  0.29667995  1
  O  O562  1  0.33754635  0.98159327  0.54731732  1
  O  O563  1  0.33633827  0.98173216  0.79831522  1
  O  O564  1  0.83717734  0.31628225  0.04759922  1
  O  O565  1  0.83692927  0.31468172  0.29769166  1
  O  O566  1  0.83694617  0.31398269  0.54715284  1
  O  O567  1  0.83747575  0.31496635  0.79778329  1
  O  O568  1  0.83875458  0.64697982  0.04928030  1
  O  O569  1  0.83637832  0.64880344  0.29754862  1
  O  O570  1  0.83686597  0.64862168  0.54755203  1
  O  O571  1  0.83571461  0.64800548  0.79770092  1
  O  O572  1  0.83752250  0.98177338  0.04751108  1
  O  O573  1  0.83466943  0.98132478  0.29741489  1
  O  O574  1  0.83629295  0.98270242  0.54689968  1
  O  O575  1  0.83788758  0.98232369  0.79800944  1
  O  O576  1  0.41353804  0.14783928  0.17393237  1
  O  O577  1  0.41095733  0.14954548  0.42224296  1
  O  O578  1  0.41290786  0.14967372  0.67195965  1
  O  O579  1  0.41484990  0.14842737  0.92250063  1
  O  O580  1  0.41068914  0.48137653  0.17276131  1
  O  O581  1  0.40975669  0.48190622  0.42201877  1
  O  O582  1  0.41186126  0.48036694  0.67215980  1
  O  O583  1  0.41392456  0.48242395  0.92260857  1
  O  O584  1  0.41277284  0.81618218  0.17334629  1
  O  O585  1  0.40978295  0.81365968  0.42273683  1
  O  O586  1  0.41355767  0.81521840  0.67201295  1
  O  O587  1  0.41188386  0.81452245  0.92145612  1
  O  O588  1  0.91241066  0.14935115  0.17204652  1
  O  O589  1  0.91192402  0.14944085  0.42234402  1
  O  O590  1  0.91193043  0.14845260  0.67261933  1
  O  O591  1  0.91098909  0.14865068  0.92155971  1
  O  O592  1  0.91361166  0.48256703  0.17201587  1
  O  O593  1  0.91337138  0.48080336  0.42224595  1
  O  O594  1  0.91372887  0.48214237  0.67319432  1
  O  O595  1  0.91008322  0.48045811  0.92303278  1
  O  O596  1  0.91502725  0.81365837  0.17340051  1
  O  O597  1  0.91528065  0.81542204  0.42256688  1
  O  O598  1  0.91487890  0.81449075  0.67251971  1
  O  O599  1  0.91272998  0.81626048  0.92242535  1
  O  O600  1  0.08670748  0.18609741  0.07733527  1
  O  O601  1  0.08648744  0.18456013  0.32630864  1
  O  O602  1  0.08818964  0.18485971  0.57817698  1
  O  O603  1  0.08586569  0.18496714  0.82660341  1
  O  O604  1  0.08857660  0.51749225  0.07745154  1
  O  O605  1  0.09045068  0.51897206  0.32687050  1
  O  O606  1  0.08892044  0.51745976  0.57739792  1
  O  O607  1  0.08758458  0.51792670  0.82822572  1
  O  O608  1  0.08875860  0.85083616  0.07871068  1
  O  O609  1  0.08923169  0.85162414  0.32723808  1
  O  O610  1  0.08891503  0.85214319  0.57857428  1
  O  O611  1  0.08673372  0.85240325  0.82679276  1
  O  O612  1  0.58863957  0.18363706  0.07871223  1
  O  O613  1  0.58694937  0.18546837  0.32728730  1
  O  O614  1  0.58786500  0.18484558  0.57649831  1
  O  O615  1  0.59005034  0.18577904  0.82788810  1
  O  O616  1  0.58743500  0.51936991  0.07796749  1
  O  O617  1  0.58510547  0.51806644  0.32631209  1
  O  O618  1  0.58792530  0.51858976  0.57713258  1
  O  O619  1  0.58656380  0.51665485  0.82705942  1
  O  O620  1  0.58585553  0.85101092  0.07839326  1
  O  O621  1  0.58815119  0.85180513  0.32763126  1
  O  O622  1  0.58820480  0.85101450  0.57673515  1
  O  O623  1  0.58593752  0.85246832  0.82743643  1
  O  O624  1  0.33815194  0.18607344  0.04721311  1
  O  O625  1  0.33702600  0.18517258  0.29801691  1
  O  O626  1  0.33965222  0.18508921  0.54765841  1
  O  O627  1  0.33618053  0.18488621  0.79730881  1
  O  O628  1  0.33718918  0.51713426  0.04675167  1
  O  O629  1  0.33612594  0.51794053  0.29762623  1
  O  O630  1  0.33719315  0.51862173  0.54708551  1
  O  O631  1  0.33814497  0.51853154  0.79832429  1
  O  O632  1  0.33975211  0.85196169  0.04785447  1
  O  O633  1  0.33693642  0.85134038  0.29676425  1
  O  O634  1  0.33742267  0.85123593  0.54712681  1
  O  O635  1  0.33595348  0.85180371  0.79835169  1
  O  O636  1  0.83750974  0.18628922  0.04827997  1
  O  O637  1  0.83688442  0.18482803  0.29725328  1
  O  O638  1  0.83683856  0.18387833  0.54644742  1
  O  O639  1  0.83696298  0.18492879  0.79836827  1
  O  O640  1  0.83827722  0.51698482  0.04806499  1
  O  O641  1  0.83631923  0.51870235  0.29735603  1
  O  O642  1  0.83745289  0.51835269  0.54710541  1
  O  O643  1  0.83593092  0.51786117  0.79717237  1
  O  O644  1  0.83732713  0.85164376  0.04792526  1
  O  O645  1  0.83476087  0.85127864  0.29791966  1
  O  O646  1  0.83618842  0.85248673  0.54777962  1
  O  O647  1  0.83847695  0.85216782  0.79815460  1
  O  O648  1  0.16478620  0.14920026  0.20272150  1
  O  O649  1  0.16392569  0.14848853  0.45239373  1
  O  O650  1  0.16097893  0.14839594  0.70190747  1
  O  O651  1  0.16285266  0.14869470  0.95232754  1
  O  O652  1  0.16335495  0.48117614  0.20210925  1
  O  O653  1  0.16371814  0.48205088  0.45326155  1
  O  O654  1  0.16138961  0.48062330  0.70204435  1
  O  O655  1  0.16310718  0.48227354  0.95299384  1
  O  O656  1  0.16306742  0.81498711  0.20242013  1
  O  O657  1  0.16213253  0.81406416  0.45182222  1
  O  O658  1  0.16237943  0.81647761  0.70273658  1
  O  O659  1  0.16182947  0.81406557  0.95340998  1
  O  O660  1  0.66064066  0.14839903  0.20236685  1
  O  O661  1  0.66335260  0.14873866  0.45243628  1
  O  O662  1  0.66376052  0.14938794  0.70355535  1
  O  O663  1  0.66049059  0.14974943  0.95359312  1
  O  O664  1  0.66210692  0.48192056  0.20261612  1
  O  O665  1  0.66177220  0.48015229  0.45205550  1
  O  O666  1  0.66330868  0.48136085  0.70285981  1
  O  O667  1  0.66308909  0.48094075  0.95162170  1
  O  O668  1  0.66075215  0.81494644  0.20217059  1
  O  O669  1  0.66168331  0.81616226  0.45339205  1
  O  O670  1  0.66093709  0.81388774  0.70218133  1
  O  O671  1  0.66205139  0.81489697  0.95264517  1
