# generated using pymatgen
data_Na2MnFe(PO4)2
_symmetry_space_group_name_H-M   'P 1'
_cell_length_a   21.08474155
_cell_length_b   18.93775806
_cell_length_c   20.04380338
_cell_angle_alpha   89.99946042
_cell_angle_beta   90.00060293
_cell_angle_gamma   89.99695080
_symmetry_Int_Tables_number   1
_chemical_formula_structural   Na2MnFe(PO4)2
_chemical_formula_sum   'Na96 Mn48 Fe48 P96 O384'
_cell_volume   8003.44526245
_cell_formula_units_Z   48
loop_
 _symmetry_equiv_pos_site_id
 _symmetry_equiv_pos_as_xyz
  1  'x, y, z'
loop_
 _atom_site_type_symbol
 _atom_site_label
 _atom_site_symmetry_multiplicity
 _atom_site_fract_x
 _atom_site_fract_y
 _atom_site_fract_z
 _atom_site_occupancy
  Na  Na0  1  -0.00199751  0.00035027  -0.00001189  1
  Na  Na1  1  -0.00085224  0.00070218  0.25014285  1
  Na  Na2  1  -0.00111382  0.00039260  0.49998413  1
  Na  Na3  1  -0.00240021  0.00014582  0.74978750  1
  Na  Na4  1  0.00112679  0.33370806  -0.00006572  1
  Na  Na5  1  -0.00073855  0.33265243  0.25161237  1
  Na  Na6  1  -0.00102302  0.33241869  0.49968567  1
  Na  Na7  1  0.00199687  0.33437747  0.74890830  1
  Na  Na8  1  0.00117341  0.66731351  0.00012259  1
  Na  Na9  1  0.00093945  0.66648248  0.25011431  1
  Na  Na10  1  0.00284961  0.66718199  0.49975037  1
  Na  Na11  1  0.00134147  0.66695899  0.75047531  1
  Na  Na12  1  0.50289750  0.00056825  0.00019159  1
  Na  Na13  1  0.50113876  0.00032384  0.25035135  1
  Na  Na14  1  0.49778585  -0.00078522  0.50054149  1
  Na  Na15  1  0.50083373  0.00035530  0.74942059  1
  Na  Na16  1  0.50051098  0.33387156  -0.00119819  1
  Na  Na17  1  0.49871986  0.33379156  0.25041873  1
  Na  Na18  1  0.49584915  0.33224997  0.50053652  1
  Na  Na19  1  0.49894735  0.33358694  0.74926501  1
  Na  Na20  1  0.50159224  0.66718968  -0.00087060  1
  Na  Na21  1  0.50060305  0.66612374  0.25007895  1
  Na  Na22  1  0.50246501  0.66785700  0.50044147  1
  Na  Na23  1  0.49932474  0.66630053  0.75039379  1
  Na  Na24  1  0.25082562  0.00092119  0.12517220  1
  Na  Na25  1  0.25139793  0.00074327  0.37510105  1
  Na  Na26  1  0.25255041  0.00110127  0.62569868  1
  Na  Na27  1  0.24922339  -0.00071029  0.87400547  1
  Na  Na28  1  0.25116817  0.33372817  0.12487662  1
  Na  Na29  1  0.25311906  0.33387497  0.37506456  1
  Na  Na30  1  0.25245849  0.33384315  0.62571255  1
  Na  Na31  1  0.24989510  0.33302646  0.87407521  1
  Na  Na32  1  0.24639471  0.66593571  0.12474736  1
  Na  Na33  1  0.24824473  0.66680138  0.37519194  1
  Na  Na34  1  0.24744117  0.66608682  0.62476413  1
  Na  Na35  1  0.24801558  0.66699685  0.87546723  1
  Na  Na36  1  0.74962905  -0.00018602  0.12387041  1
  Na  Na37  1  0.75005371  0.00078705  0.37557980  1
  Na  Na38  1  0.74926872  0.00032105  0.62526339  1
  Na  Na39  1  0.75059458  0.00057875  0.87520123  1
  Na  Na40  1  0.74888635  0.33311180  0.12496261  1
  Na  Na41  1  0.75150858  0.33409527  0.37507607  1
  Na  Na42  1  0.75036622  0.33355106  0.62392547  1
  Na  Na43  1  0.74777541  0.33253590  0.87551196  1
  Na  Na44  1  0.75020282  0.66638453  0.12539661  1
  Na  Na45  1  0.75019958  0.66709799  0.37556521  1
  Na  Na46  1  0.74929867  0.66626380  0.62406710  1
  Na  Na47  1  0.75282585  0.66747600  0.87534568  1
  Na  Na48  1  -0.00106323  0.16590018  -0.00018446  1
  Na  Na49  1  -0.00202286  0.16690301  0.25087562  1
  Na  Na50  1  0.00012827  0.16593935  0.49971988  1
  Na  Na51  1  -0.00063188  0.16621953  0.74928664  1
  Na  Na52  1  0.00233247  0.50013806  0.00071299  1
  Na  Na53  1  0.00042531  0.50075022  0.25083696  1
  Na  Na54  1  0.00027243  0.50059672  0.50084254  1
  Na  Na55  1  0.00058697  0.50096200  0.74926947  1
  Na  Na56  1  -0.00137014  0.83296190  -0.00043803  1
  Na  Na57  1  0.00089928  0.83223940  0.25014374  1
  Na  Na58  1  0.00138521  0.83211774  0.49911568  1
  Na  Na59  1  -0.00052459  0.83292144  0.75035098  1
  Na  Na60  1  0.50246933  0.16540956  -0.00043361  1
  Na  Na61  1  0.49791925  0.16725131  0.25047562  1
  Na  Na62  1  0.49818969  0.16631616  0.50059509  1
  Na  Na63  1  0.50015331  0.16609047  0.74913599  1
  Na  Na64  1  0.50168630  0.49956888  -0.00088791  1
  Na  Na65  1  0.49966666  0.50059068  0.25051532  1
  Na  Na66  1  0.49813288  0.50052641  0.49996706  1
  Na  Na67  1  0.49838592  0.50072988  0.74933347  1
  Na  Na68  1  0.50079849  0.83329895  -0.00035653  1
  Na  Na69  1  0.50292431  0.83189217  0.24975933  1
  Na  Na70  1  0.50039455  0.83332516  0.50092604  1
  Na  Na71  1  0.50025431  0.83303766  0.75068100  1
  Na  Na72  1  0.25033354  0.16613886  0.12509541  1
  Na  Na73  1  0.25132424  0.16615161  0.37465830  1
  Na  Na74  1  0.25100100  0.16594141  0.62515824  1
  Na  Na75  1  0.24907637  0.16649765  0.87376269  1
  Na  Na76  1  0.24938359  0.50101451  0.12452801  1
  Na  Na77  1  0.25197090  0.49987744  0.37540568  1
  Na  Na78  1  0.25076652  0.50036281  0.62536901  1
  Na  Na79  1  0.24934294  0.50084520  0.87492814  1
  Na  Na80  1  0.24801998  0.83322710  0.12515795  1
  Na  Na81  1  0.24866666  0.83343613  0.37529205  1
  Na  Na82  1  0.25070211  0.83257490  0.62557952  1
  Na  Na83  1  0.24967658  0.83292300  0.87475521  1
  Na  Na84  1  0.75035102  0.16598773  0.12514118  1
  Na  Na85  1  0.75198949  0.16565671  0.37604313  1
  Na  Na86  1  0.74960728  0.16659560  0.62447914  1
  Na  Na87  1  0.74986423  0.16575476  0.87512628  1
  Na  Na88  1  0.74901877  0.50095457  0.12461534  1
  Na  Na89  1  0.75131347  0.49993540  0.37470598  1
  Na  Na90  1  0.74966345  0.50081983  0.62477025  1
  Na  Na91  1  0.75134159  0.49980699  0.87536758  1
  Na  Na92  1  0.74969393  0.83281337  0.12437694  1
  Na  Na93  1  0.74742235  0.83329861  0.37566873  1
  Na  Na94  1  0.74918851  0.83309797  0.62417482  1
  Na  Na95  1  0.75107565  0.83262194  0.87553214  1
  Mn  Mn96  1  0.39251089  0.58382331  0.12651611  1
  Mn  Mn97  1  0.60711153  0.08341538  0.37297424  1
  Mn  Mn98  1  0.60682026  0.41671882  0.37324855  1
  Mn  Mn99  1  0.60770192  0.41660594  0.87189582  1
  Mn  Mn100  1  0.39268635  0.24990493  0.12656155  1
  Mn  Mn101  1  0.89219369  0.25026074  0.62737588  1
  Mn  Mn102  1  0.64138566  0.91657284  0.49793673  1
  Mn  Mn103  1  0.89160283  0.25055606  0.12756698  1
  Mn  Mn104  1  0.39190323  0.58437600  0.62742434  1
  Mn  Mn105  1  0.60847402  0.74992605  0.87212920  1
  Mn  Mn106  1  0.64230553  0.58340369  0.24800306  1
  Mn  Mn107  1  0.89182170  0.91634015  0.37711017  1
  Mn  Mn108  1  0.10749932  0.08297810  0.12302694  1
  Mn  Mn109  1  0.85755680  0.74985003  0.50215811  1
  Mn  Mn110  1  0.14287824  0.25056362  0.24839677  1
  Mn  Mn111  1  0.39280883  0.91651883  0.87738568  1
  Mn  Mn112  1  0.64312015  0.91587625  0.99748562  1
  Mn  Mn113  1  0.10836143  0.41620777  0.37309042  1
  Mn  Mn114  1  0.35738697  0.41686865  0.00207003  1
  Mn  Mn115  1  0.14113054  0.91700179  0.99719459  1
  Mn  Mn116  1  0.64189467  0.24954632  0.24864304  1
  Mn  Mn117  1  0.39244818  0.91590610  0.37695332  1
  Mn  Mn118  1  0.10889053  0.41652703  0.12327910  1
  Mn  Mn119  1  0.39284519  0.24976654  0.87722874  1
  Mn  Mn120  1  0.85837075  0.41669307  0.00224405  1
  Mn  Mn121  1  0.10773074  0.08271487  0.62259488  1
  Mn  Mn122  1  0.89292541  0.58383566  0.62679594  1
  Mn  Mn123  1  0.14151890  0.24991212  0.99745170  1
  Mn  Mn124  1  0.35683743  0.75016649  0.00243700  1
  Mn  Mn125  1  0.35770336  0.74996527  0.25178994  1
  Mn  Mn126  1  0.89152446  0.91593676  0.62740075  1
  Mn  Mn127  1  0.10875610  0.41670685  0.62193717  1
  Mn  Mn128  1  0.60683057  0.41666837  0.62234353  1
  Mn  Mn129  1  0.14276211  0.25006928  0.74745292  1
  Mn  Mn130  1  0.14196064  0.91680881  0.24759667  1
  Mn  Mn131  1  0.35818844  0.08301768  0.00148084  1
  Mn  Mn132  1  0.85792232  0.41649560  0.75272995  1
  Mn  Mn133  1  0.64195052  0.25034334  0.99779285  1
  Mn  Mn134  1  0.64275511  0.58350865  0.74803111  1
  Mn  Mn135  1  0.14265554  0.91751677  0.49802129  1
  Mn  Mn136  1  0.89149267  0.91638023  0.12803149  1
  Mn  Mn137  1  0.89204098  0.25073936  0.87673493  1
  Mn  Mn138  1  0.89300995  0.58302573  0.12722792  1
  Mn  Mn139  1  0.35760937  0.75018356  0.50235221  1
  Mn  Mn140  1  0.64181901  0.25103841  0.49752499  1
  Mn  Mn141  1  0.39316129  0.91631226  0.12715114  1
  Mn  Mn142  1  0.85793502  0.41672500  0.25243698  1
  Mn  Mn143  1  0.14184216  0.91646891  0.74758623  1
  Fe  Fe144  1  0.14397496  0.24994794  0.49840563  1
  Fe  Fe145  1  0.64226905  0.24960363  0.74762773  1
  Fe  Fe146  1  0.39235038  0.58406034  0.37681121  1
  Fe  Fe147  1  0.64261688  0.58258544  0.49811352  1
  Fe  Fe148  1  0.14325671  0.58245726  0.49761957  1
  Fe  Fe149  1  0.10612950  0.75071378  0.87287662  1
  Fe  Fe150  1  0.60642855  0.08316896  0.62342587  1
  Fe  Fe151  1  0.14314418  0.58269250  0.24917229  1
  Fe  Fe152  1  0.14295517  0.58343151  0.74900425  1
  Fe  Fe153  1  0.10775765  0.41669233  0.87303781  1
  Fe  Fe154  1  0.35780819  0.08283204  0.75273842  1
  Fe  Fe155  1  0.10718800  0.08315133  0.37354070  1
  Fe  Fe156  1  0.10653047  0.75067223  0.12311693  1
  Fe  Fe157  1  0.60849170  0.08329175  0.87231063  1
  Fe  Fe158  1  0.85762421  0.41687848  0.50141541  1
  Fe  Fe159  1  0.35682771  0.41755760  0.75237282  1
  Fe  Fe160  1  0.60748217  0.41691587  0.12370117  1
  Fe  Fe161  1  0.85701731  0.75031733  0.25196906  1
  Fe  Fe162  1  0.89387505  0.58338437  0.87664331  1
  Fe  Fe163  1  0.14215073  0.58320055  0.99737645  1
  Fe  Fe164  1  0.60737857  0.74951820  0.37309581  1
  Fe  Fe165  1  0.85688571  0.08338057  0.00158990  1
  Fe  Fe166  1  0.10609573  0.08320234  0.87324406  1
  Fe  Fe167  1  0.35713732  0.08344308  0.50193117  1
  Fe  Fe168  1  0.60744881  0.75023384  0.62443439  1
  Fe  Fe169  1  0.85604311  0.08310048  0.75163959  1
  Fe  Fe170  1  0.85788021  0.75023834  0.75121873  1
  Fe  Fe171  1  0.35841363  0.41717105  0.25121531  1
  Fe  Fe172  1  0.64323296  0.58338994  0.99786926  1
  Fe  Fe173  1  0.64320385  0.91657792  0.74849258  1
  Fe  Fe174  1  0.39302344  0.91638490  0.62731252  1
  Fe  Fe175  1  0.64284742  0.91685530  0.24847281  1
  Fe  Fe176  1  0.60849258  0.74921522  0.12294903  1
  Fe  Fe177  1  0.39200324  0.58384146  0.87691433  1
  Fe  Fe178  1  0.89268991  0.25041590  0.37728543  1
  Fe  Fe179  1  0.35702047  0.74965506  0.75180482  1
  Fe  Fe180  1  0.39236048  0.24899702  0.62714957  1
  Fe  Fe181  1  0.60795024  0.08366217  0.12396048  1
  Fe  Fe182  1  0.35705264  0.41678235  0.50186851  1
  Fe  Fe183  1  0.85722243  0.08361894  0.50199246  1
  Fe  Fe184  1  0.89336471  0.58305197  0.37693898  1
  Fe  Fe185  1  0.89198404  0.91627517  0.87573824  1
  Fe  Fe186  1  0.35820350  0.08327124  0.25174095  1
  Fe  Fe187  1  0.85682381  0.08268082  0.25194250  1
  Fe  Fe188  1  0.85778856  0.74952987  0.00213592  1
  Fe  Fe189  1  0.10723372  0.75048381  0.37294131  1
  Fe  Fe190  1  0.10771508  0.75078927  0.62366351  1
  Fe  Fe191  1  0.39155634  0.25022714  0.37708251  1
  P  P192  1  0.05305749  0.24965342  0.11033872  1
  P  P193  1  0.05381775  0.24894972  0.36185697  1
  P  P194  1  0.05448346  0.24970242  0.60867714  1
  P  P195  1  0.05313100  0.24964131  0.85943237  1
  P  P196  1  0.05591926  0.58421660  0.11102138  1
  P  P197  1  0.05470432  0.58344836  0.36095859  1
  P  P198  1  0.05622699  0.58454740  0.61067908  1
  P  P199  1  0.05434025  0.58370339  0.86066515  1
  P  P200  1  0.05254705  0.91616617  0.10993476  1
  P  P201  1  0.05332017  0.91734713  0.36022929  1
  P  P202  1  0.05278375  0.91596151  0.60980534  1
  P  P203  1  0.05138474  0.91701489  0.85992993  1
  P  P204  1  0.55354385  0.25024642  0.11036270  1
  P  P205  1  0.55094245  0.25024423  0.36060092  1
  P  P206  1  0.55290279  0.24917698  0.61098339  1
  P  P207  1  0.55436961  0.24929578  0.85853944  1
  P  P208  1  0.55451898  0.58327420  0.10921444  1
  P  P209  1  0.55318649  0.58356255  0.36147229  1
  P  P210  1  0.55393512  0.58403818  0.60967450  1
  P  P211  1  0.55310978  0.58340721  0.86042572  1
  P  P212  1  0.55577689  0.91645621  0.11127742  1
  P  P213  1  0.55412581  0.91586511  0.35962447  1
  P  P214  1  0.55368325  0.91674355  0.61199145  1
  P  P215  1  0.55490691  0.91706906  0.85911041  1
  P  P216  1  0.44797860  0.08295127  0.14021563  1
  P  P217  1  0.44456729  0.08365235  0.38985622  1
  P  P218  1  0.44526354  0.08291353  0.63932415  1
  P  P219  1  0.44802511  0.08293618  0.88894971  1
  P  P220  1  0.44764657  0.41730836  0.13999693  1
  P  P221  1  0.44395144  0.41725875  0.38951076  1
  P  P222  1  0.44374841  0.41626779  0.63933008  1
  P  P223  1  0.44499984  0.41788277  0.88852688  1
  P  P224  1  0.44869225  0.74974511  0.13964776  1
  P  P225  1  0.44788375  0.74923083  0.39003690  1
  P  P226  1  0.44722106  0.75071328  0.64075235  1
  P  P227  1  0.44539228  0.74923008  0.88903073  1
  P  P228  1  0.94441650  0.08342475  0.13998180  1
  P  P229  1  0.94532785  0.08372511  0.38955377  1
  P  P230  1  0.94443478  0.08332030  0.63959354  1
  P  P231  1  0.94479703  0.08280334  0.88882309  1
  P  P232  1  0.94774384  0.41695350  0.14071843  1
  P  P233  1  0.94636118  0.41721174  0.39080653  1
  P  P234  1  0.94618807  0.41703660  0.63895354  1
  P  P235  1  0.94848850  0.41773968  0.88969931  1
  P  P236  1  0.94594079  0.74961713  0.13988754  1
  P  P237  1  0.94656397  0.74895521  0.38868058  1
  P  P238  1  0.94765744  0.74957042  0.64045870  1
  P  P239  1  0.94549517  0.74975761  0.88896491  1
  P  P240  1  0.19702137  0.08367208  0.23634960  1
  P  P241  1  0.19748898  0.08413203  0.48470228  1
  P  P242  1  0.19659923  0.08291675  0.73596809  1
  P  P243  1  0.19586270  0.08317505  0.98356669  1
  P  P244  1  0.19884344  0.41734073  0.23561076  1
  P  P245  1  0.19833903  0.41601680  0.48523106  1
  P  P246  1  0.19663885  0.41767166  0.73622291  1
  P  P247  1  0.19587770  0.41722072  0.98398651  1
  P  P248  1  0.19441893  0.74904553  0.23565272  1
  P  P249  1  0.19471627  0.74973488  0.48574506  1
  P  P250  1  0.19564522  0.74947985  0.73602655  1
  P  P251  1  0.19375528  0.74974821  0.98527987  1
  P  P252  1  0.69719225  0.08268311  0.23513029  1
  P  P253  1  0.69599048  0.08370125  0.48638347  1
  P  P254  1  0.69556486  0.08301977  0.73539945  1
  P  P255  1  0.69589666  0.08323327  0.98548981  1
  P  P256  1  0.69611278  0.41661826  0.23469982  1
  P  P257  1  0.69757310  0.41752585  0.48483476  1
  P  P258  1  0.69673317  0.41608406  0.73441573  1
  P  P259  1  0.69546314  0.41783467  0.98604014  1
  P  P260  1  0.69617916  0.75044796  0.23577390  1
  P  P261  1  0.69410997  0.74885765  0.48584386  1
  P  P262  1  0.69802864  0.75070014  0.73458398  1
  P  P263  1  0.69708701  0.74867849  0.98591794  1
  P  P264  1  0.30299808  0.24961524  0.01467164  1
  P  P265  1  0.30481942  0.25004818  0.26511132  1
  P  P266  1  0.30437159  0.24961327  0.51452349  1
  P  P267  1  0.30529543  0.24958689  0.76368251  1
  P  P268  1  0.30246763  0.58385245  0.01391277  1
  P  P269  1  0.30315611  0.58350023  0.26529178  1
  P  P270  1  0.30328472  0.58344310  0.51389250  1
  P  P271  1  0.30280622  0.58431105  0.76552526  1
  P  P272  1  0.30287398  0.91665225  0.01523949  1
  P  P273  1  0.30337811  0.91678116  0.26495226  1
  P  P274  1  0.30432752  0.91720342  0.51588003  1
  P  P275  1  0.30490047  0.91615603  0.76386565  1
  P  P276  1  0.80327335  0.24942265  0.01484291  1
  P  P277  1  0.80367730  0.24909404  0.26602927  1
  P  P278  1  0.80482132  0.25038392  0.51379116  1
  P  P279  1  0.80153129  0.24926798  0.76475225  1
  P  P280  1  0.80435399  0.58389821  0.01390418  1
  P  P281  1  0.80436549  0.58438604  0.26569028  1
  P  P282  1  0.80374421  0.58275574  0.51364076  1
  P  P283  1  0.80464119  0.58432430  0.76545956  1
  P  P284  1  0.80537801  0.91626415  0.01337788  1
  P  P285  1  0.80176004  0.91623173  0.26503504  1
  P  P286  1  0.80295417  0.91712798  0.51496182  1
  P  P287  1  0.80254898  0.91640668  0.76513273  1
  O  O288  1  0.05647802  0.24964218  0.18716303  1
  O  O289  1  0.05941873  0.24961808  0.43841982  1
  O  O290  1  0.05795194  0.24987103  0.68548248  1
  O  O291  1  0.05553880  0.24940694  0.93622499  1
  O  O292  1  0.05968919  0.58290477  0.18780342  1
  O  O293  1  0.05953558  0.58243291  0.43769763  1
  O  O294  1  0.06005700  0.58331507  0.68747470  1
  O  O295  1  0.05822692  0.58343284  0.93743323  1
  O  O296  1  0.05592892  0.91687531  0.18671132  1
  O  O297  1  0.05637343  0.91747943  0.43696470  1
  O  O298  1  0.05570176  0.91691775  0.68658909  1
  O  O299  1  0.05467027  0.91711672  0.93658876  1
  O  O300  1  0.55572090  0.25019819  0.18714786  1
  O  O301  1  0.55500951  0.25021660  0.43731272  1
  O  O302  1  0.55812658  0.24996472  0.68759080  1
  O  O303  1  0.55738267  0.24991027  0.93537982  1
  O  O304  1  0.55704935  0.58348999  0.18603652  1
  O  O305  1  0.55798788  0.58267126  0.43809768  1
  O  O306  1  0.55701685  0.58303046  0.68645751  1
  O  O307  1  0.55860660  0.58354760  0.93701336  1
  O  O308  1  0.55939595  0.91645755  0.18806149  1
  O  O309  1  0.55633023  0.91696649  0.43649715  1
  O  O310  1  0.55860545  0.91664655  0.68859207  1
  O  O311  1  0.55812852  0.91625634  0.93594020  1
  O  O312  1  0.44442516  0.08273397  0.06346902  1
  O  O313  1  0.44094923  0.08300232  0.31304561  1
  O  O314  1  0.44081062  0.08306688  0.56260389  1
  O  O315  1  0.44254685  0.08282250  0.81230692  1
  O  O316  1  0.44385084  0.41727852  0.06324911  1
  O  O317  1  0.44079977  0.41752656  0.31265384  1
  O  O318  1  0.43957974  0.41709378  0.56245905  1
  O  O319  1  0.44050620  0.41772593  0.81172972  1
  O  O320  1  0.44410869  0.74997999  0.06299352  1
  O  O321  1  0.44403300  0.74937468  0.31337628  1
  O  O322  1  0.44352040  0.75005834  0.56405391  1
  O  O323  1  0.44079468  0.74947736  0.81231971  1
  O  O324  1  0.94010143  0.08336215  0.06319385  1
  O  O325  1  0.94045255  0.08290183  0.31282906  1
  O  O326  1  0.94022013  0.08330929  0.56280411  1
  O  O327  1  0.93981695  0.08354368  0.81208611  1
  O  O328  1  0.94449244  0.41713049  0.06392868  1
  O  O329  1  0.94350053  0.41718335  0.31401195  1
  O  O330  1  0.94136646  0.41689541  0.56227269  1
  O  O331  1  0.94451954  0.41715833  0.81296894  1
  O  O332  1  0.94129172  0.74960169  0.06313645  1
  O  O333  1  0.94147173  0.74977941  0.31204917  1
  O  O334  1  0.94368078  0.74938643  0.56373835  1
  O  O335  1  0.94118112  0.74987038  0.81225154  1
  O  O336  1  0.19277824  0.08308259  0.06039939  1
  O  O337  1  0.19169794  0.08337114  0.31295734  1
  O  O338  1  0.19383044  0.08328171  0.56143113  1
  O  O339  1  0.19049142  0.08260431  0.81248979  1
  O  O340  1  0.19360586  0.41659706  0.06083740  1
  O  O341  1  0.19503135  0.41657510  0.31226730  1
  O  O342  1  0.19508139  0.41622779  0.56196499  1
  O  O343  1  0.19151718  0.41685724  0.81283673  1
  O  O344  1  0.18988920  0.75072054  0.06206291  1
  O  O345  1  0.19043547  0.75035983  0.31249639  1
  O  O346  1  0.19119853  0.75065119  0.56255036  1
  O  O347  1  0.19040946  0.75083013  0.81268722  1
  O  O348  1  0.69110095  0.08341072  0.06217761  1
  O  O349  1  0.69338122  0.08357209  0.31187455  1
  O  O350  1  0.69055593  0.08367096  0.56301161  1
  O  O351  1  0.69179102  0.08323414  0.81219819  1
  O  O352  1  0.69123634  0.41725737  0.06277175  1
  O  O353  1  0.69270180  0.41677912  0.31147774  1
  O  O354  1  0.69327763  0.41695396  0.56149243  1
  O  O355  1  0.69373174  0.41664680  0.81123467  1
  O  O356  1  0.69235378  0.74911452  0.06259422  1
  O  O357  1  0.69137602  0.74943316  0.31249222  1
  O  O358  1  0.69001114  0.74977057  0.56260422  1
  O  O359  1  0.69468608  0.74997946  0.81133267  1
  O  O360  1  0.30741613  0.24978684  0.18828585  1
  O  O361  1  0.30830170  0.24952247  0.43777121  1
  O  O362  1  0.30886444  0.24909996  0.68685432  1
  O  O363  1  0.30642953  0.24944803  0.93789190  1
  O  O364  1  0.30645957  0.58442484  0.18852627  1
  O  O365  1  0.30816277  0.58467159  0.43729015  1
  O  O366  1  0.30615669  0.58459335  0.68873915  1
  O  O367  1  0.30758053  0.58422361  0.93732825  1
  O  O368  1  0.30665517  0.91606652  0.18818759  1
  O  O369  1  0.30700785  0.91595601  0.43908867  1
  O  O370  1  0.30916862  0.91626145  0.68712448  1
  O  O371  1  0.30652828  0.91635480  0.93844815  1
  O  O372  1  0.80606652  0.25008169  0.18920747  1
  O  O373  1  0.80911703  0.25025003  0.43704352  1
  O  O374  1  0.80547138  0.25002049  0.68806289  1
  O  O375  1  0.80633578  0.25013321  0.93805904  1
  O  O376  1  0.80734752  0.58361287  0.18888382  1
  O  O377  1  0.80880455  0.58355594  0.43702368  1
  O  O378  1  0.80736637  0.58371195  0.68864869  1
  O  O379  1  0.80959647  0.58316536  0.93728113  1
  O  O380  1  0.80502446  0.91600145  0.18829220  1
  O  O381  1  0.80611298  0.91644036  0.43820260  1
  O  O382  1  0.80551581  0.91631411  0.68839083  1
  O  O383  1  0.80910811  0.91622469  0.93661348  1
  O  O384  1  0.23342159  0.24987386  0.03990707  1
  O  O385  1  0.23518753  0.25011153  0.29065418  1
  O  O386  1  0.23415464  0.24971683  0.53892844  1
  O  O387  1  0.23533524  0.24965403  0.78811644  1
  O  O388  1  0.23209790  0.58351227  0.03730920  1
  O  O389  1  0.23313595  0.58351389  0.29012145  1
  O  O390  1  0.23294535  0.58310022  0.53765599  1
  O  O391  1  0.23266446  0.58409239  0.79000675  1
  O  O392  1  0.23311890  0.91699535  0.03996016  1
  O  O393  1  0.23371660  0.91689270  0.29016653  1
  O  O394  1  0.23465286  0.91699154  0.54118173  1
  O  O395  1  0.23481972  0.91613973  0.78805006  1
  O  O396  1  0.73364969  0.24965554  0.04007548  1
  O  O397  1  0.73405279  0.24965523  0.29163277  1
  O  O398  1  0.73476257  0.25032317  0.53797407  1
  O  O399  1  0.73151958  0.24907185  0.78934396  1
  O  O400  1  0.73410349  0.58388308  0.03773482  1
  O  O401  1  0.73450315  0.58369189  0.29044032  1
  O  O402  1  0.73342579  0.58324795  0.53740465  1
  O  O403  1  0.73491633  0.58370302  0.79066628  1
  O  O404  1  0.73545508  0.91612495  0.03787920  1
  O  O405  1  0.73192585  0.91674231  0.29026347  1
  O  O406  1  0.73325113  0.91675793  0.53998796  1
  O  O407  1  0.73265684  0.91663051  0.79033852  1
  O  O408  1  0.26747682  0.08370801  0.21289184  1
  O  O409  1  0.26773360  0.08356392  0.46067885  1
  O  O410  1  0.26721074  0.08317660  0.71325228  1
  O  O411  1  0.26561496  0.08289455  0.95855209  1
  O  O412  1  0.26878938  0.41730444  0.21065646  1
  O  O413  1  0.26836902  0.41636211  0.46058002  1
  O  O414  1  0.26707763  0.41751916  0.71275634  1
  O  O415  1  0.26543859  0.41685682  0.95847132  1
  O  O416  1  0.26442289  0.74966746  0.21124648  1
  O  O417  1  0.26473827  0.75038888  0.46131667  1
  O  O418  1  0.26611809  0.74953868  0.71259674  1
  O  O419  1  0.26379879  0.75024889  0.96112305  1
  O  O420  1  0.76728351  0.08284805  0.21065069  1
  O  O421  1  0.76646955  0.08356008  0.46319721  1
  O  O422  1  0.76594211  0.08293153  0.71145283  1
  O  O423  1  0.76635061  0.08307109  0.96209289  1
  O  O424  1  0.76595436  0.41691385  0.20997828  1
  O  O425  1  0.76764722  0.41706787  0.46053618  1
  O  O426  1  0.76640974  0.41690830  0.70921650  1
  O  O427  1  0.76543365  0.41671078  0.96163658  1
  O  O428  1  0.76656876  0.74968645  0.21203586  1
  O  O429  1  0.76427230  0.74980730  0.46193115  1
  O  O430  1  0.76804307  0.75004937  0.70971075  1
  O  O431  1  0.76741422  0.74957205  0.96228262  1
  O  O432  1  0.01447460  0.08347400  0.16400094  1
  O  O433  1  0.01576321  0.08321822  0.41313153  1
  O  O434  1  0.01460456  0.08324641  0.66330350  1
  O  O435  1  0.01524138  0.08318860  0.91239829  1
  O  O436  1  0.01730745  0.41681133  0.16611800  1
  O  O437  1  0.01614758  0.41680633  0.41586824  1
  O  O438  1  0.01640779  0.41729097  0.66243902  1
  O  O439  1  0.01856036  0.41722464  0.91411910  1
  O  O440  1  0.01632363  0.74961652  0.16332117  1
  O  O441  1  0.01703268  0.74948099  0.41208002  1
  O  O442  1  0.01771716  0.74996692  0.66480559  1
  O  O443  1  0.01594944  0.74988164  0.91268774  1
  O  O444  1  0.51809184  0.08354054  0.16478034  1
  O  O445  1  0.51453228  0.08270626  0.41440484  1
  O  O446  1  0.51577601  0.08309824  0.66286708  1
  O  O447  1  0.51848170  0.08290197  0.91211737  1
  O  O448  1  0.51764251  0.41737209  0.16465387  1
  O  O449  1  0.51379384  0.41660514  0.41455622  1
  O  O450  1  0.51391969  0.41725295  0.66309903  1
  O  O451  1  0.51509458  0.41690479  0.91231284  1
  O  O452  1  0.51890790  0.74908351  0.16357406  1
  O  O453  1  0.51790117  0.75016951  0.41466435  1
  O  O454  1  0.51742125  0.74986442  0.66514047  1
  O  O455  1  0.51559301  0.75022427  0.91269644  1
  O  O456  1  0.48423599  0.24979143  0.08385874  1
  O  O457  1  0.48088297  0.25061040  0.33633197  1
  O  O458  1  0.48238253  0.24909835  0.58778277  1
  O  O459  1  0.48460422  0.24991808  0.83373215  1
  O  O460  1  0.48484983  0.58356176  0.08372064  1
  O  O461  1  0.48295420  0.58337596  0.33743012  1
  O  O462  1  0.48399377  0.58400676  0.58506413  1
  O  O463  1  0.48278468  0.58356939  0.83686964  1
  O  O464  1  0.48602910  0.91654326  0.08605927  1
  O  O465  1  0.48458498  0.91599245  0.33407056  1
  O  O466  1  0.48336835  0.91666184  0.58800088  1
  O  O467  1  0.48511463  0.91661334  0.83450023  1
  O  O468  1  0.98344925  0.24986284  0.08512328  1
  O  O469  1  0.98323845  0.24979149  0.33878765  1
  O  O470  1  0.98457556  0.24941672  0.58442710  1
  O  O471  1  0.98361781  0.25022790  0.83349309  1
  O  O472  1  0.98592942  0.58379500  0.08656599  1
  O  O473  1  0.98430333  0.58320538  0.33743058  1
  O  O474  1  0.98618168  0.58402940  0.58642797  1
  O  O475  1  0.98407936  0.58413834  0.83644483  1
  O  O476  1  0.98288412  0.91629590  0.08495977  1
  O  O477  1  0.98366802  0.91674477  0.33484441  1
  O  O478  1  0.98327835  0.91589279  0.58424887  1
  O  O479  1  0.98133598  0.91647051  0.83506415  1
  O  O480  1  0.08735196  0.31472991  0.07815215  1
  O  O481  1  0.08712350  0.31391593  0.32812739  1
  O  O482  1  0.08850412  0.31474783  0.57600943  1
  O  O483  1  0.08780126  0.31471897  0.82754862  1
  O  O484  1  0.08916498  0.64964070  0.07837926  1
  O  O485  1  0.08804119  0.64854005  0.32793704  1
  O  O486  1  0.08954699  0.64998925  0.57834347  1
  O  O487  1  0.08802741  0.64886780  0.82783573  1
  O  O488  1  0.08652603  0.98118699  0.07728778  1
  O  O489  1  0.08702135  0.98272855  0.32780356  1
  O  O490  1  0.08691665  0.98098934  0.57718609  1
  O  O491  1  0.08505095  0.98205061  0.82700213  1
  O  O492  1  0.58753396  0.31560766  0.07828606  1
  O  O493  1  0.58500916  0.31502747  0.32787511  1
  O  O494  1  0.58566977  0.31435065  0.57712602  1
  O  O495  1  0.58879128  0.31411194  0.82583606  1
  O  O496  1  0.58917869  0.64816107  0.07680469  1
  O  O497  1  0.58660845  0.64874988  0.32845306  1
  O  O498  1  0.58811231  0.64924948  0.57791381  1
  O  O499  1  0.58654481  0.64839210  0.82701609  1
  O  O500  1  0.58959050  0.98169560  0.07880097  1
  O  O501  1  0.58868119  0.98073593  0.32716976  1
  O  O502  1  0.58669212  0.98191561  0.57841728  1
  O  O503  1  0.58895705  0.98211412  0.82676987  1
  O  O504  1  0.41430771  0.01794386  0.17322440  1
  O  O505  1  0.41032779  0.01891286  0.42288820  1
  O  O506  1  0.41215948  0.01779866  0.67277570  1
  O  O507  1  0.41493419  0.01796677  0.92258798  1
  O  O508  1  0.41353782  0.35236320  0.17263145  1
  O  O509  1  0.40966725  0.35227589  0.42206687  1
  O  O510  1  0.41071872  0.35085398  0.67198381  1
  O  O511  1  0.41143611  0.35280495  0.92157999  1
  O  O512  1  0.41467603  0.68485407  0.17244889  1
  O  O513  1  0.41438919  0.68411499  0.42304217  1
  O  O514  1  0.41286047  0.68591660  0.67362106  1
  O  O515  1  0.41239961  0.68393100  0.92227162  1
  O  O516  1  0.91078567  0.01835230  0.17318605  1
  O  O517  1  0.91160345  0.01891217  0.42309165  1
  O  O518  1  0.91067657  0.01838155  0.67266670  1
  O  O519  1  0.91168034  0.01751703  0.92184537  1
  O  O520  1  0.91337943  0.35200075  0.17295293  1
  O  O521  1  0.91180590  0.35231292  0.42306841  1
  O  O522  1  0.91312453  0.35188281  0.67242814  1
  O  O523  1  0.91443402  0.35275946  0.92244774  1
  O  O524  1  0.91259638  0.68472557  0.17327232  1
  O  O525  1  0.91381188  0.68372266  0.42219177  1
  O  O526  1  0.91398452  0.68464726  0.67351993  1
  O  O527  1  0.91250818  0.68455203  0.92252139  1
  O  O528  1  0.16380175  0.01874093  0.20260730  1
  O  O529  1  0.16339387  0.01932886  0.45161819  1
  O  O530  1  0.16385410  0.01782573  0.70201006  1
  O  O531  1  0.16129248  0.01835452  0.95096676  1
  O  O532  1  0.16497408  0.35235037  0.20272098  1
  O  O533  1  0.16486610  0.35079019  0.45254275  1
  O  O534  1  0.16355364  0.35276214  0.70235254  1
  O  O535  1  0.16125628  0.35240798  0.95150294  1
  O  O536  1  0.16110437  0.68349202  0.20352910  1
  O  O537  1  0.16128553  0.68437936  0.45314600  1
  O  O538  1  0.16240500  0.68423655  0.70323812  1
  O  O539  1  0.16030589  0.68441109  0.95264957  1
  O  O540  1  0.66339717  0.01761012  0.20252606  1
  O  O541  1  0.66284324  0.01864539  0.45297779  1
  O  O542  1  0.66212364  0.01776366  0.70251517  1
  O  O543  1  0.66272118  0.01820505  0.95199641  1
  O  O544  1  0.66205960  0.35150919  0.20233233  1
  O  O545  1  0.66365388  0.35255166  0.45187801  1
  O  O546  1  0.66294446  0.35078057  0.70210381  1
  O  O547  1  0.66119395  0.35309283  0.95303751  1
  O  O548  1  0.66246283  0.68564689  0.20216540  1
  O  O549  1  0.66104723  0.68350349  0.45280280  1
  O  O550  1  0.66352171  0.68597094  0.70188593  1
  O  O551  1  0.66409159  0.68360770  0.95239644  1
  O  O552  1  0.33726294  0.31472043  0.04686920  1
  O  O553  1  0.33906068  0.31526213  0.29717003  1
  O  O554  1  0.33816052  0.31458982  0.54742242  1
  O  O555  1  0.33869152  0.31498841  0.79611596  1
  O  O556  1  0.33542535  0.64878271  0.04782256  1
  O  O557  1  0.33706751  0.64842660  0.29852206  1
  O  O558  1  0.33615288  0.64845927  0.54788622  1
  O  O559  1  0.33656325  0.64929969  0.79845332  1
  O  O560  1  0.33720909  0.98168707  0.04738946  1
  O  O561  1  0.33770720  0.98180997  0.29697926  1
  O  O562  1  0.33849635  0.98252774  0.54764923  1
  O  O563  1  0.33841189  0.98132469  0.79697835  1
  O  O564  1  0.83742087  0.31442990  0.04742132  1
  O  O565  1  0.83859428  0.31384465  0.29839868  1
  O  O566  1  0.83823005  0.31566153  0.54669595  1
  O  O567  1  0.83525409  0.31436230  0.79779811  1
  O  O568  1  0.83767405  0.64907041  0.04706461  1
  O  O569  1  0.83811280  0.64965935  0.29805299  1
  O  O570  1  0.83713458  0.64775775  0.54724478  1
  O  O571  1  0.83857117  0.64966221  0.79749206  1
  O  O572  1  0.83860677  0.98155683  0.04625375  1
  O  O573  1  0.83603835  0.98123757  0.29730031  1
  O  O574  1  0.83685920  0.98222275  0.54720497  1
  O  O575  1  0.83676278  0.98142892  0.79758833  1
  O  O576  1  0.41354525  0.14779917  0.17268576  1
  O  O577  1  0.41129375  0.14904214  0.42260025  1
  O  O578  1  0.41186656  0.14785780  0.67276430  1
  O  O579  1  0.41498539  0.14805346  0.92237465  1
  O  O580  1  0.41360983  0.48229853  0.17273789  1
  O  O581  1  0.41034994  0.48252236  0.42230531  1
  O  O582  1  0.40972506  0.48110324  0.67252692  1
  O  O583  1  0.41198732  0.48314869  0.92174355  1
  O  O584  1  0.41542881  0.81482572  0.17291313  1
  O  O585  1  0.41377688  0.81417364  0.42277597  1
  O  O586  1  0.41360241  0.81580890  0.67344564  1
  O  O587  1  0.41177208  0.81417524  0.92232274  1
  O  O588  1  0.91063626  0.14821422  0.17318888  1
  O  O589  1  0.91216221  0.14892953  0.42273215  1
  O  O590  1  0.91086820  0.14826836  0.67283459  1
  O  O591  1  0.91133248  0.14768504  0.92250848  1
  O  O592  1  0.91367145  0.48204121  0.17305983  1
  O  O593  1  0.91245645  0.48247294  0.42326843  1
  O  O594  1  0.91283231  0.48205231  0.67211846  1
  O  O595  1  0.91501036  0.48292506  0.92248010  1
  O  O596  1  0.91245937  0.81455705  0.17336343  1
  O  O597  1  0.91320465  0.81384461  0.42235750  1
  O  O598  1  0.91335405  0.81440590  0.67321372  1
  O  O599  1  0.91200767  0.81475500  0.92218128  1
  O  O600  1  0.08694660  0.18460044  0.07772414  1
  O  O601  1  0.08639717  0.18365927  0.32829175  1
  O  O602  1  0.08870079  0.18473294  0.57624312  1
  O  O603  1  0.08700495  0.18427659  0.82717015  1
  O  O604  1  0.09001562  0.51957117  0.07758336  1
  O  O605  1  0.08826653  0.51856529  0.32733170  1
  O  O606  1  0.09022780  0.51987402  0.57697396  1
  O  O607  1  0.08784544  0.51880191  0.82719860  1
  O  O608  1  0.08641156  0.85089324  0.07775590  1
  O  O609  1  0.08767447  0.85228600  0.32807063  1
  O  O610  1  0.08721505  0.85082856  0.57812870  1
  O  O611  1  0.08555022  0.85194502  0.82748719  1
  O  O612  1  0.58822517  0.18514979  0.07851777  1
  O  O613  1  0.58451543  0.18503917  0.32786309  1
  O  O614  1  0.58610921  0.18408220  0.57781001  1
  O  O615  1  0.58825950  0.18405497  0.82628820  1
  O  O616  1  0.58863291  0.51803407  0.07706405  1
  O  O617  1  0.58659363  0.51873592  0.32778516  1
  O  O618  1  0.58792321  0.51915095  0.57646303  1
  O  O619  1  0.58628380  0.51844230  0.82683334  1
  O  O620  1  0.58948764  0.85120473  0.07847118  1
  O  O621  1  0.58861321  0.85069231  0.32797866  1
  O  O622  1  0.58697441  0.85158100  0.57886948  1
  O  O623  1  0.58932384  0.85222745  0.82638278  1
  O  O624  1  0.33706943  0.18453716  0.04705461  1
  O  O625  1  0.33914642  0.18508883  0.29761544  1
  O  O626  1  0.33787951  0.18443920  0.54762115  1
  O  O627  1  0.33890980  0.18452978  0.79677503  1
  O  O628  1  0.33585758  0.51878601  0.04711693  1
  O  O629  1  0.33738026  0.51847234  0.29745759  1
  O  O630  1  0.33673802  0.51837717  0.54680139  1
  O  O631  1  0.33684615  0.51930433  0.79811828  1
  O  O632  1  0.33667523  0.85156161  0.04803817  1
  O  O633  1  0.33715752  0.85156714  0.29769879  1
  O  O634  1  0.33885111  0.85243355  0.54866202  1
  O  O635  1  0.33822495  0.85089862  0.79677026  1
  O  O636  1  0.83715947  0.18411716  0.04683283  1
  O  O637  1  0.83773478  0.18373923  0.29786024  1
  O  O638  1  0.83819346  0.18523426  0.54687563  1
  O  O639  1  0.83548144  0.18420734  0.79713495  1
  O  O640  1  0.83761768  0.51891453  0.04757266  1
  O  O641  1  0.83898180  0.51966815  0.29833903  1
  O  O642  1  0.83693118  0.51762152  0.54684515  1
  O  O643  1  0.83932211  0.51961303  0.79820773  1
  O  O644  1  0.83889620  0.85113751  0.04641004  1
  O  O645  1  0.83552940  0.85104617  0.29772331  1
  O  O646  1  0.83701314  0.85197741  0.54743223  1
  O  O647  1  0.83676773  0.85133196  0.79753331  1
  O  O648  1  0.16385147  0.14875568  0.20301379  1
  O  O649  1  0.16394292  0.14929308  0.45195532  1
  O  O650  1  0.16357351  0.14787019  0.70223599  1
  O  O651  1  0.16163850  0.14820704  0.95111900  1
  O  O652  1  0.16488141  0.48249213  0.20336425  1
  O  O653  1  0.16431097  0.48090220  0.45250606  1
  O  O654  1  0.16369409  0.48297254  0.70317033  1
  O  O655  1  0.16161397  0.48243693  0.95198825  1
  O  O656  1  0.16014007  0.81360636  0.20215814  1
  O  O657  1  0.16058618  0.81447065  0.45250936  1
  O  O658  1  0.16227231  0.81423897  0.70195915  1
  O  O659  1  0.15973726  0.81440163  0.95166302  1
  O  O660  1  0.66324561  0.14767954  0.20218335  1
  O  O661  1  0.66296852  0.14867893  0.45264089  1
  O  O662  1  0.66194974  0.14786349  0.70194965  1
  O  O663  1  0.66254391  0.14812782  0.95194101  1
  O  O664  1  0.66190393  0.48156076  0.20213100  1
  O  O665  1  0.66392546  0.48265637  0.45211792  1
  O  O666  1  0.66225775  0.48108412  0.70221142  1
  O  O667  1  0.66251306  0.48326838  0.95291502  1
  O  O668  1  0.66320218  0.81576516  0.20274046  1
  O  O669  1  0.66003348  0.81354708  0.45251890  1
  O  O670  1  0.66411615  0.81595545  0.70226749  1
  O  O671  1  0.66349734  0.81358883  0.95257370  1
