# generated using pymatgen
data_Na2MnFe(PO4)2
_symmetry_space_group_name_H-M   'P 1'
_cell_length_a   21.08281765
_cell_length_b   18.93488533
_cell_length_c   20.04182594
_cell_angle_alpha   90.00029625
_cell_angle_beta   89.99645864
_cell_angle_gamma   90.00224534
_symmetry_Int_Tables_number   1
_chemical_formula_structural   Na2MnFe(PO4)2
_chemical_formula_sum   'Na96 Mn48 Fe48 P96 O384'
_cell_volume   8000.71161877
_cell_formula_units_Z   48
loop_
 _symmetry_equiv_pos_site_id
 _symmetry_equiv_pos_as_xyz
  1  'x, y, z'
loop_
 _atom_site_type_symbol
 _atom_site_label
 _atom_site_symmetry_multiplicity
 _atom_site_fract_x
 _atom_site_fract_y
 _atom_site_fract_z
 _atom_site_occupancy
  Na  Na0  1  0.00092241  0.00026260  0.00079548  1
  Na  Na1  1  0.00317994  0.00186369  0.24904650  1
  Na  Na2  1  -0.00047290  -0.00019477  0.49971480  1
  Na  Na3  1  -0.00065657  0.00004758  0.75063466  1
  Na  Na4  1  0.00133657  0.33297883  0.00040084  1
  Na  Na5  1  0.00109329  0.33331828  0.25106732  1
  Na  Na6  1  0.00110792  0.33334708  0.49974241  1
  Na  Na7  1  0.00147018  0.33319776  0.75010912  1
  Na  Na8  1  -0.00388676  0.66507824  -0.00028558  1
  Na  Na9  1  -0.00326970  0.66608059  0.24928013  1
  Na  Na10  1  -0.00226934  0.66656249  0.49920053  1
  Na  Na11  1  -0.00296633  0.66576449  0.75031905  1
  Na  Na12  1  0.49882857  -0.00007537  0.00031582  1
  Na  Na13  1  0.50152417  0.00090598  0.24897266  1
  Na  Na14  1  0.49862802  0.00000112  0.50001482  1
  Na  Na15  1  0.49734579  -0.00007126  0.75091282  1
  Na  Na16  1  0.49916786  0.33291932  0.00004082  1
  Na  Na17  1  0.49985402  0.33344256  0.24870027  1
  Na  Na18  1  0.50096407  0.33350864  0.49936628  1
  Na  Na19  1  0.50103600  0.33371788  0.75057002  1
  Na  Na20  1  0.49907036  0.66570240  0.00041093  1
  Na  Na21  1  0.50126382  0.66664294  0.25053432  1
  Na  Na22  1  0.50222785  0.66691049  0.50013009  1
  Na  Na23  1  0.50000975  0.66620928  0.74983150  1
  Na  Na24  1  0.24716943  -0.00012435  0.12579091  1
  Na  Na25  1  0.24785761  -0.00009799  0.37576952  1
  Na  Na26  1  0.25046326  0.00067285  0.62585882  1
  Na  Na27  1  0.25017938  0.00117553  0.87469836  1
  Na  Na28  1  0.24978920  0.33374887  0.12446259  1
  Na  Na29  1  0.24839786  0.33252150  0.37428137  1
  Na  Na30  1  0.24946408  0.33325757  0.62571225  1
  Na  Na31  1  0.24927393  0.33345476  0.87501189  1
  Na  Na32  1  0.25125321  0.66638411  0.12446138  1
  Na  Na33  1  0.25159464  0.66634747  0.37455347  1
  Na  Na34  1  0.25051519  0.66583971  0.62467628  1
  Na  Na35  1  0.25139320  0.66704288  0.87520109  1
  Na  Na36  1  0.74813379  -0.00072334  0.12395230  1
  Na  Na37  1  0.74975850  0.00031415  0.37448446  1
  Na  Na38  1  0.75181028  0.00089392  0.62598882  1
  Na  Na39  1  0.75252938  0.00147874  0.87493475  1
  Na  Na40  1  0.75172712  0.33367820  0.12435114  1
  Na  Na41  1  0.74782305  0.33233820  0.37510056  1
  Na  Na42  1  0.74898948  0.33342645  0.62532220  1
  Na  Na43  1  0.74904363  0.33265585  0.87547656  1
  Na  Na44  1  0.75176118  0.66672002  0.12498042  1
  Na  Na45  1  0.75074309  0.66656211  0.37387653  1
  Na  Na46  1  0.75050268  0.66637998  0.62559420  1
  Na  Na47  1  0.75276134  0.66724484  0.87542661  1
  Na  Na48  1  0.00074812  0.16766087  0.00083254  1
  Na  Na49  1  0.00251631  0.16666371  0.25012238  1
  Na  Na50  1  0.00304522  0.16604967  0.50043820  1
  Na  Na51  1  0.00282929  0.16622999  0.74984330  1
  Na  Na52  1  0.00050538  0.49885028  0.00010498  1
  Na  Na53  1  -0.00223903  0.50043331  0.25015339  1
  Na  Na54  1  -0.00229033  0.50060976  0.49935910  1
  Na  Na55  1  -0.00180158  0.50066286  0.74973611  1
  Na  Na56  1  -0.00058012  0.83313176  0.00044065  1
  Na  Na57  1  -0.00015197  0.83303831  0.24886046  1
  Na  Na58  1  -0.00170052  0.83312928  0.49915131  1
  Na  Na59  1  -0.00327528  0.83447441  0.75123693  1
  Na  Na60  1  0.49826492  0.16685830  0.00003254  1
  Na  Na61  1  0.50144752  0.16604488  0.24893615  1
  Na  Na62  1  0.49875254  0.16744739  0.50055769  1
  Na  Na63  1  0.49826470  0.16710271  0.75086879  1
  Na  Na64  1  0.49784825  0.49964683  0.00024199  1
  Na  Na65  1  0.49716260  0.50065636  0.24949615  1
  Na  Na66  1  0.50175449  0.49868539  0.49936011  1
  Na  Na67  1  0.49946811  0.49957981  0.75026758  1
  Na  Na68  1  0.50314713  0.83233633  0.00079528  1
  Na  Na69  1  0.50304560  0.83263734  0.24960993  1
  Na  Na70  1  0.50065975  0.83388292  0.49967583  1
  Na  Na71  1  0.50068480  0.83353490  0.75002913  1
  Na  Na72  1  0.24816778  0.16689072  0.12564334  1
  Na  Na73  1  0.24731550  0.16761337  0.37492537  1
  Na  Na74  1  0.24866842  0.16660144  0.62543225  1
  Na  Na75  1  0.24810703  0.16709802  0.87485027  1
  Na  Na76  1  0.25219500  0.49972810  0.12422582  1
  Na  Na77  1  0.25228110  0.49963449  0.37437980  1
  Na  Na78  1  0.25222936  0.49930132  0.62539048  1
  Na  Na79  1  0.25183342  0.49935911  0.87637673  1
  Na  Na80  1  0.24767411  0.83424462  0.12464137  1
  Na  Na81  1  0.24840126  0.83399287  0.37519667  1
  Na  Na82  1  0.25102167  0.83258524  0.62507266  1
  Na  Na83  1  0.24831612  0.83459443  0.87406688  1
  Na  Na84  1  0.75079602  0.16724015  0.12423352  1
  Na  Na85  1  0.75029079  0.16678547  0.37377724  1
  Na  Na86  1  0.75043889  0.16720622  0.62559476  1
  Na  Na87  1  0.75160101  0.16698687  0.87629743  1
  Na  Na88  1  0.75128907  0.49925055  0.12483815  1
  Na  Na89  1  0.75036377  0.49939624  0.37483179  1
  Na  Na90  1  0.74778040  0.50014319  0.62532948  1
  Na  Na91  1  0.74999534  0.49966286  0.87431184  1
  Na  Na92  1  0.75059801  0.83236535  0.12388812  1
  Na  Na93  1  0.74746952  0.83439360  0.37499934  1
  Na  Na94  1  0.75278949  0.83252937  0.62609911  1
  Na  Na95  1  0.75168863  0.83321973  0.87528466  1
  Mn  Mn96  1  0.60843354  0.75010922  0.62301402  1
  Mn  Mn97  1  0.64240162  0.58301395  0.99788256  1
  Mn  Mn98  1  0.14152249  0.91647554  0.74732076  1
  Mn  Mn99  1  0.35825012  0.75121454  0.00240741  1
  Mn  Mn100  1  0.39220775  0.25002216  0.37650904  1
  Mn  Mn101  1  0.64235006  0.58290768  0.74832000  1
  Mn  Mn102  1  0.10772170  0.41748550  0.37241517  1
  Mn  Mn103  1  0.85905432  0.08422689  0.75287764  1
  Mn  Mn104  1  0.64317203  0.91767642  0.74804975  1
  Mn  Mn105  1  0.35848075  0.74982594  0.75272864  1
  Mn  Mn106  1  0.10725967  0.74978212  0.37233586  1
  Mn  Mn107  1  0.64232590  0.91696740  0.49871763  1
  Mn  Mn108  1  0.14243778  0.58371965  0.99769836  1
  Mn  Mn109  1  0.39147201  0.25025528  0.87761210  1
  Mn  Mn110  1  0.39201581  0.91555691  0.87783669  1
  Mn  Mn111  1  0.64316520  0.91699317  0.99722284  1
  Mn  Mn112  1  0.85775501  0.08332506  0.25172890  1
  Mn  Mn113  1  0.85669994  0.41589491  0.50233381  1
  Mn  Mn114  1  0.85888151  0.41640060  0.00205202  1
  Mn  Mn115  1  0.60752520  0.08341939  0.87303338  1
  Mn  Mn116  1  0.64151202  0.24946940  0.49790200  1
  Mn  Mn117  1  0.64285601  0.58277792  0.24730183  1
  Mn  Mn118  1  0.89274463  0.24976713  0.37701998  1
  Mn  Mn119  1  0.60705357  0.41650023  0.12278053  1
  Mn  Mn120  1  0.39225087  0.91641972  0.12742011  1
  Mn  Mn121  1  0.89285972  0.91733145  0.12788597  1
  Mn  Mn122  1  0.35672358  0.08337714  0.25205713  1
  Mn  Mn123  1  0.35835783  0.75040717  0.25226763  1
  Mn  Mn124  1  0.89303381  0.25000684  0.62740975  1
  Mn  Mn125  1  0.89170292  0.91709692  0.37635590  1
  Mn  Mn126  1  0.64277732  0.25004199  0.99816969  1
  Mn  Mn127  1  0.60721156  0.08363513  0.62323948  1
  Mn  Mn128  1  0.14211763  0.58322416  0.74814819  1
  Mn  Mn129  1  0.10696713  0.74901387  0.12240430  1
  Mn  Mn130  1  0.39241632  0.91623070  0.37648983  1
  Mn  Mn131  1  0.35864881  0.75033747  0.50175068  1
  Mn  Mn132  1  0.14167185  0.58304642  0.49758122  1
  Mn  Mn133  1  0.14139212  0.91633148  0.49829075  1
  Mn  Mn134  1  0.35847308  0.41593452  0.50195558  1
  Mn  Mn135  1  0.39301473  0.58319260  0.62709941  1
  Mn  Mn136  1  0.10811832  0.41769520  0.62269278  1
  Mn  Mn137  1  0.10659886  0.74991292  0.62304992  1
  Mn  Mn138  1  0.14240968  0.58336038  0.24765255  1
  Mn  Mn139  1  0.10650668  0.74939105  0.87269514  1
  Mn  Mn140  1  0.85707759  0.75064028  0.50214658  1
  Mn  Mn141  1  0.35706066  0.08351877  0.50192738  1
  Mn  Mn142  1  0.85736889  0.41617405  0.75232108  1
  Mn  Mn143  1  0.60860629  0.08346972  0.37286683  1
  Fe  Fe144  1  0.14301562  0.25067866  0.49869094  1
  Fe  Fe145  1  0.60662869  0.41683523  0.87368261  1
  Fe  Fe146  1  0.60808828  0.74976441  0.12308365  1
  Fe  Fe147  1  0.60724511  0.41668067  0.37199948  1
  Fe  Fe148  1  0.60801676  0.74951164  0.37289386  1
  Fe  Fe149  1  0.60658920  0.41603378  0.62368701  1
  Fe  Fe150  1  0.35684123  0.41566576  0.00179160  1
  Fe  Fe151  1  0.89237107  0.91681794  0.62675300  1
  Fe  Fe152  1  0.64274970  0.58327813  0.49775918  1
  Fe  Fe153  1  0.89123447  0.58332388  0.62638177  1
  Fe  Fe154  1  0.39302990  0.58362792  0.87633170  1
  Fe  Fe155  1  0.85764034  0.74984402  0.75229054  1
  Fe  Fe156  1  0.10780017  0.41681457  0.87334048  1
  Fe  Fe157  1  0.60823712  0.74923906  0.87356721  1
  Fe  Fe158  1  0.14275218  0.25009745  0.99829623  1
  Fe  Fe159  1  0.14227345  0.91690905  0.99799608  1
  Fe  Fe160  1  0.64286809  0.24965721  0.24741692  1
  Fe  Fe161  1  0.85757916  0.41616237  0.25169620  1
  Fe  Fe162  1  0.89414015  0.25062518  0.12712999  1
  Fe  Fe163  1  0.10702435  0.08345355  0.87374959  1
  Fe  Fe164  1  0.64245661  0.91737605  0.24787414  1
  Fe  Fe165  1  0.10726350  0.08281856  0.37349633  1
  Fe  Fe166  1  0.35615585  0.08383457  0.75164911  1
  Fe  Fe167  1  0.89243012  0.58223972  0.87708314  1
  Fe  Fe168  1  0.10747097  0.41722631  0.12382444  1
  Fe  Fe169  1  0.60707701  0.08362621  0.12257430  1
  Fe  Fe170  1  0.39187829  0.24983854  0.62729702  1
  Fe  Fe171  1  0.10760410  0.08410649  0.12260612  1
  Fe  Fe172  1  0.14298636  0.25062113  0.74843919  1
  Fe  Fe173  1  0.39204480  0.91715164  0.62669915  1
  Fe  Fe174  1  0.35690102  0.41621100  0.25140517  1
  Fe  Fe175  1  0.35778048  0.41610936  0.75215992  1
  Fe  Fe176  1  0.35581438  0.08366687  0.00188282  1
  Fe  Fe177  1  0.64241315  0.24944231  0.74884171  1
  Fe  Fe178  1  0.89391292  0.25013688  0.87654327  1
  Fe  Fe179  1  0.89321600  0.91753369  0.87772584  1
  Fe  Fe180  1  0.89170766  0.58313028  0.37678991  1
  Fe  Fe181  1  0.39282703  0.58359174  0.12688034  1
  Fe  Fe182  1  0.14195528  0.91621182  0.24827631  1
  Fe  Fe183  1  0.85846765  0.08378834  0.50158861  1
  Fe  Fe184  1  0.39400493  0.58353982  0.37667886  1
  Fe  Fe185  1  0.39183036  0.24975130  0.12678700  1
  Fe  Fe186  1  0.85869028  0.08361146  0.00231423  1
  Fe  Fe187  1  0.85715658  0.75044815  0.00192824  1
  Fe  Fe188  1  0.85625220  0.75011753  0.25155614  1
  Fe  Fe189  1  0.14266604  0.25078352  0.24760428  1
  Fe  Fe190  1  0.89254326  0.58180473  0.12680688  1
  Fe  Fe191  1  0.10729902  0.08254728  0.62317746  1
  P  P192  1  0.05507261  0.25100749  0.11100140  1
  P  P193  1  0.05576603  0.24941105  0.36080157  1
  P  P194  1  0.05586512  0.24964697  0.61087895  1
  P  P195  1  0.05494215  0.24993938  0.86115105  1
  P  P196  1  0.05187452  0.58232432  0.11010043  1
  P  P197  1  0.05129873  0.58356372  0.35934119  1
  P  P198  1  0.05103215  0.58367993  0.60979389  1
  P  P199  1  0.05182599  0.58244926  0.86025878  1
  P  P200  1  0.05538189  0.91709828  0.11041515  1
  P  P201  1  0.05334315  0.91715130  0.35913640  1
  P  P202  1  0.05130280  0.91672828  0.61026117  1
  P  P203  1  0.05323275  0.91742597  0.86168961  1
  P  P204  1  0.55307514  0.24938779  0.11073971  1
  P  P205  1  0.55413419  0.25060407  0.35863903  1
  P  P206  1  0.55259775  0.25036489  0.61169282  1
  P  P207  1  0.55366013  0.25057452  0.86016746  1
  P  P208  1  0.55243841  0.58323867  0.11019576  1
  P  P209  1  0.55435875  0.58282496  0.36084033  1
  P  P210  1  0.55455889  0.58203983  0.60956663  1
  P  P211  1  0.55253210  0.58286454  0.86054956  1
  P  P212  1  0.55534298  0.91713371  0.11095517  1
  P  P213  1  0.55449038  0.91626994  0.35927716  1
  P  P214  1  0.55191236  0.91754210  0.61053622  1
  P  P215  1  0.55374929  0.91611641  0.86021236  1
  P  P216  1  0.44566703  0.08400449  0.13858410  1
  P  P217  1  0.44688157  0.08352274  0.38963409  1
  P  P218  1  0.44511197  0.08384784  0.64083085  1
  P  P219  1  0.44410860  0.08339816  0.89008280  1
  P  P220  1  0.44386956  0.41593612  0.13891365  1
  P  P221  1  0.44677742  0.41684370  0.38813398  1
  P  P222  1  0.44686324  0.41555238  0.64056773  1
  P  P223  1  0.44553847  0.41706038  0.88955771  1
  P  P224  1  0.44846230  0.74971551  0.14006387  1
  P  P225  1  0.44866508  0.74937050  0.38960646  1
  P  P226  1  0.44721746  0.75069357  0.64002207  1
  P  P227  1  0.44861347  0.74926660  0.89036394  1
  P  P228  1  0.94749193  0.08474322  0.13896639  1
  P  P229  1  0.94754696  0.08368147  0.39019475  1
  P  P230  1  0.94720808  0.08314016  0.63903349  1
  P  P231  1  0.94779076  0.08424503  0.89090929  1
  P  P232  1  0.94749466  0.41585799  0.14060944  1
  P  P233  1  0.94507926  0.41687421  0.38895779  1
  P  P234  1  0.94646385  0.41691212  0.63992560  1
  P  P235  1  0.94821500  0.41579871  0.88965908  1
  P  P236  1  0.94408292  0.74915911  0.13915079  1
  P  P237  1  0.94437013  0.74967032  0.38816284  1
  P  P238  1  0.94498950  0.75001067  0.64055104  1
  P  P239  1  0.94419190  0.74994736  0.88968839  1
  P  P240  1  0.19388392  0.08349022  0.23591033  1
  P  P241  1  0.19431905  0.08399295  0.48601649  1
  P  P242  1  0.19492882  0.08415150  0.73605505  1
  P  P243  1  0.19521331  0.08376346  0.98578241  1
  P  P244  1  0.19715279  0.41682920  0.23410343  1
  P  P245  1  0.19703575  0.41629905  0.48474714  1
  P  P246  1  0.19682845  0.41659177  0.73660744  1
  P  P247  1  0.19583173  0.41615831  0.98602687  1
  P  P248  1  0.19679475  0.74995633  0.23454585  1
  P  P249  1  0.19662733  0.74957823  0.48472915  1
  P  P250  1  0.19672006  0.74954310  0.73474506  1
  P  P251  1  0.19657655  0.75064734  0.98458882  1
  P  P252  1  0.69599847  0.08387006  0.23363395  1
  P  P253  1  0.69858533  0.08342653  0.48520388  1
  P  P254  1  0.69718185  0.08462382  0.73549823  1
  P  P255  1  0.69752642  0.08385184  0.98590100  1
  P  P256  1  0.69688654  0.41576860  0.23550714  1
  P  P257  1  0.69399261  0.41711671  0.48548969  1
  P  P258  1  0.69434396  0.41542236  0.73601723  1
  P  P259  1  0.69635389  0.41668821  0.98437837  1
  P  P260  1  0.69599543  0.75024474  0.23516128  1
  P  P261  1  0.69595292  0.74927091  0.48455571  1
  P  P262  1  0.69723324  0.74997750  0.73662992  1
  P  P263  1  0.69649139  0.74951354  0.98543087  1
  P  P264  1  0.30233079  0.24961690  0.01529224  1
  P  P265  1  0.30279650  0.25055260  0.26350052  1
  P  P266  1  0.30267172  0.24992868  0.51567157  1
  P  P267  1  0.30325091  0.24992040  0.76410009  1
  P  P268  1  0.30577588  0.58289234  0.01418642  1
  P  P269  1  0.30584275  0.58260428  0.26421168  1
  P  P270  1  0.30489004  0.58313558  0.51383631  1
  P  P271  1  0.30440421  0.58223802  0.76596062  1
  P  P272  1  0.30165163  0.91793968  0.01513540  1
  P  P273  1  0.30143567  0.91699146  0.26502842  1
  P  P274  1  0.30348512  0.91686162  0.51570149  1
  P  P275  1  0.30414455  0.91764961  0.76407055  1
  P  P276  1  0.80651564  0.24954244  0.01458838  1
  P  P277  1  0.80379659  0.25072163  0.26343180  1
  P  P278  1  0.80328656  0.24922187  0.51505647  1
  P  P279  1  0.80307111  0.25037233  0.76614703  1
  P  P280  1  0.80537798  0.58333136  0.01451165  1
  P  P281  1  0.80544377  0.58253381  0.26386173  1
  P  P282  1  0.80296416  0.58304685  0.51443350  1
  P  P283  1  0.80510441  0.58345014  0.76467968  1
  P  P284  1  0.80568949  0.91728036  0.01382823  1
  P  P285  1  0.80166292  0.91637303  0.26422521  1
  P  P286  1  0.80394975  0.91795050  0.51564182  1
  P  P287  1  0.80608512  0.91650739  0.76509551  1
  O  O288  1  0.05923490  0.25093505  0.18775952  1
  O  O289  1  0.05946039  0.25063127  0.43758169  1
  O  O290  1  0.05965885  0.25062778  0.68773317  1
  O  O291  1  0.05911246  0.25023390  0.93792912  1
  O  O292  1  0.05573769  0.58330555  0.18671638  1
  O  O293  1  0.05539988  0.58352901  0.43603249  1
  O  O294  1  0.05548515  0.58336071  0.68645569  1
  O  O295  1  0.05600290  0.58294314  0.93693361  1
  O  O296  1  0.05922655  0.91632912  0.18720572  1
  O  O297  1  0.05586789  0.91604939  0.43594606  1
  O  O298  1  0.05486508  0.91639294  0.68701564  1
  O  O299  1  0.05814145  0.91668663  0.93835496  1
  O  O300  1  0.55838400  0.25002114  0.18734544  1
  O  O301  1  0.55658118  0.24972277  0.43553029  1
  O  O302  1  0.55754238  0.24941521  0.68827290  1
  O  O303  1  0.55688803  0.24961143  0.93696065  1
  O  O304  1  0.55645412  0.58259948  0.18687637  1
  O  O305  1  0.55854123  0.58277180  0.43750716  1
  O  O306  1  0.55708116  0.58303590  0.68640495  1
  O  O307  1  0.55584010  0.58274021  0.93723174  1
  O  O308  1  0.55932398  0.91727772  0.18773944  1
  O  O309  1  0.55707300  0.91732906  0.43610192  1
  O  O310  1  0.55632116  0.91780684  0.68719504  1
  O  O311  1  0.55718703  0.91707611  0.93702888  1
  O  O312  1  0.44020684  0.08347672  0.06194933  1
  O  O313  1  0.44343064  0.08361607  0.31284767  1
  O  O314  1  0.44254165  0.08406587  0.56399827  1
  O  O315  1  0.43954196  0.08381595  0.81336542  1
  O  O316  1  0.44008142  0.41529056  0.06207556  1
  O  O317  1  0.44165327  0.41596753  0.31150991  1
  O  O318  1  0.44379794  0.41569801  0.56377133  1
  O  O319  1  0.44120934  0.41588574  0.81282822  1
  O  O320  1  0.44431136  0.75063324  0.06338400  1
  O  O321  1  0.44478024  0.75004654  0.31290216  1
  O  O322  1  0.44443981  0.75029042  0.56324054  1
  O  O323  1  0.44467935  0.75022532  0.81367938  1
  O  O324  1  0.94276915  0.08380299  0.06234233  1
  O  O325  1  0.94360720  0.08409143  0.31344289  1
  O  O326  1  0.94272056  0.08400937  0.56236766  1
  O  O327  1  0.94468273  0.08431629  0.81413207  1
  O  O328  1  0.94449032  0.41577639  0.06383390  1
  O  O329  1  0.94111696  0.41582701  0.31220848  1
  O  O330  1  0.94305192  0.41603318  0.56315548  1
  O  O331  1  0.94419470  0.41574224  0.81307682  1
  O  O332  1  0.94048036  0.75020980  0.06232899  1
  O  O333  1  0.94006244  0.75069700  0.31140151  1
  O  O334  1  0.94257844  0.74993905  0.56367222  1
  O  O335  1  0.94096734  0.75011734  0.81285420  1
  O  O336  1  0.19096429  0.08375148  0.06256375  1
  O  O337  1  0.19062560  0.08345526  0.31274584  1
  O  O338  1  0.19082711  0.08251815  0.56285729  1
  O  O339  1  0.19038248  0.08311816  0.81279829  1
  O  O340  1  0.19111341  0.41735010  0.06266010  1
  O  O341  1  0.19347048  0.41754341  0.31082639  1
  O  O342  1  0.19405746  0.41751753  0.56156194  1
  O  O343  1  0.19176235  0.41748987  0.81330630  1
  O  O344  1  0.19310454  0.74939035  0.06134767  1
  O  O345  1  0.19356044  0.74900829  0.31131793  1
  O  O346  1  0.19309808  0.74922722  0.56149640  1
  O  O347  1  0.19267135  0.74975780  0.81151569  1
  O  O348  1  0.69180854  0.08395190  0.06247680  1
  O  O349  1  0.69355269  0.08392057  0.31047114  1
  O  O350  1  0.69437805  0.08370132  0.56187815  1
  O  O351  1  0.69374206  0.08396669  0.81224672  1
  O  O352  1  0.69287455  0.41682229  0.06116406  1
  O  O353  1  0.69194280  0.41646474  0.31218657  1
  O  O354  1  0.69007687  0.41626454  0.56230426  1
  O  O355  1  0.69031728  0.41652929  0.81277966  1
  O  O356  1  0.69134480  0.74897088  0.06215714  1
  O  O357  1  0.69138761  0.74942167  0.31189347  1
  O  O358  1  0.69363129  0.74977284  0.56145342  1
  O  O359  1  0.69225726  0.74970608  0.81333459  1
  O  O360  1  0.30757656  0.24971294  0.18686510  1
  O  O361  1  0.30645313  0.24992192  0.43890425  1
  O  O362  1  0.30760827  0.25011428  0.68743055  1
  O  O363  1  0.30559911  0.24982194  0.93857202  1
  O  O364  1  0.30984946  0.58392785  0.18736113  1
  O  O365  1  0.30988579  0.58328870  0.43707213  1
  O  O366  1  0.30747151  0.58285505  0.68913267  1
  O  O367  1  0.30996092  0.58390398  0.93743888  1
  O  O368  1  0.30573205  0.91690667  0.18833466  1
  O  O369  1  0.30674935  0.91685717  0.43888501  1
  O  O370  1  0.30859099  0.91662980  0.68734838  1
  O  O371  1  0.30566601  0.91699062  0.93842494  1
  O  O372  1  0.80916597  0.25051947  0.18680305  1
  O  O373  1  0.80655451  0.24981244  0.43828388  1
  O  O374  1  0.80720104  0.25050918  0.68944242  1
  O  O375  1  0.81084926  0.25026964  0.93786081  1
  O  O376  1  0.80921444  0.58206636  0.18701461  1
  O  O377  1  0.80764579  0.58288415  0.43769865  1
  O  O378  1  0.80851390  0.58254048  0.68784046  1
  O  O379  1  0.80931631  0.58188943  0.93768214  1
  O  O380  1  0.80585505  0.91680085  0.18754688  1
  O  O381  1  0.80634178  0.91725940  0.43881291  1
  O  O382  1  0.80981667  0.91738549  0.68826136  1
  O  O383  1  0.80966258  0.91795412  0.93702992  1
  O  O384  1  0.23216426  0.24982586  0.03974718  1
  O  O385  1  0.23240211  0.25035197  0.28709710  1
  O  O386  1  0.23259804  0.24999076  0.54003846  1
  O  O387  1  0.23301559  0.25014843  0.78835047  1
  O  O388  1  0.23557828  0.58316232  0.03813188  1
  O  O389  1  0.23575947  0.58295065  0.28834551  1
  O  O390  1  0.23485387  0.58263663  0.53788781  1
  O  O391  1  0.23470170  0.58297109  0.79117304  1
  O  O392  1  0.23151391  0.91751823  0.03932715  1
  O  O393  1  0.23130460  0.91692772  0.28921003  1
  O  O394  1  0.23369112  0.91671878  0.54061033  1
  O  O395  1  0.23402282  0.91778515  0.78804146  1
  O  O396  1  0.73627211  0.25031769  0.03826793  1
  O  O397  1  0.73340356  0.24969217  0.28693901  1
  O  O398  1  0.73356516  0.24992667  0.54011368  1
  O  O399  1  0.73296027  0.24975919  0.79038317  1
  O  O400  1  0.73538476  0.58271201  0.03890058  1
  O  O401  1  0.73536355  0.58281685  0.28804194  1
  O  O402  1  0.73268326  0.58328645  0.53824267  1
  O  O403  1  0.73511943  0.58313228  0.78919209  1
  O  O404  1  0.73567712  0.91636705  0.03800386  1
  O  O405  1  0.73159176  0.91735638  0.28861530  1
  O  O406  1  0.73446563  0.91675262  0.54156486  1
  O  O407  1  0.73611097  0.91767669  0.78955829  1
  O  O408  1  0.26381620  0.08358396  0.21115593  1
  O  O409  1  0.26418172  0.08366943  0.46120040  1
  O  O410  1  0.26530563  0.08377520  0.71241891  1
  O  O411  1  0.26551859  0.08418307  0.96179046  1
  O  O412  1  0.26722218  0.41684962  0.20969616  1
  O  O413  1  0.26661048  0.41599206  0.45931990  1
  O  O414  1  0.26717318  0.41617104  0.71290714  1
  O  O415  1  0.26640872  0.41614745  0.96267221  1
  O  O416  1  0.26651511  0.75019894  0.20934779  1
  O  O417  1  0.26634014  0.75030472  0.45966833  1
  O  O418  1  0.26660448  0.74926144  0.71036599  1
  O  O419  1  0.26638685  0.75090403  0.95972533  1
  O  O420  1  0.76574156  0.08360924  0.20832515  1
  O  O421  1  0.76848263  0.08355771  0.46021049  1
  O  O422  1  0.76705412  0.08445356  0.71094082  1
  O  O423  1  0.76804576  0.08419402  0.96286078  1
  O  O424  1  0.76721135  0.41640235  0.21174852  1
  O  O425  1  0.76403766  0.41590539  0.46124878  1
  O  O426  1  0.76437704  0.41637126  0.71172621  1
  O  O427  1  0.76629552  0.41629544  0.95998231  1
  O  O428  1  0.76645263  0.74934238  0.21157382  1
  O  O429  1  0.76552016  0.75018554  0.45904688  1
  O  O430  1  0.76754565  0.74956284  0.71295278  1
  O  O431  1  0.76703965  0.75030099  0.96251542  1
  O  O432  1  0.01792234  0.08474096  0.16234288  1
  O  O433  1  0.01767474  0.08304505  0.41434448  1
  O  O434  1  0.01741005  0.08315588  0.66330984  1
  O  O435  1  0.01787122  0.08412557  0.91562641  1
  O  O436  1  0.01747940  0.41645482  0.16554260  1
  O  O437  1  0.01505007  0.41697346  0.41330373  1
  O  O438  1  0.01619182  0.41695340  0.66494669  1
  O  O439  1  0.01829494  0.41591898  0.91431327  1
  O  O440  1  0.01414860  0.74967300  0.16332314  1
  O  O441  1  0.01426758  0.74978565  0.41264093  1
  O  O442  1  0.01445574  0.75009621  0.66656337  1
  O  O443  1  0.01409650  0.74933512  0.91453876  1
  O  O444  1  0.51615504  0.08369020  0.16177695  1
  O  O445  1  0.51654202  0.08368449  0.41480848  1
  O  O446  1  0.51474283  0.08373970  0.66639814  1
  O  O447  1  0.51434218  0.08351784  0.91372509  1
  O  O448  1  0.51397266  0.41662836  0.16309890  1
  O  O449  1  0.51708532  0.41632537  0.41184455  1
  O  O450  1  0.51685768  0.41646816  0.66532933  1
  O  O451  1  0.51586096  0.41632110  0.91353521  1
  O  O452  1  0.51867703  0.74991961  0.16420115  1
  O  O453  1  0.51870351  0.74988985  0.41415266  1
  O  O454  1  0.51690743  0.74995260  0.66537975  1
  O  O455  1  0.51866845  0.74911442  0.91497009  1
  O  O456  1  0.48265953  0.24991954  0.08722895  1
  O  O457  1  0.48447109  0.25011772  0.33330809  1
  O  O458  1  0.48232479  0.25022510  0.58763274  1
  O  O459  1  0.48370865  0.25043416  0.83576366  1
  O  O460  1  0.48228615  0.58260683  0.08598567  1
  O  O461  1  0.48421073  0.58310464  0.33642724  1
  O  O462  1  0.48492985  0.58266003  0.58418584  1
  O  O463  1  0.48266451  0.58301142  0.83533855  1
  O  O464  1  0.48534107  0.91655945  0.08652487  1
  O  O465  1  0.48487148  0.91667395  0.33362141  1
  O  O466  1  0.48185117  0.91740402  0.58614356  1
  O  O467  1  0.48393506  0.91636484  0.83556558  1
  O  O468  1  0.98476329  0.25059235  0.08710008  1
  O  O469  1  0.98575824  0.24996308  0.33638882  1
  O  O470  1  0.98591258  0.25011555  0.58641604  1
  O  O471  1  0.98462523  0.24977946  0.83696402  1
  O  O472  1  0.98172417  0.58192075  0.08573960  1
  O  O473  1  0.98118211  0.58328862  0.33520213  1
  O  O474  1  0.98082926  0.58360142  0.58567506  1
  O  O475  1  0.98157174  0.58285826  0.83629799  1
  O  O476  1  0.98523281  0.91654363  0.08659171  1
  O  O477  1  0.98377997  0.91749243  0.33340475  1
  O  O478  1  0.98141582  0.91656461  0.58527895  1
  O  O479  1  0.98276418  0.91741477  0.83828764  1
  O  O480  1  0.08824149  0.31624020  0.07784591  1
  O  O481  1  0.08984963  0.31406702  0.32720494  1
  O  O482  1  0.08992421  0.31437430  0.57753917  1
  O  O483  1  0.08856334  0.31488484  0.82782944  1
  O  O484  1  0.08521738  0.64733465  0.07663071  1
  O  O485  1  0.08490743  0.64852759  0.32628079  1
  O  O486  1  0.08453271  0.64878053  0.57688419  1
  O  O487  1  0.08532697  0.64745701  0.82710174  1
  O  O488  1  0.08859812  0.98253847  0.07767772  1
  O  O489  1  0.08795145  0.98233377  0.32759571  1
  O  O490  1  0.08539748  0.98175053  0.57789782  1
  O  O491  1  0.08628010  0.98270267  0.82862857  1
  O  O492  1  0.58649805  0.31439858  0.07731046  1
  O  O493  1  0.58836705  0.31578580  0.32651015  1
  O  O494  1  0.58595153  0.31562242  0.57871876  1
  O  O495  1  0.58761635  0.31579353  0.82803313  1
  O  O496  1  0.58603802  0.64844377  0.07762490  1
  O  O497  1  0.58804646  0.64790446  0.32790195  1
  O  O498  1  0.58942107  0.64672738  0.57705985  1
  O  O499  1  0.58680042  0.64779626  0.82795905  1
  O  O500  1  0.58855539  0.98245043  0.07778932  1
  O  O501  1  0.58909282  0.98108029  0.32663938  1
  O  O502  1  0.58552996  0.98252737  0.57735922  1
  O  O503  1  0.58762914  0.98125790  0.82752252  1
  O  O504  1  0.41256431  0.01898261  0.17236326  1
  O  O505  1  0.41273863  0.01843285  0.42188378  1
  O  O506  1  0.41061232  0.01884073  0.67300135  1
  O  O507  1  0.41057762  0.01839633  0.92332535  1
  O  O508  1  0.41052329  0.35078325  0.17222978  1
  O  O509  1  0.41340124  0.35190116  0.42183711  1
  O  O510  1  0.41300231  0.35052808  0.67339303  1
  O  O511  1  0.41153659  0.35238913  0.92321381  1
  O  O512  1  0.41494979  0.68443835  0.17245962  1
  O  O513  1  0.41515504  0.68413814  0.42222980  1
  O  O514  1  0.41297967  0.68555951  0.67230334  1
  O  O515  1  0.41450555  0.68422802  0.92253289  1
  O  O516  1  0.91443832  0.01968601  0.17272541  1
  O  O517  1  0.91317716  0.01882253  0.42266112  1
  O  O518  1  0.91365018  0.01809661  0.67193265  1
  O  O519  1  0.91363391  0.01933427  0.92365013  1
  O  O520  1  0.91377127  0.35065569  0.17339801  1
  O  O521  1  0.91171420  0.35184704  0.42235044  1
  O  O522  1  0.91269750  0.35184719  0.67289692  1
  O  O523  1  0.91474050  0.35068223  0.92269335  1
  O  O524  1  0.91058008  0.68376175  0.17138392  1
  O  O525  1  0.91069778  0.68444306  0.42082235  1
  O  O526  1  0.91045967  0.68490507  0.67258344  1
  O  O527  1  0.90987326  0.68497959  0.92208799  1
  O  O528  1  0.16002499  0.01851891  0.20301946  1
  O  O529  1  0.16006915  0.01935275  0.45272610  1
  O  O530  1  0.16124089  0.01947537  0.70216638  1
  O  O531  1  0.16189065  0.01871333  0.95238906  1
  O  O532  1  0.16306677  0.35179078  0.20164697  1
  O  O533  1  0.16274568  0.35096235  0.45316392  1
  O  O534  1  0.16322066  0.35150770  0.70379832  1
  O  O535  1  0.16272894  0.35082120  0.95303135  1
  O  O536  1  0.16297453  0.68481412  0.20164487  1
  O  O537  1  0.16293613  0.68447942  0.45180760  1
  O  O538  1  0.16274782  0.68446429  0.70224002  1
  O  O539  1  0.16280098  0.68544544  0.95182381  1
  O  O540  1  0.66152757  0.01888355  0.20145054  1
  O  O541  1  0.66471767  0.01824310  0.45270593  1
  O  O542  1  0.66336601  0.01961981  0.70255968  1
  O  O543  1  0.66469829  0.01872109  0.95222286  1
  O  O544  1  0.66373234  0.35062084  0.20222173  1
  O  O545  1  0.65960336  0.35257385  0.45221038  1
  O  O546  1  0.66120670  0.34983940  0.70336469  1
  O  O547  1  0.66194929  0.35182141  0.95201476  1
  O  O548  1  0.66242771  0.68534776  0.20149096  1
  O  O549  1  0.66214176  0.68399712  0.45218970  1
  O  O550  1  0.66370280  0.68507471  0.70330276  1
  O  O551  1  0.66382008  0.68432616  0.95164515  1
  O  O552  1  0.33648537  0.31454524  0.04790843  1
  O  O553  1  0.33590464  0.31587259  0.29656567  1
  O  O554  1  0.33667993  0.31485286  0.54854865  1
  O  O555  1  0.33676278  0.31483708  0.79751763  1
  O  O556  1  0.33958203  0.64766326  0.04780513  1
  O  O557  1  0.33994825  0.64723019  0.29772150  1
  O  O558  1  0.33817156  0.64827539  0.54706467  1
  O  O559  1  0.33922577  0.64699659  0.79854054  1
  O  O560  1  0.33501812  0.98320302  0.04781714  1
  O  O561  1  0.33496967  0.98208152  0.29788458  1
  O  O562  1  0.33745868  0.98200898  0.54818725  1
  O  O563  1  0.33753906  0.98289934  0.79676380  1
  O  O564  1  0.84027276  0.31444971  0.04800246  1
  O  O565  1  0.83649458  0.31589404  0.29714571  1
  O  O566  1  0.83743510  0.31412322  0.54785712  1
  O  O567  1  0.83665432  0.31549483  0.79915580  1
  O  O568  1  0.83871783  0.64873645  0.04686952  1
  O  O569  1  0.83900745  0.64778569  0.29656915  1
  O  O570  1  0.83660086  0.64806329  0.54753806  1
  O  O571  1  0.83882884  0.64852189  0.79729027  1
  O  O572  1  0.83879394  0.98248442  0.04724128  1
  O  O573  1  0.83585912  0.98130498  0.29690570  1
  O  O574  1  0.83798062  0.98332796  0.54760479  1
  O  O575  1  0.84064088  0.98115690  0.79817635  1
  O  O576  1  0.41260886  0.14921508  0.17197134  1
  O  O577  1  0.41268854  0.14859242  0.42202803  1
  O  O578  1  0.41077744  0.14895531  0.67326316  1
  O  O579  1  0.41045165  0.14836948  0.92336165  1
  O  O580  1  0.41000214  0.48100588  0.17153440  1
  O  O581  1  0.41383793  0.48212670  0.42135911  1
  O  O582  1  0.41248909  0.48046002  0.67310178  1
  O  O583  1  0.41232714  0.48236568  0.92222594  1
  O  O584  1  0.41475354  0.81470118  0.17322836  1
  O  O585  1  0.41457812  0.81436576  0.42224465  1
  O  O586  1  0.41330421  0.81583380  0.67237487  1
  O  O587  1  0.41496220  0.81434136  0.92363156  1
  O  O588  1  0.91431574  0.14981245  0.17218804  1
  O  O589  1  0.91419631  0.14872941  0.42353707  1
  O  O590  1  0.91409419  0.14818195  0.67280792  1
  O  O591  1  0.91393949  0.14935243  0.92345734  1
  O  O592  1  0.91272404  0.48058651  0.17287882  1
  O  O593  1  0.91118509  0.48209517  0.42133415  1
  O  O594  1  0.91213324  0.48198965  0.67190170  1
  O  O595  1  0.91422583  0.48073511  0.92254304  1
  O  O596  1  0.91012935  0.81391343  0.17264691  1
  O  O597  1  0.91086795  0.81470649  0.42143365  1
  O  O598  1  0.91054683  0.81512374  0.67261122  1
  O  O599  1  0.91081632  0.81524552  0.92262736  1
  O  O600  1  0.08881995  0.18615643  0.07760372  1
  O  O601  1  0.08909665  0.18395835  0.32838595  1
  O  O602  1  0.08938914  0.18423436  0.57861479  1
  O  O603  1  0.08841391  0.18472822  0.82828806  1
  O  O604  1  0.08595081  0.51725232  0.07779200  1
  O  O605  1  0.08522891  0.51857057  0.32654280  1
  O  O606  1  0.08480858  0.51867870  0.57674695  1
  O  O607  1  0.08532483  0.51730510  0.82744202  1
  O  O608  1  0.08920424  0.85235884  0.07697654  1
  O  O609  1  0.08759804  0.85223184  0.32634636  1
  O  O610  1  0.08507906  0.85167226  0.57747289  1
  O  O611  1  0.08617833  0.85246663  0.82779398  1
  O  O612  1  0.58622580  0.18426354  0.07732933  1
  O  O613  1  0.58884827  0.18577836  0.32627829  1
  O  O614  1  0.58600076  0.18552540  0.57777048  1
  O  O615  1  0.58772838  0.18574722  0.82706810  1
  O  O616  1  0.58626102  0.51834414  0.07715126  1
  O  O617  1  0.58755153  0.51770538  0.32728496  1
  O  O618  1  0.58832747  0.51655171  0.57771317  1
  O  O619  1  0.58625880  0.51761608  0.82800121  1
  O  O620  1  0.58940762  0.85201399  0.07851729  1
  O  O621  1  0.58872804  0.85092027  0.32749091  1
  O  O622  1  0.58590452  0.85243896  0.57803562  1
  O  O623  1  0.58776912  0.85084610  0.82823858  1
  O  O624  1  0.33608942  0.18459106  0.04821578  1
  O  O625  1  0.33591652  0.18571018  0.29738898  1
  O  O626  1  0.33648641  0.18495677  0.54855965  1
  O  O627  1  0.33629668  0.18469980  0.79735242  1
  O  O628  1  0.33906271  0.51744353  0.04669639  1
  O  O629  1  0.33928849  0.51706507  0.29652851  1
  O  O630  1  0.33863419  0.51810066  0.54683524  1
  O  O631  1  0.33835865  0.51693851  0.79810441  1
  O  O632  1  0.33569532  0.85304943  0.04817721  1
  O  O633  1  0.33529493  0.85194724  0.29780913  1
  O  O634  1  0.33798477  0.85202708  0.54816370  1
  O  O635  1  0.33744092  0.85257452  0.79771944  1
  O  O636  1  0.83984932  0.18445557  0.04779073  1
  O  O637  1  0.83745398  0.18573361  0.29674100  1
  O  O638  1  0.83724608  0.18398625  0.54732912  1
  O  O639  1  0.83770438  0.18570506  0.79889121  1
  O  O640  1  0.83950317  0.51854929  0.04786143  1
  O  O641  1  0.83890587  0.51752132  0.29713272  1
  O  O642  1  0.83624907  0.51806127  0.54795943  1
  O  O643  1  0.83898324  0.51853219  0.79797861  1
  O  O644  1  0.83941868  0.85212766  0.04637700  1
  O  O645  1  0.83479599  0.85115012  0.29713154  1
  O  O646  1  0.83890282  0.85320204  0.54795165  1
  O  O647  1  0.83913899  0.85098726  0.79767701  1
  O  O648  1  0.16012083  0.14865056  0.20297680  1
  O  O649  1  0.16079975  0.14947979  0.45385713  1
  O  O650  1  0.16179712  0.14950521  0.70333562  1
  O  O651  1  0.16162163  0.14890757  0.95285315  1
  O  O652  1  0.16330165  0.48174764  0.20092388  1
  O  O653  1  0.16289988  0.48112437  0.45174665  1
  O  O654  1  0.16390968  0.48160821  0.70265151  1
  O  O655  1  0.16254614  0.48092594  0.95196885  1
  O  O656  1  0.16232683  0.81503624  0.20276979  1
  O  O657  1  0.16210200  0.81465886  0.45273349  1
  O  O658  1  0.16299867  0.81478687  0.70214674  1
  O  O659  1  0.16236792  0.81583212  0.95260840  1
  O  O660  1  0.66181485  0.14900957  0.20118484  1
  O  O661  1  0.66449115  0.14828276  0.45227246  1
  O  O662  1  0.66318775  0.14980170  0.70314244  1
  O  O663  1  0.66412536  0.14874020  0.95246047  1
  O  O664  1  0.66337001  0.48071174  0.20200919  1
  O  O665  1  0.66118319  0.48267499  0.45248378  1
  O  O666  1  0.66020202  0.48003014  0.70258430  1
  O  O667  1  0.66244649  0.48169269  0.95159073  1
  O  O668  1  0.66316807  0.81554086  0.20201469  1
  O  O669  1  0.66110060  0.81411245  0.45248372  1
  O  O670  1  0.66440482  0.81527006  0.70324855  1
  O  O671  1  0.66291525  0.81429641  0.95201952  1
