# generated using pymatgen
data_Na2MnFe(PO4)2
_symmetry_space_group_name_H-M   'P 1'
_cell_length_a   21.08001529
_cell_length_b   18.93134070
_cell_length_c   20.03923050
_cell_angle_alpha   89.99961824
_cell_angle_beta   90.00504563
_cell_angle_gamma   89.99847824
_symmetry_Int_Tables_number   1
_chemical_formula_structural   Na2MnFe(PO4)2
_chemical_formula_sum   'Na96 Mn48 Fe48 P96 O384'
_cell_volume   7997.11482673
_cell_formula_units_Z   48
loop_
 _symmetry_equiv_pos_site_id
 _symmetry_equiv_pos_as_xyz
  1  'x, y, z'
loop_
 _atom_site_type_symbol
 _atom_site_label
 _atom_site_symmetry_multiplicity
 _atom_site_fract_x
 _atom_site_fract_y
 _atom_site_fract_z
 _atom_site_occupancy
  Na  Na0  1  -0.00012791  -0.00027609  -0.00184974  1
  Na  Na1  1  0.00054209  0.00041965  0.24983139  1
  Na  Na2  1  -0.00026744  -0.00035382  0.50116498  1
  Na  Na3  1  -0.00020945  -0.00070204  0.75063474  1
  Na  Na4  1  -0.00165990  0.33321748  -0.00081221  1
  Na  Na5  1  -0.00263594  0.33275715  0.25036248  1
  Na  Na6  1  -0.00179650  0.33256573  0.50020274  1
  Na  Na7  1  0.00047656  0.33409647  0.74988833  1
  Na  Na8  1  0.00162488  0.66708509  0.00072151  1
  Na  Na9  1  -0.00049374  0.66664334  0.25082357  1
  Na  Na10  1  0.00104340  0.66724827  0.49934671  1
  Na  Na11  1  0.00198332  0.66703998  0.74986289  1
  Na  Na12  1  0.50117315  -0.00002775  -0.00020078  1
  Na  Na13  1  0.50259328  0.00047420  0.24959970  1
  Na  Na14  1  0.50059637  -0.00004445  0.50103450  1
  Na  Na15  1  0.50079821  0.00059521  0.74992486  1
  Na  Na16  1  0.49953283  0.33297839  -0.00032361  1
  Na  Na17  1  0.50212398  0.33379291  0.24836090  1
  Na  Na18  1  0.50028266  0.33317631  0.50075977  1
  Na  Na19  1  0.49823120  0.33250407  0.75086683  1
  Na  Na20  1  0.50102665  0.66729671  -0.00124639  1
  Na  Na21  1  0.50111769  0.66721868  0.24873726  1
  Na  Na22  1  0.49924265  0.66657828  0.50125794  1
  Na  Na23  1  0.50016406  0.66707697  0.75089195  1
  Na  Na24  1  0.24898739  -0.00006396  0.12563263  1
  Na  Na25  1  0.24973767  0.00036680  0.37484798  1
  Na  Na26  1  0.25086699  0.00100451  0.62440202  1
  Na  Na27  1  0.24732241  -0.00128401  0.87530994  1
  Na  Na28  1  0.24955840  0.33368874  0.12443802  1
  Na  Na29  1  0.24957998  0.33317469  0.37616556  1
  Na  Na30  1  0.25029074  0.33327281  0.62562018  1
  Na  Na31  1  0.24913249  0.33298881  0.87441132  1
  Na  Na32  1  0.24863352  0.66590931  0.12464393  1
  Na  Na33  1  0.24968626  0.66646036  0.37593768  1
  Na  Na34  1  0.25053314  0.66731209  0.62544627  1
  Na  Na35  1  0.24930011  0.66650136  0.87370451  1
  Na  Na36  1  0.74914759  -0.00044003  0.12591803  1
  Na  Na37  1  0.74822415  -0.00125058  0.37464796  1
  Na  Na38  1  0.75153850  0.00048072  0.62514764  1
  Na  Na39  1  0.74941100  -0.00067077  0.87424787  1
  Na  Na40  1  0.75209418  0.33336865  0.12540301  1
  Na  Na41  1  0.75170390  0.33334794  0.37503745  1
  Na  Na42  1  0.75210486  0.33360519  0.62444088  1
  Na  Na43  1  0.75204441  0.33328562  0.87424840  1
  Na  Na44  1  0.74974769  0.66710486  0.12524383  1
  Na  Na45  1  0.75031830  0.66743422  0.37562741  1
  Na  Na46  1  0.74806005  0.66644477  0.62563254  1
  Na  Na47  1  0.74654849  0.66556315  0.87400850  1
  Na  Na48  1  -0.00039935  0.16689357  -0.00146987  1
  Na  Na49  1  -0.00101622  0.16763665  0.24999676  1
  Na  Na50  1  0.00028913  0.16711676  0.50146575  1
  Na  Na51  1  -0.00149383  0.16836882  0.75020423  1
  Na  Na52  1  0.00059770  0.49930335  0.00003770  1
  Na  Na53  1  -0.00063437  0.50010139  0.25003769  1
  Na  Na54  1  0.00136345  0.49914550  0.49912584  1
  Na  Na55  1  0.00083732  0.49952769  0.75010516  1
  Na  Na56  1  0.00056992  0.83292788  -0.00032584  1
  Na  Na57  1  -0.00225304  0.83392681  0.25065105  1
  Na  Na58  1  -0.00203105  0.83372760  0.50031265  1
  Na  Na59  1  0.00197347  0.83234892  0.74986764  1
  Na  Na60  1  0.50145500  0.16742599  0.00004066  1
  Na  Na61  1  0.50308795  0.16645287  0.24938456  1
  Na  Na62  1  0.49974647  0.16759641  0.50069426  1
  Na  Na63  1  0.49947907  0.16771725  0.74990657  1
  Na  Na64  1  0.49950669  0.49942427  -0.00118663  1
  Na  Na65  1  0.50135432  0.49933142  0.24861753  1
  Na  Na66  1  0.49967017  0.50019072  0.50112872  1
  Na  Na67  1  0.49791615  0.50056954  0.75133284  1
  Na  Na68  1  0.50100962  0.83297784  -0.00036894  1
  Na  Na69  1  0.50168161  0.83264380  0.24868369  1
  Na  Na70  1  0.50028788  0.83304016  0.50114741  1
  Na  Na71  1  0.50109827  0.83262035  0.75033688  1
  Na  Na72  1  0.24882461  0.16774713  0.12518724  1
  Na  Na73  1  0.25013728  0.16685459  0.37476485  1
  Na  Na74  1  0.24984381  0.16747312  0.62539285  1
  Na  Na75  1  0.24945299  0.16747593  0.87475824  1
  Na  Na76  1  0.24809720  0.50035897  0.12451773  1
  Na  Na77  1  0.24782070  0.50042946  0.37628008  1
  Na  Na78  1  0.25018330  0.49931064  0.62559768  1
  Na  Na79  1  0.24903632  0.49977019  0.87351226  1
  Na  Na80  1  0.24967965  0.83279156  0.12520919  1
  Na  Na81  1  0.25125067  0.83243755  0.37584831  1
  Na  Na82  1  0.25013907  0.83314004  0.62489833  1
  Na  Na83  1  0.24832469  0.83321617  0.87472864  1
  Na  Na84  1  0.75012897  0.16745055  0.12540373  1
  Na  Na85  1  0.74965549  0.16754763  0.37480416  1
  Na  Na86  1  0.75220421  0.16711834  0.62449550  1
  Na  Na87  1  0.75135896  0.16746992  0.87453570  1
  Na  Na88  1  0.75082981  0.49926302  0.12560816  1
  Na  Na89  1  0.75112320  0.49930927  0.37498544  1
  Na  Na90  1  0.75115779  0.49903565  0.62493665  1
  Na  Na91  1  0.74958094  0.50001716  0.87454231  1
  Na  Na92  1  0.75001809  0.83305604  0.12541461  1
  Na  Na93  1  0.75006394  0.83274358  0.37547727  1
  Na  Na94  1  0.74862672  0.83277045  0.62570702  1
  Na  Na95  1  0.74715605  0.83437584  0.87362775  1
  Mn  Mn96  1  0.39340788  0.91684117  0.37666967  1
  Mn  Mn97  1  0.14157862  0.91593336  0.24771443  1
  Mn  Mn98  1  0.89187644  0.58375354  0.12701625  1
  Mn  Mn99  1  0.35803904  0.41636332  0.50216285  1
  Mn  Mn100  1  0.64235851  0.58307367  0.24786715  1
  Mn  Mn101  1  0.39235677  0.24976186  0.12668108  1
  Mn  Mn102  1  0.64168396  0.58271556  0.49782745  1
  Mn  Mn103  1  0.14244280  0.58324184  0.74704145  1
  Mn  Mn104  1  0.85719008  0.74953720  0.75224867  1
  Mn  Mn105  1  0.60840019  0.08356353  0.87226340  1
  Mn  Mn106  1  0.39208572  0.91737489  0.87741157  1
  Mn  Mn107  1  0.35808853  0.74944005  0.25245086  1
  Mn  Mn108  1  0.85755829  0.08306356  0.00243617  1
  Mn  Mn109  1  0.39151148  0.58315925  0.12637222  1
  Mn  Mn110  1  0.85783819  0.08302928  0.25291002  1
  Mn  Mn111  1  0.39215236  0.91660809  0.62775559  1
  Mn  Mn112  1  0.14117261  0.25077235  0.24782795  1
  Mn  Mn113  1  0.60780927  0.41653779  0.87259573  1
  Mn  Mn114  1  0.89214058  0.58318669  0.37771300  1
  Mn  Mn115  1  0.89232540  0.91600978  0.87692944  1
  Mn  Mn116  1  0.35796992  0.41700385  0.25240971  1
  Mn  Mn117  1  0.10729073  0.75064596  0.12315407  1
  Mn  Mn118  1  0.89294190  0.58352162  0.62721824  1
  Mn  Mn119  1  0.60883043  0.41695041  0.12174673  1
  Mn  Mn120  1  0.39217099  0.91696707  0.12666319  1
  Mn  Mn121  1  0.60901372  0.08352355  0.12217891  1
  Mn  Mn122  1  0.10718062  0.41596036  0.37291177  1
  Mn  Mn123  1  0.10743304  0.08361836  0.87227930  1
  Mn  Mn124  1  0.60853991  0.74954381  0.12190533  1
  Mn  Mn125  1  0.89153103  0.91767984  0.37756722  1
  Mn  Mn126  1  0.35693147  0.08322150  0.00255124  1
  Mn  Mn127  1  0.10744003  0.08340238  0.62282074  1
  Mn  Mn128  1  0.10763505  0.75077719  0.37318488  1
  Mn  Mn129  1  0.39235444  0.58312929  0.37691033  1
  Mn  Mn130  1  0.35825479  0.08351148  0.25260113  1
  Mn  Mn131  1  0.10717151  0.08337020  0.12255455  1
  Mn  Mn132  1  0.85728842  0.74964611  0.00124529  1
  Mn  Mn133  1  0.60743574  0.41695667  0.62378607  1
  Mn  Mn134  1  0.64282808  0.25035733  0.49813599  1
  Mn  Mn135  1  0.14245994  0.91717852  0.49775184  1
  Mn  Mn136  1  0.60821211  0.08367946  0.62285684  1
  Mn  Mn137  1  0.39334306  0.25009630  0.37664791  1
  Mn  Mn138  1  0.85837719  0.08294409  0.50225930  1
  Mn  Mn139  1  0.10683410  0.41603021  0.12270359  1
  Mn  Mn140  1  0.89214796  0.58357815  0.87707845  1
  Mn  Mn141  1  0.39216367  0.58307891  0.87772975  1
  Mn  Mn142  1  0.35748624  0.08315840  0.75293318  1
  Mn  Mn143  1  0.64252460  0.91665906  0.49797844  1
  Fe  Fe144  1  0.60628065  0.74949263  0.62363388  1
  Fe  Fe145  1  0.60695857  0.75008725  0.87307857  1
  Fe  Fe146  1  0.10777926  0.08366548  0.37399527  1
  Fe  Fe147  1  0.10727974  0.41687237  0.62314622  1
  Fe  Fe148  1  0.60773002  0.74988357  0.37385950  1
  Fe  Fe149  1  0.89170392  0.91689147  0.12617697  1
  Fe  Fe150  1  0.14340596  0.58324592  0.49898342  1
  Fe  Fe151  1  0.39203545  0.25047283  0.62718446  1
  Fe  Fe152  1  0.89225944  0.24926519  0.12643292  1
  Fe  Fe153  1  0.35804790  0.75006336  0.50211119  1
  Fe  Fe154  1  0.14203073  0.58329336  0.24853587  1
  Fe  Fe155  1  0.64273349  0.91667251  0.99793320  1
  Fe  Fe156  1  0.64393565  0.25021867  0.24852619  1
  Fe  Fe157  1  0.64361933  0.25030947  0.74837622  1
  Fe  Fe158  1  0.85737757  0.08352306  0.75118873  1
  Fe  Fe159  1  0.60862441  0.41662052  0.37348781  1
  Fe  Fe160  1  0.85691938  0.74930490  0.50263014  1
  Fe  Fe161  1  0.10759778  0.74961632  0.62261943  1
  Fe  Fe162  1  0.14211770  0.58317627  0.99817950  1
  Fe  Fe163  1  0.10704295  0.41662332  0.87315517  1
  Fe  Fe164  1  0.35641962  0.41647110  0.75183789  1
  Fe  Fe165  1  0.89281028  0.91637691  0.62725858  1
  Fe  Fe166  1  0.85769157  0.41763405  0.50221080  1
  Fe  Fe167  1  0.64231571  0.58237653  0.74774312  1
  Fe  Fe168  1  0.85799636  0.41672982  0.75136255  1
  Fe  Fe169  1  0.35653241  0.74970703  0.00089173  1
  Fe  Fe170  1  0.89343874  0.24986226  0.62727573  1
  Fe  Fe171  1  0.85684252  0.74975480  0.25173303  1
  Fe  Fe172  1  0.35667016  0.75037331  0.75204437  1
  Fe  Fe173  1  0.14269671  0.24966215  0.74816912  1
  Fe  Fe174  1  0.89297551  0.25059258  0.87645632  1
  Fe  Fe175  1  0.85742088  0.41726706  0.00118491  1
  Fe  Fe176  1  0.14168455  0.91617197  0.99865808  1
  Fe  Fe177  1  0.14251185  0.91691680  0.74767531  1
  Fe  Fe178  1  0.60797555  0.08358762  0.37364767  1
  Fe  Fe179  1  0.10836387  0.74939638  0.87327752  1
  Fe  Fe180  1  0.39206832  0.58301912  0.62694832  1
  Fe  Fe181  1  0.64297435  0.91664333  0.24836450  1
  Fe  Fe182  1  0.39236041  0.24977672  0.87712472  1
  Fe  Fe183  1  0.89261649  0.24934364  0.37705321  1
  Fe  Fe184  1  0.85712529  0.41714109  0.25196574  1
  Fe  Fe185  1  0.64287674  0.91718561  0.74785424  1
  Fe  Fe186  1  0.64257094  0.58294073  0.99823077  1
  Fe  Fe187  1  0.64393725  0.25038397  0.99773697  1
  Fe  Fe188  1  0.14268188  0.25000976  0.49869094  1
  Fe  Fe189  1  0.35797302  0.08355921  0.50099492  1
  Fe  Fe190  1  0.14168674  0.25056689  0.99779903  1
  Fe  Fe191  1  0.35576043  0.41694767  0.00115344  1
  P  P192  1  0.05173884  0.25014790  0.10892036  1
  P  P193  1  0.05303438  0.24924170  0.36155484  1
  P  P194  1  0.05419945  0.25098693  0.61106912  1
  P  P195  1  0.05402725  0.25118451  0.86023640  1
  P  P196  1  0.05439954  0.58327151  0.11047959  1
  P  P197  1  0.05509595  0.58333531  0.36076314  1
  P  P198  1  0.05439315  0.58305247  0.60920206  1
  P  P199  1  0.05489382  0.58297190  0.86108752  1
  P  P200  1  0.05155251  0.91670457  0.10922512  1
  P  P201  1  0.05304346  0.91763487  0.36037199  1
  P  P202  1  0.05344491  0.91587924  0.61124137  1
  P  P203  1  0.05547574  0.91553972  0.86023286  1
  P  P204  1  0.55600696  0.25042803  0.10970009  1
  P  P205  1  0.55492611  0.25038626  0.35946859  1
  P  P206  1  0.55345755  0.25058934  0.61162126  1
  P  P207  1  0.55437048  0.25036276  0.86026333  1
  P  P208  1  0.55387481  0.58311891  0.10818885  1
  P  P209  1  0.55345004  0.58340022  0.35998832  1
  P  P210  1  0.55292474  0.58358731  0.61188781  1
  P  P211  1  0.55528637  0.58361816  0.86054400  1
  P  P212  1  0.55548465  0.91653124  0.10985405  1
  P  P213  1  0.55467050  0.91625786  0.35965522  1
  P  P214  1  0.55480601  0.91601725  0.61158834  1
  P  P215  1  0.55519999  0.91622892  0.86021949  1
  P  P216  1  0.44722861  0.08346605  0.13990211  1
  P  P217  1  0.44856688  0.08348217  0.39047760  1
  P  P218  1  0.44531240  0.08435476  0.63921447  1
  P  P219  1  0.44678616  0.08441221  0.89030663  1
  P  P220  1  0.44553708  0.41668828  0.13825358  1
  P  P221  1  0.44902204  0.41662137  0.38997311  1
  P  P222  1  0.44545377  0.41667439  0.64112913  1
  P  P223  1  0.44433898  0.41549548  0.88940952  1
  P  P224  1  0.44539495  0.74982111  0.13817563  1
  P  P225  1  0.44795350  0.74995416  0.39062258  1
  P  P226  1  0.44529857  0.74919023  0.64023211  1
  P  P227  1  0.44576988  0.75036707  0.88933472  1
  P  P228  1  0.94602119  0.08317337  0.13954875  1
  P  P229  1  0.94822841  0.08416252  0.39057264  1
  P  P230  1  0.94601469  0.08316217  0.64098073  1
  P  P231  1  0.94493572  0.08408342  0.88819019  1
  P  P232  1  0.94417333  0.41597614  0.13922640  1
  P  P233  1  0.94440231  0.41587361  0.38954319  1
  P  P234  1  0.94643074  0.41651087  0.63935623  1
  P  P235  1  0.94581060  0.41643680  0.88901336  1
  P  P236  1  0.94540961  0.75084364  0.14056327  1
  P  P237  1  0.94444902  0.75015633  0.39003239  1
  P  P238  1  0.94688294  0.75009524  0.63918949  1
  P  P239  1  0.94848859  0.74951574  0.88982957  1
  P  P240  1  0.19525384  0.08368682  0.23593745  1
  P  P241  1  0.19742561  0.08470902  0.48486663  1
  P  P242  1  0.19627755  0.08357010  0.73501625  1
  P  P243  1  0.19577739  0.08363585  0.98507534  1
  P  P244  1  0.19611171  0.41733522  0.23501304  1
  P  P245  1  0.19514699  0.41632705  0.48702008  1
  P  P246  1  0.19537619  0.41568439  0.73561955  1
  P  P247  1  0.19601691  0.41668300  0.98411939  1
  P  P248  1  0.19651043  0.74893115  0.23522561  1
  P  P249  1  0.19694807  0.74926391  0.48662605  1
  P  P250  1  0.19570068  0.75056939  0.73520503  1
  P  P251  1  0.19663142  0.74963670  0.98459414  1
  P  P252  1  0.69558679  0.08361773  0.23659257  1
  P  P253  1  0.69686806  0.08358248  0.48447352  1
  P  P254  1  0.69801271  0.08425962  0.73489436  1
  P  P255  1  0.69710760  0.08365172  0.98469217  1
  P  P256  1  0.69695048  0.41577665  0.23623139  1
  P  P257  1  0.69767026  0.41645745  0.48477948  1
  P  P258  1  0.69812568  0.41597553  0.73509813  1
  P  P259  1  0.69833475  0.41621648  0.98466112  1
  P  P260  1  0.69624629  0.75046974  0.23635930  1
  P  P261  1  0.69585041  0.74965794  0.48613124  1
  P  P262  1  0.69396325  0.74970453  0.73562113  1
  P  P263  1  0.69601185  0.75001786  0.98389186  1
  P  P264  1  0.30248242  0.25100989  0.01351320  1
  P  P265  1  0.30299337  0.25052176  0.26527780  1
  P  P266  1  0.30321199  0.24940697  0.51541370  1
  P  P267  1  0.30385244  0.25079700  0.76452691  1
  P  P268  1  0.30158222  0.58305815  0.01395063  1
  P  P269  1  0.30165322  0.58293195  0.26544270  1
  P  P270  1  0.30329209  0.58357680  0.51581306  1
  P  P271  1  0.30486957  0.58339097  0.76346038  1
  P  P272  1  0.30141579  0.91567397  0.01475210  1
  P  P273  1  0.30315342  0.91646530  0.26538203  1
  P  P274  1  0.30405218  0.91698671  0.51468398  1
  P  P275  1  0.30190630  0.91593228  0.76500682  1
  P  P276  1  0.80447019  0.25089103  0.01400077  1
  P  P277  1  0.80473408  0.25041884  0.26452588  1
  P  P278  1  0.80596919  0.25079856  0.51450006  1
  P  P279  1  0.80515626  0.25019478  0.76382040  1
  P  P280  1  0.80183860  0.58291684  0.01450644  1
  P  P281  1  0.80351255  0.58363381  0.26511316  1
  P  P282  1  0.80320796  0.58341579  0.51540013  1
  P  P283  1  0.80221618  0.58274016  0.76455719  1
  P  P284  1  0.80226596  0.91620423  0.01512572  1
  P  P285  1  0.80322429  0.91585882  0.26403240  1
  P  P286  1  0.80409276  0.91555458  0.51615571  1
  P  P287  1  0.80356784  0.91691449  0.76343558  1
  O  O288  1  0.05550432  0.25069714  0.18568005  1
  O  O289  1  0.05794497  0.24995393  0.43822717  1
  O  O290  1  0.05888615  0.25043385  0.68776970  1
  O  O291  1  0.05848499  0.25053470  0.93696349  1
  O  O292  1  0.05820848  0.58313477  0.18726586  1
  O  O293  1  0.05974149  0.58344180  0.43749592  1
  O  O294  1  0.05689698  0.58307815  0.68610121  1
  O  O295  1  0.05858922  0.58302102  0.93789225  1
  O  O296  1  0.05548500  0.91645778  0.18595125  1
  O  O297  1  0.05638791  0.91659997  0.43719181  1
  O  O298  1  0.05843852  0.91637150  0.68792743  1
  O  O299  1  0.05936777  0.91624731  0.93706165  1
  O  O300  1  0.56073985  0.25065557  0.18642145  1
  O  O301  1  0.55716652  0.25060339  0.43635087  1
  O  O302  1  0.55901193  0.25042490  0.68824564  1
  O  O303  1  0.55990430  0.25062504  0.93691843  1
  O  O304  1  0.55755562  0.58300676  0.18498692  1
  O  O305  1  0.55563214  0.58330035  0.43686196  1
  O  O306  1  0.55782153  0.58256598  0.68856802  1
  O  O307  1  0.55969317  0.58244004  0.93728853  1
  O  O308  1  0.55994746  0.91642997  0.18663064  1
  O  O309  1  0.55679504  0.91625066  0.43654269  1
  O  O310  1  0.55908094  0.91719339  0.68835927  1
  O  O311  1  0.55928077  0.91701912  0.93702793  1
  O  O312  1  0.44326712  0.08355506  0.06309781  1
  O  O313  1  0.44491797  0.08350543  0.31373066  1
  O  O314  1  0.44115516  0.08377441  0.56244481  1
  O  O315  1  0.44342535  0.08369860  0.81347386  1
  O  O316  1  0.44009832  0.41677389  0.06154866  1
  O  O317  1  0.44516965  0.41669416  0.31325973  1
  O  O318  1  0.44313774  0.41659309  0.56424776  1
  O  O319  1  0.43997612  0.41627639  0.81267971  1
  O  O320  1  0.44024150  0.74975168  0.06141628  1
  O  O321  1  0.44433279  0.74985307  0.31383144  1
  O  O322  1  0.44080693  0.74994140  0.56343795  1
  O  O323  1  0.44069264  0.75047281  0.81264996  1
  O  O324  1  0.94353381  0.08306017  0.06271545  1
  O  O325  1  0.94431376  0.08361420  0.31384564  1
  O  O326  1  0.94361520  0.08305616  0.56416928  1
  O  O327  1  0.94088828  0.08342197  0.81147363  1
  O  O328  1  0.94052403  0.41717845  0.06236228  1
  O  O329  1  0.94038733  0.41699058  0.31270523  1
  O  O330  1  0.94184838  0.41735433  0.56266489  1
  O  O331  1  0.94117153  0.41733240  0.81226225  1
  O  O332  1  0.94274359  0.74983371  0.06373273  1
  O  O333  1  0.94003123  0.74987242  0.31324983  1
  O  O334  1  0.94165419  0.74952033  0.56255158  1
  O  O335  1  0.94402452  0.74935865  0.81314565  1
  O  O336  1  0.19326248  0.08398446  0.06190286  1
  O  O337  1  0.19097376  0.08382085  0.31272469  1
  O  O338  1  0.19343536  0.08405195  0.56158837  1
  O  O339  1  0.19328846  0.08367353  0.81178706  1
  O  O340  1  0.19257137  0.41632267  0.06085650  1
  O  O341  1  0.19302042  0.41612674  0.31180155  1
  O  O342  1  0.19161179  0.41607981  0.56380802  1
  O  O343  1  0.19075260  0.41631928  0.81228100  1
  O  O344  1  0.19321529  0.74973294  0.06131505  1
  O  O345  1  0.19355096  0.75000234  0.31201238  1
  O  O346  1  0.19198668  0.75015978  0.56331602  1
  O  O347  1  0.19132318  0.74963255  0.81192413  1
  O  O348  1  0.69483377  0.08377736  0.06152276  1
  O  O349  1  0.69175770  0.08347966  0.31335638  1
  O  O350  1  0.69391018  0.08388788  0.56129918  1
  O  O351  1  0.69453503  0.08421435  0.81159920  1
  O  O352  1  0.69535364  0.41607619  0.06140584  1
  O  O353  1  0.69239327  0.41637821  0.31290668  1
  O  O354  1  0.69324726  0.41635960  0.56145145  1
  O  O355  1  0.69422322  0.41596190  0.81173834  1
  O  O356  1  0.69423512  0.74990821  0.06075982  1
  O  O357  1  0.69179511  0.74989076  0.31306864  1
  O  O358  1  0.69055053  0.74943556  0.56276947  1
  O  O359  1  0.69027255  0.74992665  0.81241056  1
  O  O360  1  0.30643968  0.25054212  0.18847513  1
  O  O361  1  0.30724075  0.25013940  0.43872274  1
  O  O362  1  0.30846083  0.25024995  0.68782058  1
  O  O363  1  0.30734452  0.25002960  0.93686005  1
  O  O364  1  0.30554455  0.58280750  0.18872093  1
  O  O365  1  0.30660965  0.58300556  0.43906054  1
  O  O366  1  0.30849576  0.58335394  0.68671087  1
  O  O367  1  0.30531990  0.58306763  0.93722722  1
  O  O368  1  0.30630406  0.91664093  0.18857216  1
  O  O369  1  0.30715195  0.91672605  0.43795366  1
  O  O370  1  0.30600187  0.91660992  0.68832896  1
  O  O371  1  0.30528196  0.91636330  0.93804600  1
  O  O372  1  0.80886091  0.24937196  0.18777342  1
  O  O373  1  0.80942635  0.24946412  0.43768043  1
  O  O374  1  0.80965361  0.25042852  0.68705947  1
  O  O375  1  0.80903908  0.25020677  0.93726884  1
  O  O376  1  0.80605649  0.58367744  0.18831714  1
  O  O377  1  0.80617299  0.58357690  0.43865166  1
  O  O378  1  0.80648204  0.58347080  0.68793611  1
  O  O379  1  0.80549136  0.58353586  0.93779030  1
  O  O380  1  0.80779262  0.91676571  0.18736894  1
  O  O381  1  0.80638437  0.91652160  0.43927845  1
  O  O382  1  0.80874227  0.91590678  0.68681395  1
  O  O383  1  0.80630832  0.91633412  0.93835934  1
  O  O384  1  0.23206450  0.25092253  0.03728910  1
  O  O385  1  0.23325471  0.25042413  0.29017813  1
  O  O386  1  0.23300332  0.25026712  0.53971027  1
  O  O387  1  0.23329466  0.25015114  0.78781053  1
  O  O388  1  0.23150008  0.58311834  0.03854430  1
  O  O389  1  0.23176717  0.58320887  0.29029342  1
  O  O390  1  0.23326375  0.58314074  0.54060408  1
  O  O391  1  0.23481612  0.58325019  0.78771565  1
  O  O392  1  0.23131901  0.91614396  0.03944235  1
  O  O393  1  0.23352225  0.91615413  0.29064184  1
  O  O394  1  0.23431231  0.91716177  0.53993609  1
  O  O395  1  0.23175884  0.91610545  0.78911629  1
  O  O396  1  0.73416824  0.25038338  0.03791657  1
  O  O397  1  0.73445465  0.25010662  0.28849265  1
  O  O398  1  0.73595203  0.25046051  0.53890100  1
  O  O399  1  0.73476517  0.25040262  0.78766727  1
  O  O400  1  0.73192655  0.58303506  0.03954947  1
  O  O401  1  0.73401636  0.58332708  0.29082294  1
  O  O402  1  0.73356959  0.58290618  0.54071461  1
  O  O403  1  0.73196613  0.58279568  0.78850013  1
  O  O404  1  0.73212322  0.91628722  0.03928708  1
  O  O405  1  0.73302274  0.91601682  0.28820160  1
  O  O406  1  0.73443730  0.91639725  0.54141308  1
  O  O407  1  0.73302207  0.91670315  0.78662102  1
  O  O408  1  0.26520101  0.08381895  0.21158436  1
  O  O409  1  0.26760562  0.08385512  0.46053624  1
  O  O410  1  0.26591479  0.08386159  0.70983122  1
  O  O411  1  0.26528026  0.08334553  0.95919926  1
  O  O412  1  0.26560158  0.41697688  0.20944832  1
  O  O413  1  0.26504786  0.41647108  0.46215169  1
  O  O414  1  0.26587338  0.41647989  0.71226297  1
  O  O415  1  0.26605309  0.41675576  0.95930183  1
  O  O416  1  0.26603246  0.74917220  0.20971688  1
  O  O417  1  0.26736994  0.74936427  0.46301466  1
  O  O418  1  0.26615158  0.75000304  0.71171340  1
  O  O419  1  0.26668979  0.74954386  0.95962879  1
  O  O420  1  0.76546883  0.08372987  0.21187522  1
  O  O421  1  0.76656909  0.08306616  0.45940140  1
  O  O422  1  0.76802336  0.08408026  0.71009977  1
  O  O423  1  0.76657097  0.08327816  0.95884239  1
  O  O424  1  0.76726827  0.41644794  0.21238705  1
  O  O425  1  0.76792977  0.41659074  0.46101128  1
  O  O426  1  0.76827024  0.41609892  0.71064618  1
  O  O427  1  0.76822821  0.41655870  0.95942769  1
  O  O428  1  0.76644623  0.75001564  0.21215173  1
  O  O429  1  0.76632248  0.74992152  0.46293326  1
  O  O430  1  0.76411037  0.74960126  0.71147676  1
  O  O431  1  0.76545491  0.75006022  0.95762895  1
  O  O432  1  0.01545612  0.08371403  0.16539589  1
  O  O433  1  0.01800558  0.08358157  0.41583055  1
  O  O434  1  0.01565640  0.08367547  0.66642852  1
  O  O435  1  0.01496172  0.08359627  0.91243145  1
  O  O436  1  0.01411168  0.41642513  0.16382046  1
  O  O437  1  0.01449221  0.41604814  0.41352974  1
  O  O438  1  0.01684154  0.41697802  0.66302614  1
  O  O439  1  0.01621554  0.41633734  0.91258542  1
  O  O440  1  0.01504788  0.75036603  0.16597476  1
  O  O441  1  0.01466731  0.75047343  0.41369377  1
  O  O442  1  0.01738107  0.74945687  0.66250788  1
  O  O443  1  0.01857759  0.74972708  0.91401578  1
  O  O444  1  0.51715710  0.08346318  0.16409696  1
  O  O445  1  0.51867562  0.08373904  0.41506302  1
  O  O446  1  0.51533708  0.08399814  0.66357106  1
  O  O447  1  0.51655590  0.08417663  0.91507851  1
  O  O448  1  0.51588067  0.41670218  0.16137343  1
  O  O449  1  0.51896729  0.41652617  0.41490166  1
  O  O450  1  0.51505391  0.41659829  0.66681670  1
  O  O451  1  0.51461726  0.41620360  0.91303213  1
  O  O452  1  0.51565510  0.74969799  0.16156148  1
  O  O453  1  0.51801439  0.74992450  0.41526216  1
  O  O454  1  0.51570369  0.74974950  0.66384469  1
  O  O455  1  0.51634479  0.75006525  0.91236012  1
  O  O456  1  0.48576119  0.25017484  0.08616097  1
  O  O457  1  0.48540087  0.25020649  0.33353148  1
  O  O458  1  0.48302108  0.25078910  0.58829420  1
  O  O459  1  0.48375824  0.25023668  0.83744492  1
  O  O460  1  0.48409334  0.58335672  0.08343608  1
  O  O461  1  0.48416348  0.58336142  0.33349095  1
  O  O462  1  0.48262857  0.58321111  0.58807198  1
  O  O463  1  0.48495726  0.58330678  0.83715515  1
  O  O464  1  0.48539346  0.91662348  0.08585249  1
  O  O465  1  0.48521474  0.91643754  0.33355543  1
  O  O466  1  0.48481398  0.91622389  0.58745615  1
  O  O467  1  0.48510349  0.91695751  0.83604021  1
  O  O468  1  0.98162027  0.24984623  0.08461782  1
  O  O469  1  0.98277109  0.24997777  0.33753904  1
  O  O470  1  0.98362278  0.24993482  0.58788265  1
  O  O471  1  0.98359694  0.25121324  0.83667954  1
  O  O472  1  0.98436353  0.58334599  0.08611802  1
  O  O473  1  0.98486161  0.58316558  0.33717617  1
  O  O474  1  0.98481774  0.58312380  0.58372499  1
  O  O475  1  0.98507852  0.58302386  0.83608915  1
  O  O476  1  0.98149873  0.91649143  0.08463683  1
  O  O477  1  0.98332791  0.91731973  0.33536506  1
  O  O478  1  0.98303947  0.91650938  0.58769432  1
  O  O479  1  0.98533473  0.91606106  0.83620299  1
  O  O480  1  0.08545603  0.31515447  0.07582728  1
  O  O481  1  0.08639021  0.31414905  0.32777435  1
  O  O482  1  0.08685564  0.31621225  0.57750198  1
  O  O483  1  0.08757644  0.31612492  0.82708538  1
  O  O484  1  0.08824830  0.64826479  0.07756109  1
  O  O485  1  0.08841850  0.64839964  0.32743805  1
  O  O486  1  0.08890606  0.64808014  0.57708011  1
  O  O487  1  0.08883936  0.64798550  0.82823812  1
  O  O488  1  0.08550169  0.98168532  0.07646101  1
  O  O489  1  0.08695115  0.98292198  0.32843256  1
  O  O490  1  0.08682045  0.98100530  0.57795206  1
  O  O491  1  0.08925910  0.98052567  0.82693853  1
  O  O492  1  0.58937733  0.31535230  0.07601752  1
  O  O493  1  0.58931855  0.31543877  0.32711411  1
  O  O494  1  0.58671800  0.31563247  0.57818066  1
  O  O495  1  0.58750996  0.31538200  0.82649181  1
  O  O496  1  0.58832397  0.64801020  0.07580556  1
  O  O497  1  0.58779102  0.64874255  0.32817454  1
  O  O498  1  0.58606316  0.64885396  0.57881424  1
  O  O499  1  0.58841266  0.64889467  0.82769738  1
  O  O500  1  0.58930194  0.98146827  0.07671386  1
  O  O501  1  0.58931814  0.98131033  0.32769013  1
  O  O502  1  0.58846595  0.98084446  0.57816340  1
  O  O503  1  0.58937795  0.98097221  0.82683589  1
  O  O504  1  0.41351520  0.01830570  0.17252128  1
  O  O505  1  0.41472184  0.01840230  0.42323181  1
  O  O506  1  0.41173077  0.01931397  0.67256094  1
  O  O507  1  0.41277445  0.01926242  0.92280014  1
  O  O508  1  0.41250212  0.35160768  0.17180848  1
  O  O509  1  0.41491533  0.35163881  0.42268062  1
  O  O510  1  0.41088369  0.35163355  0.67322243  1
  O  O511  1  0.41114925  0.35020761  0.92237522  1
  O  O512  1  0.41227722  0.68466159  0.17163186  1
  O  O513  1  0.41379056  0.68498215  0.42332527  1
  O  O514  1  0.41208898  0.68401549  0.67327431  1
  O  O515  1  0.41240316  0.68532650  0.92278832  1
  O  O516  1  0.91197284  0.01791102  0.17182855  1
  O  O517  1  0.91388191  0.01922554  0.42314897  1
  O  O518  1  0.91180833  0.01805118  0.67329696  1
  O  O519  1  0.91127917  0.01915104  0.92141957  1
  O  O520  1  0.91067997  0.35050782  0.17151306  1
  O  O521  1  0.91088539  0.35073564  0.42223024  1
  O  O522  1  0.91323009  0.35127022  0.67248826  1
  O  O523  1  0.91220640  0.35133499  0.92188497  1
  O  O524  1  0.91089036  0.68598025  0.17325548  1
  O  O525  1  0.91117034  0.68505900  0.42352723  1
  O  O526  1  0.91361485  0.68508596  0.67289120  1
  O  O527  1  0.91486289  0.68450194  0.92288902  1
  O  O528  1  0.16161842  0.01847964  0.20307160  1
  O  O529  1  0.16300515  0.01998856  0.45194669  1
  O  O530  1  0.16240580  0.01831327  0.70261847  1
  O  O531  1  0.16128808  0.01842187  0.95336080  1
  O  O532  1  0.16162628  0.35249906  0.20216329  1
  O  O533  1  0.16147865  0.35117979  0.45401808  1
  O  O534  1  0.16231458  0.35051998  0.70235095  1
  O  O535  1  0.16195311  0.35173774  0.95123040  1
  O  O536  1  0.16226922  0.68372859  0.20329234  1
  O  O537  1  0.16365594  0.68402609  0.45378808  1
  O  O538  1  0.16210237  0.68563939  0.70168012  1
  O  O539  1  0.16266704  0.68460765  0.95175272  1
  O  O540  1  0.66203710  0.01840348  0.20369079  1
  O  O541  1  0.66226519  0.01865715  0.45238395  1
  O  O542  1  0.66395764  0.01924140  0.70231609  1
  O  O543  1  0.66262845  0.01853755  0.95279086  1
  O  O544  1  0.66414866  0.35051340  0.20287198  1
  O  O545  1  0.66411710  0.35146717  0.45161668  1
  O  O546  1  0.66455093  0.35086613  0.70216996  1
  O  O547  1  0.66457471  0.35111669  0.95185378  1
  O  O548  1  0.66270101  0.68550536  0.20292343  1
  O  O549  1  0.66261654  0.68469916  0.45245914  1
  O  O550  1  0.66027311  0.68449335  0.70277390  1
  O  O551  1  0.66136987  0.68495048  0.95200461  1
  O  O552  1  0.33575678  0.31632903  0.04636775  1
  O  O553  1  0.33694967  0.31557672  0.29795156  1
  O  O554  1  0.33743125  0.31424553  0.54854930  1
  O  O555  1  0.33681569  0.31604336  0.79777543  1
  O  O556  1  0.33541247  0.64812274  0.04662866  1
  O  O557  1  0.33581368  0.64793985  0.29804498  1
  O  O558  1  0.33737416  0.64862872  0.54827483  1
  O  O559  1  0.33825610  0.64859333  0.79646041  1
  O  O560  1  0.33540209  0.98067492  0.04763178  1
  O  O561  1  0.33720016  0.98161798  0.29779569  1
  O  O562  1  0.33811336  0.98222536  0.54690095  1
  O  O563  1  0.33555854  0.98097347  0.79812526  1
  O  O564  1  0.83776794  0.31610306  0.04688483  1
  O  O565  1  0.83820299  0.31561284  0.29723605  1
  O  O566  1  0.83962366  0.31613492  0.54694528  1
  O  O567  1  0.83878448  0.31516310  0.79715697  1
  O  O568  1  0.83576558  0.64799077  0.04720870  1
  O  O569  1  0.83759455  0.64876343  0.29742351  1
  O  O570  1  0.83706086  0.64858871  0.54804764  1
  O  O571  1  0.83569101  0.64778530  0.79790263  1
  O  O572  1  0.83613026  0.98114848  0.04822318  1
  O  O573  1  0.83647459  0.98096483  0.29769940  1
  O  O574  1  0.83898837  0.98034613  0.54839602  1
  O  O575  1  0.83653318  0.98215139  0.79656641  1
  O  O576  1  0.41357220  0.14861809  0.17263993  1
  O  O577  1  0.41431360  0.14839987  0.42316253  1
  O  O578  1  0.41186087  0.14959548  0.67202025  1
  O  O579  1  0.41277815  0.14966976  0.92241947  1
  O  O580  1  0.41250327  0.48185924  0.17180015  1
  O  O581  1  0.41489491  0.48158392  0.42268772  1
  O  O582  1  0.41104580  0.48177743  0.67321227  1
  O  O583  1  0.41047040  0.48033458  0.92283578  1
  O  O584  1  0.41237307  0.81493127  0.17163030  1
  O  O585  1  0.41398211  0.81498965  0.42336668  1
  O  O586  1  0.41171064  0.81411099  0.67380735  1
  O  O587  1  0.41266243  0.81534049  0.92296375  1
  O  O588  1  0.91153230  0.14827945  0.17159578  1
  O  O589  1  0.91439471  0.14927277  0.42306078  1
  O  O590  1  0.91146381  0.14829889  0.67293307  1
  O  O591  1  0.91186012  0.14955848  0.92090501  1
  O  O592  1  0.91012494  0.48074243  0.17258745  1
  O  O593  1  0.91082064  0.48078681  0.42316874  1
  O  O594  1  0.91280756  0.48126369  0.67316994  1
  O  O595  1  0.91250048  0.48131537  0.92288336  1
  O  O596  1  0.91123160  0.81616264  0.17244273  1
  O  O597  1  0.91067151  0.81503760  0.42310862  1
  O  O598  1  0.91390350  0.81520902  0.67273749  1
  O  O599  1  0.91453164  0.81453033  0.92249504  1
  O  O600  1  0.08589603  0.18525093  0.07631422  1
  O  O601  1  0.08599667  0.18396097  0.32842371  1
  O  O602  1  0.08794027  0.18623368  0.57746152  1
  O  O603  1  0.08729946  0.18613186  0.82661280  1
  O  O604  1  0.08807013  0.51832816  0.07721537  1
  O  O605  1  0.08850507  0.51829326  0.32743976  1
  O  O606  1  0.08873672  0.51788487  0.57720405  1
  O  O607  1  0.08856221  0.51776418  0.82825166  1
  O  O608  1  0.08580886  0.85176618  0.07651428  1
  O  O609  1  0.08697991  0.85253937  0.32759699  1
  O  O610  1  0.08650079  0.85082563  0.57776704  1
  O  O611  1  0.08891710  0.85032574  0.82748751  1
  O  O612  1  0.58974454  0.18550779  0.07647797  1
  O  O613  1  0.58946480  0.18523245  0.32757003  1
  O  O614  1  0.58666285  0.18566318  0.57789968  1
  O  O615  1  0.58776371  0.18547362  0.82658097  1
  O  O616  1  0.58804150  0.51812650  0.07549567  1
  O  O617  1  0.58804554  0.51824850  0.32808080  1
  O  O618  1  0.58645669  0.51875346  0.57826686  1
  O  O619  1  0.58880373  0.51869359  0.82680678  1
  O  O620  1  0.58909175  0.85157404  0.07661590  1
  O  O621  1  0.58892380  0.85100141  0.32754285  1
  O  O622  1  0.58804625  0.85053489  0.57904681  1
  O  O623  1  0.58849104  0.85084788  0.82756882  1
  O  O624  1  0.33580260  0.18610039  0.04730908  1
  O  O625  1  0.33716482  0.18547264  0.29772479  1
  O  O626  1  0.33673488  0.18412539  0.54806053  1
  O  O627  1  0.33753653  0.18607843  0.79823534  1
  O  O628  1  0.33514518  0.51780901  0.04668558  1
  O  O629  1  0.33542915  0.51788280  0.29840408  1
  O  O630  1  0.33753519  0.51857442  0.54847320  1
  O  O631  1  0.33836443  0.51828182  0.79644919  1
  O  O632  1  0.33512069  0.85039268  0.04704852  1
  O  O633  1  0.33753807  0.85143448  0.29759262  1
  O  O634  1  0.33793350  0.85178609  0.54731254  1
  O  O635  1  0.33562930  0.85081322  0.79762032  1
  O  O636  1  0.83800820  0.18599128  0.04767787  1
  O  O637  1  0.83842205  0.18563965  0.29830084  1
  O  O638  1  0.83997786  0.18605891  0.54785913  1
  O  O639  1  0.83841661  0.18504860  0.79707347  1
  O  O640  1  0.83589755  0.51785099  0.04686162  1
  O  O641  1  0.83796129  0.51853318  0.29719212  1
  O  O642  1  0.83768604  0.51828481  0.54744209  1
  O  O643  1  0.83600370  0.51764924  0.79716710  1
  O  O644  1  0.83614698  0.85117656  0.04781381  1
  O  O645  1  0.83664635  0.85079897  0.29701789  1
  O  O646  1  0.83804089  0.85024007  0.54826149  1
  O  O647  1  0.83654277  0.85191329  0.79744102  1
  O  O648  1  0.16141736  0.14866665  0.20288617  1
  O  O649  1  0.16383632  0.15010428  0.45236997  1
  O  O650  1  0.16205089  0.14873464  0.70280798  1
  O  O651  1  0.16157483  0.14876314  0.95264795  1
  O  O652  1  0.16191814  0.48265303  0.20319246  1
  O  O653  1  0.16137464  0.48152076  0.45447492  1
  O  O654  1  0.16173387  0.48053931  0.70202830  1
  O  O655  1  0.16202597  0.48180122  0.95157427  1
  O  O656  1  0.16219356  0.81388617  0.20247336  1
  O  O657  1  0.16366337  0.81423841  0.45297565  1
  O  O658  1  0.16241573  0.81569541  0.70209470  1
  O  O659  1  0.16260011  0.81472704  0.95203415  1
  O  O660  1  0.66211350  0.14888867  0.20373429  1
  O  O661  1  0.66282807  0.14866796  0.45207919  1
  O  O662  1  0.66438186  0.14953901  0.70225378  1
  O  O663  1  0.66318329  0.14895152  0.95241275  1
  O  O664  1  0.66333069  0.48064017  0.20272814  1
  O  O665  1  0.66380229  0.48140577  0.45176761  1
  O  O666  1  0.66420898  0.48106406  0.70234673  1
  O  O667  1  0.66397328  0.48117668  0.95234849  1
  O  O668  1  0.66297574  0.81556892  0.20316170  1
  O  O669  1  0.66254991  0.81464323  0.45257659  1
  O  O670  1  0.66032668  0.81472937  0.70251176  1
  O  O671  1  0.66139736  0.81516086  0.95203538  1
