# generated using pymatgen
data_Na2MnFe(PO4)2
_symmetry_space_group_name_H-M   'P 1'
_cell_length_a   21.08756282
_cell_length_b   18.93964851
_cell_length_c   20.04583575
_cell_angle_alpha   90.00047498
_cell_angle_beta   90.00053610
_cell_angle_gamma   89.99945731
_symmetry_Int_Tables_number   1
_chemical_formula_structural   Na2MnFe(PO4)2
_chemical_formula_sum   'Na96 Mn48 Fe48 P96 O384'
_cell_volume   8006.12694031
_cell_formula_units_Z   48
loop_
 _symmetry_equiv_pos_site_id
 _symmetry_equiv_pos_as_xyz
  1  'x, y, z'
loop_
 _atom_site_type_symbol
 _atom_site_label
 _atom_site_symmetry_multiplicity
 _atom_site_fract_x
 _atom_site_fract_y
 _atom_site_fract_z
 _atom_site_occupancy
  Na  Na0  1  -0.00120595  -0.00037910  -0.00088677  1
  Na  Na1  1  -0.00093765  -0.00045490  0.24935409  1
  Na  Na2  1  -0.00006675  0.00011791  0.50025203  1
  Na  Na3  1  -0.00139226  -0.00045310  0.75124235  1
  Na  Na4  1  0.00065377  0.33371917  -0.00060395  1
  Na  Na5  1  -0.00024098  0.33276712  0.25092164  1
  Na  Na6  1  0.00179708  0.33354854  0.50010838  1
  Na  Na7  1  0.00001760  0.33306952  0.74975851  1
  Na  Na8  1  -0.00154221  0.66652311  -0.00059169  1
  Na  Na9  1  -0.00124343  0.66656702  0.25116652  1
  Na  Na10  1  -0.00017876  0.66706551  0.50070497  1
  Na  Na11  1  -0.00022498  0.66707689  0.74846758  1
  Na  Na12  1  0.50188836  0.00054212  -0.00004565  1
  Na  Na13  1  0.49882794  -0.00048809  0.25128349  1
  Na  Na14  1  0.49830871  -0.00073773  0.50018314  1
  Na  Na15  1  0.50047545  -0.00045052  0.74925225  1
  Na  Na16  1  0.49851947  0.33348113  -0.00066489  1
  Na  Na17  1  0.49959662  0.33368090  0.25034695  1
  Na  Na18  1  0.50034934  0.33464814  0.49884560  1
  Na  Na19  1  0.49774616  0.33287977  0.75046373  1
  Na  Na20  1  0.50191912  0.66676476  0.00080231  1
  Na  Na21  1  0.50273829  0.66732132  0.24931610  1
  Na  Na22  1  0.50244844  0.66670512  0.50105741  1
  Na  Na23  1  0.50215824  0.66677493  0.74957212  1
  Na  Na24  1  0.25077894  -0.00063894  0.12426602  1
  Na  Na25  1  0.25410058  0.00056582  0.37572137  1
  Na  Na26  1  0.25368573  0.00036880  0.62527222  1
  Na  Na27  1  0.25071767  -0.00113812  0.87449821  1
  Na  Na28  1  0.24996680  0.33366374  0.12454918  1
  Na  Na29  1  0.24709220  0.33219794  0.37511076  1
  Na  Na30  1  0.25044189  0.33364249  0.62528926  1
  Na  Na31  1  0.25116139  0.33328649  0.87485732  1
  Na  Na32  1  0.25029948  0.66722500  0.12466974  1
  Na  Na33  1  0.24875464  0.66616120  0.37472609  1
  Na  Na34  1  0.24789573  0.66598132  0.62459678  1
  Na  Na35  1  0.24840408  0.66586291  0.87529478  1
  Na  Na36  1  0.74952819  0.00025585  0.12529271  1
  Na  Na37  1  0.74878137  -0.00045590  0.37380992  1
  Na  Na38  1  0.74837323  -0.00036578  0.62562759  1
  Na  Na39  1  0.74928399  0.00058281  0.87550378  1
  Na  Na40  1  0.75114412  0.33364767  0.12493095  1
  Na  Na41  1  0.75076680  0.33398270  0.37439033  1
  Na  Na42  1  0.74966474  0.33367477  0.62524798  1
  Na  Na43  1  0.75076580  0.33408685  0.87551436  1
  Na  Na44  1  0.74991641  0.66655313  0.12455000  1
  Na  Na45  1  0.74913715  0.66660389  0.37467324  1
  Na  Na46  1  0.74923191  0.66691328  0.62546893  1
  Na  Na47  1  0.74990912  0.66709459  0.87596359  1
  Na  Na48  1  -0.00046544  0.16722983  -0.00042204  1
  Na  Na49  1  0.00120666  0.16685510  0.24969447  1
  Na  Na50  1  0.00141379  0.16686684  0.50073581  1
  Na  Na51  1  0.00022508  0.16690308  0.75092461  1
  Na  Na52  1  -0.00269681  0.50109558  -0.00078979  1
  Na  Na53  1  -0.00133293  0.50022716  0.25144734  1
  Na  Na54  1  0.00044675  0.49943495  0.50060789  1
  Na  Na55  1  -0.00080597  0.50027508  0.74884960  1
  Na  Na56  1  0.00053516  0.83226712  -0.00110254  1
  Na  Na57  1  -0.00201953  0.83357601  0.25016540  1
  Na  Na58  1  -0.00024076  0.83260285  0.49977929  1
  Na  Na59  1  -0.00091837  0.83308219  0.74975345  1
  Na  Na60  1  0.50106701  0.16596397  0.00026351  1
  Na  Na61  1  0.50036211  0.16647130  0.25110799  1
  Na  Na62  1  0.49926541  0.16734037  0.49877833  1
  Na  Na63  1  0.49927589  0.16702659  0.74883171  1
  Na  Na64  1  0.49840140  0.50015085  0.00014926  1
  Na  Na65  1  0.49944091  0.49998898  0.24943421  1
  Na  Na66  1  0.49967009  0.50054895  0.50009202  1
  Na  Na67  1  0.49956289  0.49967229  0.75022427  1
  Na  Na68  1  0.50331499  0.83276508  -0.00048434  1
  Na  Na69  1  0.50078678  0.83350991  0.25044573  1
  Na  Na70  1  0.50071331  0.83345609  0.50065996  1
  Na  Na71  1  0.50226522  0.83316886  0.75057579  1
  Na  Na72  1  0.24929682  0.16742135  0.12382573  1
  Na  Na73  1  0.25127271  0.16616504  0.37506570  1
  Na  Na74  1  0.24993542  0.16749648  0.62575491  1
  Na  Na75  1  0.24897723  0.16757294  0.87418916  1
  Na  Na76  1  0.25198306  0.49969316  0.12537491  1
  Na  Na77  1  0.25106470  0.49968674  0.37508763  1
  Na  Na78  1  0.24929899  0.50108480  0.62428665  1
  Na  Na79  1  0.25304638  0.49918961  0.87581559  1
  Na  Na80  1  0.24876251  0.83378098  0.12460846  1
  Na  Na81  1  0.24974534  0.83339326  0.37487804  1
  Na  Na82  1  0.25130279  0.83301665  0.62556748  1
  Na  Na83  1  0.24982169  0.83342554  0.87410994  1
  Na  Na84  1  0.75112531  0.16608628  0.12520686  1
  Na  Na85  1  0.74854473  0.16783902  0.37382867  1
  Na  Na86  1  0.75009012  0.16627014  0.62579263  1
  Na  Na87  1  0.75074786  0.16611590  0.87588734  1
  Na  Na88  1  0.74988319  0.50024695  0.12358175  1
  Na  Na89  1  0.75049325  0.49932562  0.37496129  1
  Na  Na90  1  0.74998153  0.49957407  0.62476297  1
  Na  Na91  1  0.75079569  0.49970727  0.87600630  1
  Na  Na92  1  0.74967370  0.83294091  0.12580655  1
  Na  Na93  1  0.74954428  0.83267008  0.37432557  1
  Na  Na94  1  0.74830556  0.83260377  0.62559232  1
  Na  Na95  1  0.74702448  0.83405795  0.87565431  1
  Mn  Mn96  1  0.89168871  0.58329162  0.62740917  1
  Mn  Mn97  1  0.14259376  0.91739237  0.24787400  1
  Mn  Mn98  1  0.64237882  0.25099619  0.24698282  1
  Mn  Mn99  1  0.64231253  0.24956258  0.99801930  1
  Mn  Mn100  1  0.35867204  0.08388579  0.75282423  1
  Mn  Mn101  1  0.85738774  0.08329189  0.50230264  1
  Mn  Mn102  1  0.85804962  0.08352667  0.25238535  1
  Mn  Mn103  1  0.14279297  0.91663381  0.74730774  1
  Mn  Mn104  1  0.35876307  0.74995348  0.25267238  1
  Mn  Mn105  1  0.60811490  0.41760993  0.37238554  1
  Mn  Mn106  1  0.10943129  0.08281001  0.37245279  1
  Mn  Mn107  1  0.10825591  0.41805267  0.87237512  1
  Mn  Mn108  1  0.89229839  0.25051383  0.87699188  1
  Mn  Mn109  1  0.35814598  0.74981968  0.50199638  1
  Mn  Mn110  1  0.89056947  0.91726548  0.62716051  1
  Mn  Mn111  1  0.60660850  0.41632938  0.87262417  1
  Mn  Mn112  1  0.89192940  0.24954152  0.62706389  1
  Mn  Mn113  1  0.64156429  0.25072755  0.74762135  1
  Mn  Mn114  1  0.39203268  0.24935246  0.12728983  1
  Mn  Mn115  1  0.85732337  0.75107739  0.00217433  1
  Mn  Mn116  1  0.10807528  0.08254965  0.62328616  1
  Mn  Mn117  1  0.85827184  0.41588838  0.00281555  1
  Mn  Mn118  1  0.89296014  0.24966111  0.37767790  1
  Mn  Mn119  1  0.10672340  0.74977244  0.12315141  1
  Mn  Mn120  1  0.35860496  0.74888096  0.75250985  1
  Mn  Mn121  1  0.64188422  0.91637104  0.24738247  1
  Mn  Mn122  1  0.89111633  0.91590486  0.87738122  1
  Mn  Mn123  1  0.14320196  0.91683521  0.49789464  1
  Mn  Mn124  1  0.64228299  0.58282043  0.49741826  1
  Mn  Mn125  1  0.89203783  0.58310433  0.37761797  1
  Mn  Mn126  1  0.14233590  0.58299195  0.24752229  1
  Mn  Mn127  1  0.35719485  0.41648914  0.50221185  1
  Mn  Mn128  1  0.10740623  0.08268900  0.87276231  1
  Mn  Mn129  1  0.35815241  0.08327062  0.00178467  1
  Mn  Mn130  1  0.35801662  0.74988684  0.00141987  1
  Mn  Mn131  1  0.10734004  0.41739321  0.12313810  1
  Mn  Mn132  1  0.39239465  0.58350619  0.62753405  1
  Mn  Mn133  1  0.39307597  0.58401993  0.12743296  1
  Mn  Mn134  1  0.64236762  0.58328346  0.99732391  1
  Mn  Mn135  1  0.89171098  0.91696386  0.37789712  1
  Mn  Mn136  1  0.60681067  0.08303201  0.37333068  1
  Mn  Mn137  1  0.60765853  0.08432848  0.62194469  1
  Mn  Mn138  1  0.10782092  0.08266529  0.12239106  1
  Mn  Mn139  1  0.14154687  0.58325751  0.99769751  1
  Mn  Mn140  1  0.39284105  0.91649622  0.12627676  1
  Mn  Mn141  1  0.10811491  0.41665025  0.62328353  1
  Mn  Mn142  1  0.10728124  0.75051538  0.62284522  1
  Mn  Mn143  1  0.39158857  0.25060363  0.37740567  1
  Fe  Fe144  1  0.60750845  0.08357181  0.87350307  1
  Fe  Fe145  1  0.64224516  0.25000805  0.49878666  1
  Fe  Fe146  1  0.85643342  0.74923827  0.25191568  1
  Fe  Fe147  1  0.64202545  0.91714726  0.49823938  1
  Fe  Fe148  1  0.14364923  0.25062064  0.74840781  1
  Fe  Fe149  1  0.64297372  0.58254171  0.24830202  1
  Fe  Fe150  1  0.60797328  0.74944183  0.62313489  1
  Fe  Fe151  1  0.85583073  0.74978556  0.75186815  1
  Fe  Fe152  1  0.39302364  0.91505202  0.37708030  1
  Fe  Fe153  1  0.60832934  0.75014102  0.12317692  1
  Fe  Fe154  1  0.14326472  0.24982325  0.24805099  1
  Fe  Fe155  1  0.14268533  0.24997113  0.99813915  1
  Fe  Fe156  1  0.10694136  0.74957359  0.87283262  1
  Fe  Fe157  1  0.85685639  0.08305054  0.00213698  1
  Fe  Fe158  1  0.14270660  0.58279772  0.74900030  1
  Fe  Fe159  1  0.89343047  0.25023812  0.12693293  1
  Fe  Fe160  1  0.64265360  0.91752630  0.99874093  1
  Fe  Fe161  1  0.35764535  0.41730375  0.75101300  1
  Fe  Fe162  1  0.39329616  0.58439519  0.37619813  1
  Fe  Fe163  1  0.39428193  0.91619786  0.87668072  1
  Fe  Fe164  1  0.35724364  0.41659884  0.00185736  1
  Fe  Fe165  1  0.85740481  0.41633188  0.50175486  1
  Fe  Fe166  1  0.14328726  0.24993591  0.49867120  1
  Fe  Fe167  1  0.60707842  0.41616158  0.12337920  1
  Fe  Fe168  1  0.60740380  0.41642443  0.62375751  1
  Fe  Fe169  1  0.60741789  0.74974423  0.87304226  1
  Fe  Fe170  1  0.35768816  0.08389640  0.50222995  1
  Fe  Fe171  1  0.85626721  0.75009890  0.50150712  1
  Fe  Fe172  1  0.39275356  0.58415107  0.87633190  1
  Fe  Fe173  1  0.85657582  0.08331738  0.75184242  1
  Fe  Fe174  1  0.64263416  0.58294701  0.74936693  1
  Fe  Fe175  1  0.60760587  0.08370800  0.12362681  1
  Fe  Fe176  1  0.10729956  0.41733620  0.37296325  1
  Fe  Fe177  1  0.85683411  0.41679585  0.75136637  1
  Fe  Fe178  1  0.14194005  0.91666383  0.99773871  1
  Fe  Fe179  1  0.35799520  0.08381652  0.25094542  1
  Fe  Fe180  1  0.39423280  0.91612427  0.62685737  1
  Fe  Fe181  1  0.85728374  0.41707829  0.25151505  1
  Fe  Fe182  1  0.14248574  0.58329938  0.49748432  1
  Fe  Fe183  1  0.89163374  0.58335384  0.12753460  1
  Fe  Fe184  1  0.64247069  0.91670209  0.74854549  1
  Fe  Fe185  1  0.60769718  0.74975570  0.37358152  1
  Fe  Fe186  1  0.89227179  0.58360319  0.87512188  1
  Fe  Fe187  1  0.89214963  0.91649966  0.12631478  1
  Fe  Fe188  1  0.10672867  0.75010020  0.37323613  1
  Fe  Fe189  1  0.39228438  0.24951475  0.87694290  1
  Fe  Fe190  1  0.39247424  0.25034531  0.62606782  1
  Fe  Fe191  1  0.35737804  0.41642671  0.25177071  1
  P  P192  1  0.05426866  0.25023744  0.11047844  1
  P  P193  1  0.05623858  0.25065602  0.36068041  1
  P  P194  1  0.05550403  0.24988924  0.61085673  1
  P  P195  1  0.05560154  0.25044981  0.86027881  1
  P  P196  1  0.05100283  0.58326217  0.11017152  1
  P  P197  1  0.05456027  0.58347867  0.36155581  1
  P  P198  1  0.05501292  0.58323338  0.61046076  1
  P  P199  1  0.05230091  0.58422089  0.85884339  1
  P  P200  1  0.05213754  0.91637568  0.10921841  1
  P  P201  1  0.05337741  0.91575724  0.35997948  1
  P  P202  1  0.05256405  0.91668793  0.60974098  1
  P  P203  1  0.05404084  0.91556877  0.86063844  1
  P  P204  1  0.55315249  0.25028472  0.11008800  1
  P  P205  1  0.55436162  0.25051676  0.36089718  1
  P  P206  1  0.55219314  0.25142546  0.60923659  1
  P  P207  1  0.55166104  0.24933415  0.86008221  1
  P  P208  1  0.55544445  0.58255351  0.11131482  1
  P  P209  1  0.55342227  0.58400096  0.35924928  1
  P  P210  1  0.55517364  0.58243716  0.61175233  1
  P  P211  1  0.55270601  0.58347186  0.85975287  1
  P  P212  1  0.55436192  0.91708913  0.10966366  1
  P  P213  1  0.55355824  0.91586413  0.36160887  1
  P  P214  1  0.55488085  0.91620915  0.61086476  1
  P  P215  1  0.55487014  0.91709230  0.86093877  1
  P  P216  1  0.44789085  0.08311468  0.14053705  1
  P  P217  1  0.44407700  0.08260505  0.38948707  1
  P  P218  1  0.44551787  0.08377837  0.63833534  1
  P  P219  1  0.44816139  0.08293620  0.88970716  1
  P  P220  1  0.44586850  0.41639643  0.13942315  1
  P  P221  1  0.44529635  0.41816811  0.38872086  1
  P  P222  1  0.44705980  0.41608997  0.64011515  1
  P  P223  1  0.44389682  0.41703525  0.88908397  1
  P  P224  1  0.44881200  0.75046739  0.13969041  1
  P  P225  1  0.44862442  0.74910507  0.39020160  1
  P  P226  1  0.44866234  0.75034363  0.64004713  1
  P  P227  1  0.44858007  0.74979584  0.88974489  1
  P  P228  1  0.94543600  0.08331310  0.13845271  1
  P  P229  1  0.94769701  0.08365633  0.39049014  1
  P  P230  1  0.94589718  0.08343713  0.64144546  1
  P  P231  1  0.94406136  0.08328802  0.88970550  1
  P  P232  1  0.94610543  0.41655788  0.14095417  1
  P  P233  1  0.94625615  0.41652157  0.38990264  1
  P  P234  1  0.94476242  0.41628815  0.63955817  1
  P  P235  1  0.94532242  0.41770222  0.88827846  1
  P  P236  1  0.94510189  0.75011028  0.14051447  1
  P  P237  1  0.94529824  0.74965562  0.38982062  1
  P  P238  1  0.94365202  0.75033477  0.63955960  1
  P  P239  1  0.94559787  0.74895582  0.88815835  1
  P  P240  1  0.19859066  0.08385752  0.23457292  1
  P  P241  1  0.19865336  0.08361399  0.48560704  1
  P  P242  1  0.19718711  0.08370072  0.73516827  1
  P  P243  1  0.19657343  0.08309603  0.98458549  1
  P  P244  1  0.19685988  0.41615740  0.23604688  1
  P  P245  1  0.19562536  0.41678555  0.48467131  1
  P  P246  1  0.19815977  0.41732041  0.73537946  1
  P  P247  1  0.19753526  0.41634741  0.98521133  1
  P  P248  1  0.19598608  0.75011531  0.23579173  1
  P  P249  1  0.19596841  0.74963042  0.48440295  1
  P  P250  1  0.19570696  0.74887616  0.73610931  1
  P  P251  1  0.19536593  0.75062037  0.98418676  1
  P  P252  1  0.69577637  0.08349443  0.23447736  1
  P  P253  1  0.69630383  0.08364826  0.48478786  1
  P  P254  1  0.69574689  0.08308093  0.73654864  1
  P  P255  1  0.69579832  0.08283988  0.98600736  1
  P  P256  1  0.69741508  0.41780644  0.23404413  1
  P  P257  1  0.69661890  0.41564065  0.48608597  1
  P  P258  1  0.69687223  0.41768964  0.73508162  1
  P  P259  1  0.69543824  0.41619214  0.98591159  1
  P  P260  1  0.69571159  0.74867621  0.23581585  1
  P  P261  1  0.69553973  0.75052755  0.48547699  1
  P  P262  1  0.69507545  0.74953204  0.73644411  1
  P  P263  1  0.69449215  0.75105170  0.98578698  1
  P  P264  1  0.30359538  0.25039883  0.01353708  1
  P  P265  1  0.30259140  0.25014226  0.26461779  1
  P  P266  1  0.30281023  0.24981407  0.51555588  1
  P  P267  1  0.30462446  0.25119898  0.76412372  1
  P  P268  1  0.30468781  0.58324073  0.01399374  1
  P  P269  1  0.30442114  0.58289180  0.26553194  1
  P  P270  1  0.30332386  0.58377739  0.51367938  1
  P  P271  1  0.30286485  0.58287212  0.76546798  1
  P  P272  1  0.30353421  0.91608905  0.01324795  1
  P  P273  1  0.30471941  0.91726068  0.26520986  1
  P  P274  1  0.30619674  0.91653222  0.51484615  1
  P  P275  1  0.30640339  0.91607747  0.76458023  1
  P  P276  1  0.80428832  0.24904239  0.01577803  1
  P  P277  1  0.80504462  0.25114629  0.26375568  1
  P  P278  1  0.80191689  0.25050406  0.51485384  1
  P  P279  1  0.80286809  0.25017853  0.76512963  1
  P  P280  1  0.80530755  0.58367691  0.01420896  1
  P  P281  1  0.80334578  0.58303750  0.26382719  1
  P  P282  1  0.80327488  0.58336921  0.51480397  1
  P  P283  1  0.80221649  0.58332694  0.76537274  1
  P  P284  1  0.80214979  0.91738645  0.01566289  1
  P  P285  1  0.80436669  0.91572323  0.26377446  1
  P  P286  1  0.80092714  0.91597007  0.51489424  1
  P  P287  1  0.80134500  0.91629518  0.76516865  1
  O  O288  1  0.05941489  0.25000152  0.18719660  1
  O  O289  1  0.06043906  0.24956692  0.43748571  1
  O  O290  1  0.06015414  0.25025674  0.68762632  1
  O  O291  1  0.05979356  0.25056835  0.93711170  1
  O  O292  1  0.05558651  0.58297624  0.18683480  1
  O  O293  1  0.05829061  0.58328294  0.43833340  1
  O  O294  1  0.05940339  0.58298339  0.68718897  1
  O  O295  1  0.05573872  0.58330551  0.93559571  1
  O  O296  1  0.05635868  0.91682104  0.18591603  1
  O  O297  1  0.05693396  0.91661414  0.43670718  1
  O  O298  1  0.05619867  0.91668472  0.68650717  1
  O  O299  1  0.05828622  0.91643892  0.93738043  1
  O  O300  1  0.55592479  0.25053653  0.18688836  1
  O  O301  1  0.55884391  0.25078841  0.43762357  1
  O  O302  1  0.55573319  0.25060546  0.68598436  1
  O  O303  1  0.55591537  0.24992406  0.93669937  1
  O  O304  1  0.55917362  0.58238470  0.18804940  1
  O  O305  1  0.55695792  0.58278221  0.43603918  1
  O  O306  1  0.55917443  0.58234972  0.68843621  1
  O  O307  1  0.55633236  0.58271404  0.93647377  1
  O  O308  1  0.55632244  0.91705546  0.18654625  1
  O  O309  1  0.55816675  0.91674610  0.43829472  1
  O  O310  1  0.55944436  0.91683936  0.68760530  1
  O  O311  1  0.55913040  0.91749040  0.93761777  1
  O  O312  1  0.44391594  0.08340969  0.06382040  1
  O  O313  1  0.44056401  0.08391916  0.31267746  1
  O  O314  1  0.44170133  0.08412472  0.56155866  1
  O  O315  1  0.44471013  0.08311691  0.81297861  1
  O  O316  1  0.44094990  0.41630053  0.06269938  1
  O  O317  1  0.44099990  0.41672429  0.31198372  1
  O  O318  1  0.44341210  0.41707217  0.56337489  1
  O  O319  1  0.44037355  0.41705105  0.81227278  1
  O  O320  1  0.44452068  0.75019609  0.06306826  1
  O  O321  1  0.44524458  0.74938928  0.31350511  1
  O  O322  1  0.44463267  0.74955802  0.56342953  1
  O  O323  1  0.44505512  0.74961816  0.81308877  1
  O  O324  1  0.94154150  0.08326951  0.06169237  1
  O  O325  1  0.94386273  0.08387826  0.31372246  1
  O  O326  1  0.94272895  0.08348496  0.56462946  1
  O  O327  1  0.93940507  0.08317041  0.81294086  1
  O  O328  1  0.94380391  0.41645533  0.06398956  1
  O  O329  1  0.94107650  0.41671636  0.31326028  1
  O  O330  1  0.94050773  0.41614608  0.56277624  1
  O  O331  1  0.94084814  0.41669812  0.81155259  1
  O  O332  1  0.94288304  0.75020896  0.06365493  1
  O  O333  1  0.94011145  0.74945843  0.31316018  1
  O  O334  1  0.93915013  0.75032108  0.56279603  1
  O  O335  1  0.94024314  0.75005478  0.81152906  1
  O  O336  1  0.19386011  0.08279247  0.06139716  1
  O  O337  1  0.19536203  0.08287033  0.31129507  1
  O  O338  1  0.19481436  0.08273085  0.56224858  1
  O  O339  1  0.19361841  0.08260911  0.81187130  1
  O  O340  1  0.19361769  0.41725418  0.06190814  1
  O  O341  1  0.19195769  0.41718280  0.31263549  1
  O  O342  1  0.19334165  0.41714203  0.56149124  1
  O  O343  1  0.19497563  0.41727885  0.81205512  1
  O  O344  1  0.19232139  0.75009129  0.06102329  1
  O  O345  1  0.19112859  0.74997893  0.31244247  1
  O  O346  1  0.19299844  0.75044807  0.56123451  1
  O  O347  1  0.19127429  0.74969358  0.81280513  1
  O  O348  1  0.69108312  0.08380626  0.06265694  1
  O  O349  1  0.69192501  0.08340348  0.31120444  1
  O  O350  1  0.69381601  0.08354032  0.56166523  1
  O  O351  1  0.69102254  0.08398980  0.81323419  1
  O  O352  1  0.69089526  0.41606780  0.06255944  1
  O  O353  1  0.69375703  0.41712604  0.31081237  1
  O  O354  1  0.69165441  0.41626699  0.56269092  1
  O  O355  1  0.69291541  0.41691307  0.81178607  1
  O  O356  1  0.69098621  0.74989659  0.06262356  1
  O  O357  1  0.69116585  0.74957961  0.31254392  1
  O  O358  1  0.69106515  0.74981275  0.56225548  1
  O  O359  1  0.69067556  0.74947184  0.81323366  1
  O  O360  1  0.30587811  0.25039677  0.18788191  1
  O  O361  1  0.30618158  0.25045531  0.43883020  1
  O  O362  1  0.30924154  0.25033492  0.68744990  1
  O  O363  1  0.30851938  0.24930630  0.93686654  1
  O  O364  1  0.30767621  0.58406135  0.18869872  1
  O  O365  1  0.30883450  0.58432085  0.43715820  1
  O  O366  1  0.30635611  0.58417796  0.68868444  1
  O  O367  1  0.30916533  0.58442470  0.93728741  1
  O  O368  1  0.30736490  0.91588737  0.18836189  1
  O  O369  1  0.31014405  0.91499035  0.43803999  1
  O  O370  1  0.31124939  0.91573369  0.68781140  1
  O  O371  1  0.30969309  0.91587825  0.93666499  1
  O  O372  1  0.80945108  0.25014685  0.18708082  1
  O  O373  1  0.80574975  0.25015299  0.43814900  1
  O  O374  1  0.80573847  0.25001560  0.68839836  1
  O  O375  1  0.80699463  0.25028758  0.93900206  1
  O  O376  1  0.80743403  0.58321225  0.18710517  1
  O  O377  1  0.80597128  0.58337559  0.43801765  1
  O  O378  1  0.80550697  0.58339868  0.68864233  1
  O  O379  1  0.80940055  0.58370044  0.93750519  1
  O  O380  1  0.80847311  0.91649875  0.18707657  1
  O  O381  1  0.80477524  0.91648986  0.43818176  1
  O  O382  1  0.80450517  0.91620182  0.68849332  1
  O  O383  1  0.80544461  0.91651459  0.93892285  1
  O  O384  1  0.23329903  0.25043364  0.03734566  1
  O  O385  1  0.23276084  0.24960617  0.28978212  1
  O  O386  1  0.23275104  0.25058982  0.54004553  1
  O  O387  1  0.23419579  0.25059624  0.78774217  1
  O  O388  1  0.23466287  0.58354861  0.03829121  1
  O  O389  1  0.23458070  0.58302517  0.29006170  1
  O  O390  1  0.23285714  0.58339943  0.53685690  1
  O  O391  1  0.23290655  0.58264811  0.79028586  1
  O  O392  1  0.23301511  0.91646639  0.03622366  1
  O  O393  1  0.23509307  0.91698435  0.29062932  1
  O  O394  1  0.23618635  0.91620267  0.53918516  1
  O  O395  1  0.23607281  0.91625660  0.78766735  1
  O  O396  1  0.73459906  0.24965258  0.04088364  1
  O  O397  1  0.73492828  0.25100986  0.28762915  1
  O  O398  1  0.73199795  0.25002377  0.53987361  1
  O  O399  1  0.73325083  0.25044853  0.79071720  1
  O  O400  1  0.73513731  0.58351829  0.03788974  1
  O  O401  1  0.73327932  0.58288197  0.28845241  1
  O  O402  1  0.73369281  0.58320669  0.54021327  1
  O  O403  1  0.73221120  0.58339171  0.79038799  1
  O  O404  1  0.73218193  0.91692375  0.04038029  1
  O  O405  1  0.73427669  0.91609054  0.28790612  1
  O  O406  1  0.73098154  0.91635955  0.53971470  1
  O  O407  1  0.73135224  0.91658611  0.79012365  1
  O  O408  1  0.26845266  0.08373911  0.20934059  1
  O  O409  1  0.26875732  0.08351334  0.46114742  1
  O  O410  1  0.26704476  0.08386773  0.71061451  1
  O  O411  1  0.26613439  0.08313395  0.95892341  1
  O  O412  1  0.26716596  0.41663599  0.21214582  1
  O  O413  1  0.26531782  0.41626549  0.45935915  1
  O  O414  1  0.26798229  0.41748524  0.70997439  1
  O  O415  1  0.26759554  0.41633123  0.96080438  1
  O  O416  1  0.26612121  0.75022960  0.21189022  1
  O  O417  1  0.26578381  0.74982426  0.45951897  1
  O  O418  1  0.26574520  0.74931125  0.71186074  1
  O  O419  1  0.26517941  0.74992998  0.95924378  1
  O  O420  1  0.76573932  0.08339472  0.21043424  1
  O  O421  1  0.76563986  0.08367931  0.45862573  1
  O  O422  1  0.76605104  0.08305812  0.71269360  1
  O  O423  1  0.76618316  0.08328364  0.96246554  1
  O  O424  1  0.76748101  0.41716326  0.20965152  1
  O  O425  1  0.76692253  0.41641117  0.46215233  1
  O  O426  1  0.76705942  0.41689105  0.71088344  1
  O  O427  1  0.76564402  0.41639036  0.96230863  1
  O  O428  1  0.76601644  0.74927574  0.21200675  1
  O  O429  1  0.76584837  0.74968190  0.46160144  1
  O  O430  1  0.76545678  0.74956994  0.71263512  1
  O  O431  1  0.76447941  0.75061812  0.96148355  1
  O  O432  1  0.01536333  0.08321791  0.16323411  1
  O  O433  1  0.01748621  0.08339855  0.41508725  1
  O  O434  1  0.01558616  0.08324862  0.66647183  1
  O  O435  1  0.01429619  0.08326587  0.91312439  1
  O  O436  1  0.01564586  0.41669181  0.16661430  1
  O  O437  1  0.01670620  0.41675929  0.41312478  1
  O  O438  1  0.01490769  0.41651606  0.66336441  1
  O  O439  1  0.01530465  0.41749878  0.91257948  1
  O  O440  1  0.01466057  0.74992834  0.16622166  1
  O  O441  1  0.01572454  0.74960971  0.41311784  1
  O  O442  1  0.01389218  0.75026775  0.66298128  1
  O  O443  1  0.01587545  0.74914805  0.91185233  1
  O  O444  1  0.51791652  0.08308262  0.16501095  1
  O  O445  1  0.51406649  0.08307238  0.41395040  1
  O  O446  1  0.51547465  0.08347798  0.66290201  1
  O  O447  1  0.51817304  0.08312365  0.91443463  1
  O  O448  1  0.51627380  0.41661111  0.16291597  1
  O  O449  1  0.51531970  0.41806756  0.41284644  1
  O  O450  1  0.51704186  0.41634721  0.66489451  1
  O  O451  1  0.51393231  0.41707782  0.91354857  1
  O  O452  1  0.51902183  0.75057496  0.16376441  1
  O  O453  1  0.51850199  0.74950475  0.41534902  1
  O  O454  1  0.51883160  0.74985705  0.66427820  1
  O  O455  1  0.51869107  0.74982985  0.91434525  1
  O  O456  1  0.48360836  0.24995400  0.08451785  1
  O  O457  1  0.48423742  0.25033966  0.33708225  1
  O  O458  1  0.48220102  0.25096671  0.58446244  1
  O  O459  1  0.48148896  0.24970646  0.83586074  1
  O  O460  1  0.48553910  0.58304191  0.08664920  1
  O  O461  1  0.48351865  0.58370206  0.33448646  1
  O  O462  1  0.48523526  0.58308950  0.58714234  1
  O  O463  1  0.48260917  0.58332266  0.83526529  1
  O  O464  1  0.48491834  0.91663441  0.08367374  1
  O  O465  1  0.48327583  0.91596775  0.33777633  1
  O  O466  1  0.48445427  0.91669118  0.58734787  1
  O  O467  1  0.48456634  0.91652256  0.83681137  1
  O  O468  1  0.98380265  0.25041389  0.08716536  1
  O  O469  1  0.98609521  0.24986279  0.33679434  1
  O  O470  1  0.98535300  0.25005326  0.58706679  1
  O  O471  1  0.98540669  0.25023594  0.83662408  1
  O  O472  1  0.98085924  0.58356732  0.08619513  1
  O  O473  1  0.98457278  0.58347961  0.33720317  1
  O  O474  1  0.98476903  0.58326932  0.58685301  1
  O  O475  1  0.98236508  0.58385266  0.83392660  1
  O  O476  1  0.98192098  0.91605487  0.08505272  1
  O  O477  1  0.98360093  0.91629101  0.33515906  1
  O  O478  1  0.98282056  0.91650616  0.58493061  1
  O  O479  1  0.98389667  0.91597977  0.83672840  1
  O  O480  1  0.08760503  0.31530607  0.07716262  1
  O  O481  1  0.08917180  0.31629185  0.32794579  1
  O  O482  1  0.08911742  0.31483233  0.57761544  1
  O  O483  1  0.08905242  0.31547121  0.82698338  1
  O  O484  1  0.08479542  0.64821929  0.07732469  1
  O  O485  1  0.08806326  0.64861036  0.32861150  1
  O  O486  1  0.08847626  0.64823819  0.57728367  1
  O  O487  1  0.08643349  0.64921018  0.82647707  1
  O  O488  1  0.08589956  0.98134665  0.07611437  1
  O  O489  1  0.08753409  0.98070576  0.32708966  1
  O  O490  1  0.08658806  0.98178233  0.57726309  1
  O  O491  1  0.08762015  0.98053350  0.82732272  1
  O  O492  1  0.58713635  0.31539626  0.07763186  1
  O  O493  1  0.58768861  0.31554994  0.32756562  1
  O  O494  1  0.58620688  0.31659822  0.57701976  1
  O  O495  1  0.58519141  0.31445918  0.82700241  1
  O  O496  1  0.58925014  0.64775412  0.07876661  1
  O  O497  1  0.58761788  0.64921436  0.32740241  1
  O  O498  1  0.58911794  0.64744406  0.57892601  1
  O  O499  1  0.58686370  0.64848948  0.82741594  1
  O  O500  1  0.58848538  0.98236511  0.07758023  1
  O  O501  1  0.58682717  0.98072580  0.32792921  1
  O  O502  1  0.58820036  0.98112532  0.57718762  1
  O  O503  1  0.58798688  0.98214793  0.82735286  1
  O  O504  1  0.41380031  0.01812283  0.17293446  1
  O  O505  1  0.41072220  0.01720974  0.42180489  1
  O  O506  1  0.41198234  0.01866482  0.67113993  1
  O  O507  1  0.41458935  0.01772790  0.92236779  1
  O  O508  1  0.41252934  0.35140144  0.17287647  1
  O  O509  1  0.41180375  0.35321219  0.42222754  1
  O  O510  1  0.41298830  0.35094827  0.67230442  1
  O  O511  1  0.41030692  0.35182189  0.92195699  1
  O  O512  1  0.41531775  0.68551153  0.17288396  1
  O  O513  1  0.41501964  0.68379242  0.42277850  1
  O  O514  1  0.41478012  0.68539190  0.67306645  1
  O  O515  1  0.41483432  0.68471947  0.92246223  1
  O  O516  1  0.91176663  0.01809626  0.17118716  1
  O  O517  1  0.91339172  0.01864784  0.42284637  1
  O  O518  1  0.91128303  0.01854180  0.67378488  1
  O  O519  1  0.91042863  0.01832228  0.92293643  1
  O  O520  1  0.91188417  0.35143486  0.17308301  1
  O  O521  1  0.91316176  0.35143707  0.42346742  1
  O  O522  1  0.91122476  0.35142917  0.67286526  1
  O  O523  1  0.91185731  0.35281851  0.92198465  1
  O  O524  1  0.91064400  0.68506973  0.17280485  1
  O  O525  1  0.91193723  0.68472337  0.42335677  1
  O  O526  1  0.91025755  0.68524608  0.67285285  1
  O  O527  1  0.91232921  0.68382936  0.92110726  1
  O  O528  1  0.16447834  0.01889304  0.20178230  1
  O  O529  1  0.16518759  0.01862516  0.45222560  1
  O  O530  1  0.16363568  0.01863927  0.70201750  1
  O  O531  1  0.16223072  0.01808869  0.95227611  1
  O  O532  1  0.16382087  0.35076676  0.20314858  1
  O  O533  1  0.16113787  0.35172786  0.45278079  1
  O  O534  1  0.16415933  0.35224408  0.70286881  1
  O  O535  1  0.16370501  0.35136454  0.95264502  1
  O  O536  1  0.16263565  0.68498027  0.20245007  1
  O  O537  1  0.16173916  0.68453375  0.45226073  1
  O  O538  1  0.16234270  0.68346565  0.70360655  1
  O  O539  1  0.16076954  0.68566902  0.95179146  1
  O  O540  1  0.66181895  0.01847644  0.20181155  1
  O  O541  1  0.66198363  0.01836493  0.45288219  1
  O  O542  1  0.66235328  0.01797984  0.70362893  1
  O  O543  1  0.66272181  0.01750773  0.95296358  1
  O  O544  1  0.66301562  0.35309513  0.20112123  1
  O  O545  1  0.66351630  0.35054952  0.45280113  1
  O  O546  1  0.66257180  0.35301431  0.70189892  1
  O  O547  1  0.66216910  0.35117834  0.95250688  1
  O  O548  1  0.66260135  0.68346719  0.20280911  1
  O  O549  1  0.66175117  0.68567465  0.45211425  1
  O  O550  1  0.66187522  0.68443836  0.70315222  1
  O  O551  1  0.66055177  0.68635548  0.95225956  1
  O  O552  1  0.33693968  0.31551592  0.04652157  1
  O  O553  1  0.33624953  0.31524739  0.29753339  1
  O  O554  1  0.33709721  0.31463381  0.54835237  1
  O  O555  1  0.33758978  0.31650273  0.79700516  1
  O  O556  1  0.33840320  0.64814053  0.04738244  1
  O  O557  1  0.33867272  0.64772050  0.29855717  1
  O  O558  1  0.33631764  0.64863664  0.54777518  1
  O  O559  1  0.33684366  0.64768093  0.79882570  1
  O  O560  1  0.33681525  0.98114610  0.04665784  1
  O  O561  1  0.33886634  0.98264696  0.29664885  1
  O  O562  1  0.33981988  0.98193249  0.54703497  1
  O  O563  1  0.33989977  0.98112865  0.79780369  1
  O  O564  1  0.83903528  0.31370627  0.04848646  1
  O  O565  1  0.83831751  0.31652630  0.29650626  1
  O  O566  1  0.83579254  0.31555357  0.54742011  1
  O  O567  1  0.83717248  0.31535038  0.79725267  1
  O  O568  1  0.83853714  0.64873688  0.04752677  1
  O  O569  1  0.83677765  0.64811292  0.29701833  1
  O  O570  1  0.83711179  0.64859025  0.54713872  1
  O  O571  1  0.83620508  0.64836555  0.79807193  1
  O  O572  1  0.83620631  0.98243480  0.04797169  1
  O  O573  1  0.83792055  0.98065252  0.29716047  1
  O  O574  1  0.83487425  0.98101120  0.54764821  1
  O  O575  1  0.83547084  0.98121268  0.79766347  1
  O  O576  1  0.41390523  0.14806967  0.17346421  1
  O  O577  1  0.41013984  0.14747451  0.42280938  1
  O  O578  1  0.41222007  0.14907503  0.67127061  1
  O  O579  1  0.41407295  0.14788333  0.92235468  1
  O  O580  1  0.41230148  0.48129899  0.17266221  1
  O  O581  1  0.41195218  0.48354178  0.42126185  1
  O  O582  1  0.41279674  0.48088899  0.67313524  1
  O  O583  1  0.41026615  0.48213594  0.92198350  1
  O  O584  1  0.41515121  0.81545495  0.17251683  1
  O  O585  1  0.41439577  0.81394281  0.42284348  1
  O  O586  1  0.41532320  0.81546951  0.67281416  1
  O  O587  1  0.41498740  0.81494059  0.92251934  1
  O  O588  1  0.91211744  0.14858969  0.17149514  1
  O  O589  1  0.91394376  0.14868477  0.42332503  1
  O  O590  1  0.91171026  0.14849468  0.67386137  1
  O  O591  1  0.91073276  0.14831414  0.92293910  1
  O  O592  1  0.91156433  0.48161948  0.17301160  1
  O  O593  1  0.91266297  0.48135463  0.42340666  1
  O  O594  1  0.91102669  0.48128933  0.67261578  1
  O  O595  1  0.91177007  0.48298145  0.92074233  1
  O  O596  1  0.91078409  0.81527131  0.17249793  1
  O  O597  1  0.91184579  0.81460883  0.42328672  1
  O  O598  1  0.91001643  0.81514772  0.67296928  1
  O  O599  1  0.91229737  0.81381596  0.92217371  1
  O  O600  1  0.08755056  0.18528227  0.07688387  1
  O  O601  1  0.09034821  0.18610847  0.32698975  1
  O  O602  1  0.08899130  0.18484861  0.57764985  1
  O  O603  1  0.08928091  0.18547998  0.82727197  1
  O  O604  1  0.08450026  0.51824178  0.07692121  1
  O  O605  1  0.08793441  0.51827058  0.32838470  1
  O  O606  1  0.08852817  0.51821534  0.57729216  1
  O  O607  1  0.08655284  0.51932828  0.82592932  1
  O  O608  1  0.08612435  0.85137386  0.07661780  1
  O  O609  1  0.08692525  0.85032034  0.32770651  1
  O  O610  1  0.08675381  0.85177436  0.57725664  1
  O  O611  1  0.08733266  0.85034097  0.82777187  1
  O  O612  1  0.58741097  0.18502535  0.07814117  1
  O  O613  1  0.58781756  0.18544377  0.32798977  1
  O  O614  1  0.58643171  0.18652773  0.57639275  1
  O  O615  1  0.58531608  0.18434785  0.82726946  1
  O  O616  1  0.58858119  0.51731509  0.07813466  1
  O  O617  1  0.58775315  0.51932356  0.32610500  1
  O  O618  1  0.58821666  0.51707338  0.57854614  1
  O  O619  1  0.58671939  0.51863159  0.82669243  1
  O  O620  1  0.58928625  0.85226857  0.07775626  1
  O  O621  1  0.58697100  0.85073324  0.32866841  1
  O  O622  1  0.58800938  0.85096273  0.57791788  1
  O  O623  1  0.58857132  0.85195461  0.82803472  1
  O  O624  1  0.33679427  0.18535221  0.04710433  1
  O  O625  1  0.33692262  0.18514428  0.29677776  1
  O  O626  1  0.33660340  0.18477665  0.54817966  1
  O  O627  1  0.33822553  0.18643550  0.79801599  1
  O  O628  1  0.33808443  0.51778721  0.04644614  1
  O  O629  1  0.33843861  0.51767861  0.29750952  1
  O  O630  1  0.33654568  0.51868122  0.54707094  1
  O  O631  1  0.33726528  0.51783222  0.79727333  1
  O  O632  1  0.33631488  0.85105272  0.04718803  1
  O  O633  1  0.33931308  0.85254805  0.29824151  1
  O  O634  1  0.34016447  0.85182963  0.54842569  1
  O  O635  1  0.33973153  0.85114871  0.79814822  1
  O  O636  1  0.83820588  0.18372261  0.04770280  1
  O  O637  1  0.83846200  0.18624995  0.29741059  1
  O  O638  1  0.83597447  0.18550033  0.54756006  1
  O  O639  1  0.83688232  0.18502825  0.79747608  1
  O  O640  1  0.83897135  0.51875835  0.04751024  1
  O  O641  1  0.83709433  0.51795434  0.29672696  1
  O  O642  1  0.83756567  0.51830476  0.54695846  1
  O  O643  1  0.83638287  0.51831994  0.79781603  1
  O  O644  1  0.83635086  0.85250669  0.04842833  1
  O  O645  1  0.83743891  0.85033484  0.29661689  1
  O  O646  1  0.83453577  0.85082321  0.54743692  1
  O  O647  1  0.83488367  0.85105459  0.79797862  1
  O  O648  1  0.16438497  0.14896736  0.20248603  1
  O  O649  1  0.16501713  0.14879797  0.45315074  1
  O  O650  1  0.16325719  0.14897024  0.70322349  1
  O  O651  1  0.16239816  0.14843608  0.95281718  1
  O  O652  1  0.16339671  0.48097400  0.20219478  1
  O  O653  1  0.16157540  0.48182135  0.45204087  1
  O  O654  1  0.16388454  0.48229697  0.70299207  1
  O  O655  1  0.16394084  0.48149346  0.95217152  1
  O  O656  1  0.16245395  0.81516166  0.20268863  1
  O  O657  1  0.16172319  0.81451523  0.45166364  1
  O  O658  1  0.16205205  0.81373708  0.70259068  1
  O  O659  1  0.16137981  0.81569025  0.95176590  1
  O  O660  1  0.66189980  0.14843635  0.20158766  1
  O  O661  1  0.66179668  0.14883080  0.45310980  1
  O  O662  1  0.66246560  0.14801393  0.70283815  1
  O  O663  1  0.66213325  0.14749139  0.95206630  1
  O  O664  1  0.66370079  0.48296504  0.20160442  1
  O  O665  1  0.66316692  0.48063616  0.45248560  1
  O  O666  1  0.66351429  0.48294436  0.70240267  1
  O  O667  1  0.66208654  0.48120704  0.95264571  1
  O  O668  1  0.66199965  0.81352928  0.20234363  1
  O  O669  1  0.66239998  0.81569302  0.45237753  1
  O  O670  1  0.66176426  0.81467889  0.70328904  1
  O  O671  1  0.66099861  0.81642042  0.95354402  1
