# generated using pymatgen
data_Na2MnFe(PO4)2
_symmetry_space_group_name_H-M   'P 1'
_cell_length_a   21.08189696
_cell_length_b   18.93339113
_cell_length_c   20.04072494
_cell_angle_alpha   89.99999272
_cell_angle_beta   89.99982543
_cell_angle_gamma   89.99911849
_symmetry_Int_Tables_number   1
_chemical_formula_structural   Na2MnFe(PO4)2
_chemical_formula_sum   'Na96 Mn48 Fe48 P96 O384'
_cell_volume   7999.29144984
_cell_formula_units_Z   48
loop_
 _symmetry_equiv_pos_site_id
 _symmetry_equiv_pos_as_xyz
  1  'x, y, z'
loop_
 _atom_site_type_symbol
 _atom_site_label
 _atom_site_symmetry_multiplicity
 _atom_site_fract_x
 _atom_site_fract_y
 _atom_site_fract_z
 _atom_site_occupancy
  Na  Na0  1  0.00099426  0.00026606  0.00007668  1
  Na  Na1  1  0.00151787  0.00048430  0.25050901  1
  Na  Na2  1  0.00084691  -0.00034091  0.50055368  1
  Na  Na3  1  0.00251453  0.00065715  0.74941723  1
  Na  Na4  1  0.00017703  0.33368521  0.00023048  1
  Na  Na5  1  0.00055487  0.33379261  0.24945361  1
  Na  Na6  1  -0.00074166  0.33306379  0.49967960  1
  Na  Na7  1  -0.00044279  0.33272528  0.74995786  1
  Na  Na8  1  0.00155230  0.66758345  -0.00100592  1
  Na  Na9  1  -0.00058299  0.66694115  0.25003851  1
  Na  Na10  1  -0.00218942  0.66591365  0.50143403  1
  Na  Na11  1  -0.00047168  0.66653477  0.74936706  1
  Na  Na12  1  0.49843831  -0.00030083  -0.00063782  1
  Na  Na13  1  0.49745535  0.00007171  0.24941748  1
  Na  Na14  1  0.49704817  -0.00052710  0.50042730  1
  Na  Na15  1  0.50025973  0.00055808  0.74998340  1
  Na  Na16  1  0.50064979  0.33269348  0.00021677  1
  Na  Na17  1  0.50030777  0.33293443  0.24950572  1
  Na  Na18  1  0.49866409  0.33248775  0.50043470  1
  Na  Na19  1  0.49897429  0.33254400  0.75006156  1
  Na  Na20  1  0.50045175  0.66663326  -0.00030596  1
  Na  Na21  1  0.50066099  0.66703317  0.25064676  1
  Na  Na22  1  0.49676484  0.66616366  0.49974835  1
  Na  Na23  1  0.49746733  0.66643552  0.75033660  1
  Na  Na24  1  0.24890449  -0.00001701  0.12482373  1
  Na  Na25  1  0.25218962  0.00128610  0.37562528  1
  Na  Na26  1  0.24906395  -0.00043774  0.62509849  1
  Na  Na27  1  0.24880150  0.00050355  0.87419337  1
  Na  Na28  1  0.24994151  0.33259901  0.12414582  1
  Na  Na29  1  0.25241497  0.33368772  0.37417608  1
  Na  Na30  1  0.25257828  0.33410129  0.62579410  1
  Na  Na31  1  0.24984383  0.33324285  0.87497146  1
  Na  Na32  1  0.25237459  0.66750196  0.12491183  1
  Na  Na33  1  0.25187166  0.66679411  0.37466190  1
  Na  Na34  1  0.25232368  0.66731809  0.62589873  1
  Na  Na35  1  0.25024311  0.66638064  0.87530012  1
  Na  Na36  1  0.74984350  -0.00021234  0.12440680  1
  Na  Na37  1  0.75069304  0.00064595  0.37557773  1
  Na  Na38  1  0.74852065  -0.00089030  0.62506494  1
  Na  Na39  1  0.75113895  0.00071230  0.87510632  1
  Na  Na40  1  0.75013566  0.33376801  0.12581852  1
  Na  Na41  1  0.74814205  0.33232005  0.37478062  1
  Na  Na42  1  0.75104104  0.33355536  0.62593805  1
  Na  Na43  1  0.74885667  0.33233501  0.87383662  1
  Na  Na44  1  0.74697368  0.66557490  0.12447214  1
  Na  Na45  1  0.75032004  0.66687432  0.37539943  1
  Na  Na46  1  0.75296509  0.66818762  0.62547619  1
  Na  Na47  1  0.74885751  0.66672973  0.87484609  1
  Na  Na48  1  0.00031010  0.16628093  -0.00018990  1
  Na  Na49  1  -0.00009717  0.16647056  0.25009711  1
  Na  Na50  1  -0.00119971  0.16698953  0.49979079  1
  Na  Na51  1  0.00104786  0.16583188  0.74970949  1
  Na  Na52  1  0.00118592  0.49937103  -0.00009714  1
  Na  Na53  1  -0.00007139  0.49991483  0.24917842  1
  Na  Na54  1  -0.00197496  0.50135183  0.50074407  1
  Na  Na55  1  0.00193557  0.49920970  0.74995410  1
  Na  Na56  1  0.00162456  0.83331040  -0.00059140  1
  Na  Na57  1  0.00090142  0.83359033  0.25063403  1
  Na  Na58  1  0.00145625  0.83306381  0.50125883  1
  Na  Na59  1  0.00063346  0.83366167  0.74953269  1
  Na  Na60  1  0.49781093  0.16712521  -0.00006873  1
  Na  Na61  1  0.49836312  0.16682220  0.24922346  1
  Na  Na62  1  0.49642863  0.16699773  0.49941799  1
  Na  Na63  1  0.49717135  0.16668461  0.75123687  1
  Na  Na64  1  0.50038310  0.50070887  0.00065368  1
  Na  Na65  1  0.50150142  0.49976856  0.24989689  1
  Na  Na66  1  0.49978158  0.50000884  0.50002708  1
  Na  Na67  1  0.50012329  0.50010135  0.74987018  1
  Na  Na68  1  0.50262066  0.83137630  -0.00103485  1
  Na  Na69  1  0.49804462  0.83380637  0.25030913  1
  Na  Na70  1  0.49692871  0.83401229  0.50117164  1
  Na  Na71  1  0.49905099  0.83351131  0.74911242  1
  Na  Na72  1  0.25301217  0.16562880  0.12420696  1
  Na  Na73  1  0.25306134  0.16628567  0.37556486  1
  Na  Na74  1  0.25266834  0.16597161  0.62529271  1
  Na  Na75  1  0.25130074  0.16630770  0.87509344  1
  Na  Na76  1  0.24965246  0.50045840  0.12394602  1
  Na  Na77  1  0.25164709  0.49978057  0.37392507  1
  Na  Na78  1  0.25146238  0.49975459  0.62620010  1
  Na  Na79  1  0.24909342  0.50075618  0.87561393  1
  Na  Na80  1  0.24921544  0.83346664  0.12534049  1
  Na  Na81  1  0.25101383  0.83293508  0.37515564  1
  Na  Na82  1  0.25083558  0.83255608  0.62516340  1
  Na  Na83  1  0.24738321  0.83455302  0.87401616  1
  Na  Na84  1  0.74996144  0.16707662  0.12522898  1
  Na  Na85  1  0.74991977  0.16624375  0.37530258  1
  Na  Na86  1  0.75039383  0.16543626  0.62513834  1
  Na  Na87  1  0.75036709  0.16669510  0.87397180  1
  Na  Na88  1  0.74848412  0.50002104  0.12591619  1
  Na  Na89  1  0.74867297  0.50066526  0.37562441  1
  Na  Na90  1  0.75088797  0.49993222  0.62520388  1
  Na  Na91  1  0.74923021  0.50012736  0.87367325  1
  Na  Na92  1  0.74893087  0.83334616  0.12351333  1
  Na  Na93  1  0.75069809  0.83292218  0.37492390  1
  Na  Na94  1  0.75188547  0.83281662  0.62581115  1
  Na  Na95  1  0.74916658  0.83353968  0.87623983  1
  Mn  Mn96  1  0.64154771  0.91636866  0.49816414  1
  Mn  Mn97  1  0.10875391  0.74994490  0.12299170  1
  Mn  Mn98  1  0.89149467  0.25043521  0.37714064  1
  Mn  Mn99  1  0.89282757  0.91705257  0.12712442  1
  Mn  Mn100  1  0.60650795  0.08350463  0.37318344  1
  Mn  Mn101  1  0.35783220  0.75113287  0.00181217  1
  Mn  Mn102  1  0.10790672  0.74986133  0.62269694  1
  Mn  Mn103  1  0.14353067  0.25025298  0.49777177  1
  Mn  Mn104  1  0.10847813  0.41748082  0.37312620  1
  Mn  Mn105  1  0.64240380  0.58392084  0.49880306  1
  Mn  Mn106  1  0.85758167  0.41634530  0.50199632  1
  Mn  Mn107  1  0.10821180  0.41596838  0.62210135  1
  Mn  Mn108  1  0.35831126  0.41642871  0.25176444  1
  Mn  Mn109  1  0.35814877  0.41699685  0.75371713  1
  Mn  Mn110  1  0.14299954  0.24988735  0.24775906  1
  Mn  Mn111  1  0.89152401  0.58320842  0.12661199  1
  Mn  Mn112  1  0.85782304  0.08307102  0.25181013  1
  Mn  Mn113  1  0.85752225  0.74990304  0.25188238  1
  Mn  Mn114  1  0.89262218  0.91602632  0.37747698  1
  Mn  Mn115  1  0.85725133  0.41702283  0.25234022  1
  Mn  Mn116  1  0.10850267  0.08355277  0.37339978  1
  Mn  Mn117  1  0.60674564  0.75046562  0.62284423  1
  Mn  Mn118  1  0.14225897  0.58332014  0.24795631  1
  Mn  Mn119  1  0.14241844  0.24956419  0.99791306  1
  Mn  Mn120  1  0.85803325  0.08211189  0.75169814  1
  Mn  Mn121  1  0.85729466  0.74936621  0.00203611  1
  Mn  Mn122  1  0.14289436  0.25026130  0.74755895  1
  Mn  Mn123  1  0.64090958  0.91645510  0.24822586  1
  Mn  Mn124  1  0.85790590  0.41699523  0.75253165  1
  Mn  Mn125  1  0.64148833  0.24881760  0.74730872  1
  Mn  Mn126  1  0.89242157  0.24948552  0.87776113  1
  Mn  Mn127  1  0.60822420  0.41687491  0.12200178  1
  Mn  Mn128  1  0.60726323  0.08314989  0.87308573  1
  Mn  Mn129  1  0.14322118  0.91708136  0.24847734  1
  Mn  Mn130  1  0.89296864  0.91710048  0.62763562  1
  Mn  Mn131  1  0.60723028  0.75021657  0.37339073  1
  Mn  Mn132  1  0.39176045  0.91636024  0.87739120  1
  Mn  Mn133  1  0.64157067  0.24946799  0.49850148  1
  Mn  Mn134  1  0.14259746  0.58399327  0.99774027  1
  Mn  Mn135  1  0.35812114  0.41641604  0.00216201  1
  Mn  Mn136  1  0.60679400  0.41607246  0.62237345  1
  Mn  Mn137  1  0.39247953  0.58287096  0.37741575  1
  Mn  Mn138  1  0.60701883  0.08272261  0.12234665  1
  Mn  Mn139  1  0.64237280  0.91738038  0.99708078  1
  Mn  Mn140  1  0.89292465  0.58361908  0.87768985  1
  Mn  Mn141  1  0.39145781  0.91608059  0.12673100  1
  Mn  Mn142  1  0.64194064  0.58439729  0.74722917  1
  Mn  Mn143  1  0.14268208  0.58340072  0.49767569  1
  Fe  Fe144  1  0.35662351  0.08251656  0.75199489  1
  Fe  Fe145  1  0.60676943  0.75031223  0.12398485  1
  Fe  Fe146  1  0.60698699  0.41622070  0.37404858  1
  Fe  Fe147  1  0.89383687  0.91688185  0.87623610  1
  Fe  Fe148  1  0.89202339  0.58378064  0.37660925  1
  Fe  Fe149  1  0.85742333  0.08279946  0.50226175  1
  Fe  Fe150  1  0.60569770  0.08308846  0.62345384  1
  Fe  Fe151  1  0.39319022  0.58282145  0.87685411  1
  Fe  Fe152  1  0.39369998  0.58310369  0.12654543  1
  Fe  Fe153  1  0.14420816  0.91633459  0.49855446  1
  Fe  Fe154  1  0.39148523  0.91705443  0.37737385  1
  Fe  Fe155  1  0.14296037  0.91648122  0.74807833  1
  Fe  Fe156  1  0.14342555  0.58379550  0.74856678  1
  Fe  Fe157  1  0.39173375  0.91684659  0.62772355  1
  Fe  Fe158  1  0.10773525  0.74929916  0.37409277  1
  Fe  Fe159  1  0.89250747  0.25002539  0.12621262  1
  Fe  Fe160  1  0.64198027  0.58233889  0.99766641  1
  Fe  Fe161  1  0.89284762  0.58276025  0.62743457  1
  Fe  Fe162  1  0.39303538  0.25024896  0.37661174  1
  Fe  Fe163  1  0.10742436  0.41670135  0.87344858  1
  Fe  Fe164  1  0.39310671  0.25078284  0.12666404  1
  Fe  Fe165  1  0.85831454  0.75079562  0.50153388  1
  Fe  Fe166  1  0.60741277  0.41665022  0.87394348  1
  Fe  Fe167  1  0.85740112  0.75083449  0.75252254  1
  Fe  Fe168  1  0.39177514  0.58316558  0.62732721  1
  Fe  Fe169  1  0.35810572  0.75031517  0.25196331  1
  Fe  Fe170  1  0.10704151  0.41620838  0.12317235  1
  Fe  Fe171  1  0.85823029  0.08417305  0.00165754  1
  Fe  Fe172  1  0.10801396  0.08435121  0.12304817  1
  Fe  Fe173  1  0.14199887  0.91699442  0.99789648  1
  Fe  Fe174  1  0.64174763  0.24966193  0.24795939  1
  Fe  Fe175  1  0.39224453  0.24997311  0.62718918  1
  Fe  Fe176  1  0.64271483  0.91651452  0.74855677  1
  Fe  Fe177  1  0.85706205  0.41629320  0.00099027  1
  Fe  Fe178  1  0.60706076  0.74970436  0.87227048  1
  Fe  Fe179  1  0.35739305  0.08307578  0.50302621  1
  Fe  Fe180  1  0.64220197  0.58349060  0.24862671  1
  Fe  Fe181  1  0.35694989  0.74979616  0.50205474  1
  Fe  Fe182  1  0.89284411  0.24987807  0.62608334  1
  Fe  Fe183  1  0.39296288  0.25075407  0.87734357  1
  Fe  Fe184  1  0.64296771  0.25006034  0.99860549  1
  Fe  Fe185  1  0.10755078  0.74990754  0.87240515  1
  Fe  Fe186  1  0.10760362  0.08362691  0.87303713  1
  Fe  Fe187  1  0.35741776  0.08278121  0.25152950  1
  Fe  Fe188  1  0.35864282  0.41708388  0.50177458  1
  Fe  Fe189  1  0.10806280  0.08429905  0.62282240  1
  Fe  Fe190  1  0.35636965  0.08265902  0.00137266  1
  Fe  Fe191  1  0.35664037  0.75031819  0.75234376  1
  P  P192  1  0.05263982  0.25000453  0.11009833  1
  P  P193  1  0.05346432  0.25015479  0.35983802  1
  P  P194  1  0.05284703  0.24926524  0.60966013  1
  P  P195  1  0.05377476  0.24978704  0.86007419  1
  P  P196  1  0.05333276  0.58271126  0.10976988  1
  P  P197  1  0.05205839  0.58445148  0.36035911  1
  P  P198  1  0.05362884  0.58334846  0.61124417  1
  P  P199  1  0.05452848  0.58353400  0.85924034  1
  P  P200  1  0.05491257  0.91772407  0.10967528  1
  P  P201  1  0.05555149  0.91565017  0.36199304  1
  P  P202  1  0.05643606  0.91757395  0.61066095  1
  P  P203  1  0.05486571  0.91702160  0.86024783  1
  P  P204  1  0.55392668  0.24958140  0.11012058  1
  P  P205  1  0.55239191  0.25016373  0.35971160  1
  P  P206  1  0.55111916  0.24815713  0.61034179  1
  P  P207  1  0.55354700  0.25040004  0.86149508  1
  P  P208  1  0.55425288  0.58444984  0.11073844  1
  P  P209  1  0.55403221  0.58279050  0.36014635  1
  P  P210  1  0.55115733  0.58409746  0.61014766  1
  P  P211  1  0.55370481  0.58300198  0.86099061  1
  P  P212  1  0.55254876  0.91589934  0.10955872  1
  P  P213  1  0.55064405  0.91700729  0.36053718  1
  P  P214  1  0.55235590  0.91743711  0.61153426  1
  P  P215  1  0.55360413  0.91600996  0.85901212  1
  P  P216  1  0.44410269  0.08391105  0.13865052  1
  P  P217  1  0.44388549  0.08349296  0.38926726  1
  P  P218  1  0.44473296  0.08301521  0.63994637  1
  P  P219  1  0.44415639  0.08367661  0.88945192  1
  P  P220  1  0.44709905  0.41675514  0.13957623  1
  P  P221  1  0.44747280  0.41584851  0.39015976  1
  P  P222  1  0.44496041  0.41673509  0.63935521  1
  P  P223  1  0.44812032  0.41687008  0.89030661  1
  P  P224  1  0.44704955  0.74916824  0.14018882  1
  P  P225  1  0.44447670  0.75090053  0.38988650  1
  P  P226  1  0.44357042  0.75003059  0.63968781  1
  P  P227  1  0.44644065  0.74941650  0.88857391  1
  P  P228  1  0.94710470  0.08437097  0.13875922  1
  P  P229  1  0.94613941  0.08301857  0.39089050  1
  P  P230  1  0.94721264  0.08387909  0.63884428  1
  P  P231  1  0.94766637  0.08202178  0.88998196  1
  P  P232  1  0.94580641  0.41580940  0.13838270  1
  P  P233  1  0.94679477  0.41781457  0.38982829  1
  P  P234  1  0.94647184  0.41620638  0.63999286  1
  P  P235  1  0.94753726  0.41679891  0.89050338  1
  P  P236  1  0.94712000  0.75018529  0.13983042  1
  P  P237  1  0.94756322  0.74950204  0.39083016  1
  P  P238  1  0.94489708  0.74980735  0.63991348  1
  P  P239  1  0.94710739  0.75127225  0.88845181  1
  P  P240  1  0.19786269  0.08381693  0.23459012  1
  P  P241  1  0.19758637  0.08309415  0.48656621  1
  P  P242  1  0.19592999  0.08319909  0.73549120  1
  P  P243  1  0.19576567  0.08307255  0.98529856  1
  P  P244  1  0.19644483  0.41662161  0.23368983  1
  P  P245  1  0.19942256  0.41675116  0.48491406  1
  P  P246  1  0.19568547  0.41760286  0.73639914  1
  P  P247  1  0.19509829  0.41643942  0.98536263  1
  P  P248  1  0.19751875  0.74979840  0.23646906  1
  P  P249  1  0.19771567  0.75022199  0.48495025  1
  P  P250  1  0.19633651  0.74961532  0.73626436  1
  P  P251  1  0.19607881  0.75087306  0.98402506  1
  P  P252  1  0.69587826  0.08365041  0.23495181  1
  P  P253  1  0.69611982  0.08304353  0.48638837  1
  P  P254  1  0.69541810  0.08196254  0.73430187  1
  P  P255  1  0.69813949  0.08469339  0.98498658  1
  P  P256  1  0.69438452  0.41658477  0.23670895  1
  P  P257  1  0.69573964  0.41641070  0.48477717  1
  P  P258  1  0.69484781  0.41672192  0.73577163  1
  P  P259  1  0.69718574  0.41611781  0.98432992  1
  P  P260  1  0.69558495  0.74943357  0.23446505  1
  P  P261  1  0.69803248  0.75028870  0.48551113  1
  P  P262  1  0.69636632  0.75118895  0.73603473  1
  P  P263  1  0.69399876  0.74893957  0.98542482  1
  P  P264  1  0.30547193  0.24938113  0.01409205  1
  P  P265  1  0.30565277  0.24923021  0.26405262  1
  P  P266  1  0.30597944  0.25043663  0.51453531  1
  P  P267  1  0.30559405  0.24915489  0.76493010  1
  P  P268  1  0.30576657  0.58354115  0.01445958  1
  P  P269  1  0.30520302  0.58371411  0.26343015  1
  P  P270  1  0.30413026  0.58310759  0.51572730  1
  P  P271  1  0.30428045  0.58412431  0.76528340  1
  P  P272  1  0.30125708  0.91731583  0.01447202  1
  P  P273  1  0.30435389  0.91675023  0.26547467  1
  P  P274  1  0.30431289  0.91647581  0.51480610  1
  P  P275  1  0.30315449  0.91673659  0.76379673  1
  P  P276  1  0.80293606  0.25035414  0.01523868  1
  P  P277  1  0.80268480  0.24994438  0.26387976  1
  P  P278  1  0.80357039  0.24902688  0.51592915  1
  P  P279  1  0.80461486  0.24928866  0.76378808  1
  P  P280  1  0.80138050  0.58217960  0.01451661  1
  P  P281  1  0.80213050  0.58338866  0.26549134  1
  P  P282  1  0.80541496  0.58430651  0.51484845  1
  P  P283  1  0.80479107  0.58444727  0.76423853  1
  P  P284  1  0.80509952  0.91751452  0.01336771  1
  P  P285  1  0.80284892  0.91653438  0.26499291  1
  P  P286  1  0.80363489  0.91667444  0.51535722  1
  P  P287  1  0.80315981  0.91600242  0.76599618  1
  O  O288  1  0.05627200  0.24974340  0.18677287  1
  O  O289  1  0.05717278  0.25003983  0.43660018  1
  O  O290  1  0.05689539  0.24964007  0.68635174  1
  O  O291  1  0.05661766  0.24978775  0.93680932  1
  O  O292  1  0.05628168  0.58343848  0.18656461  1
  O  O293  1  0.05591135  0.58375101  0.43709981  1
  O  O294  1  0.05915388  0.58361469  0.68781988  1
  O  O295  1  0.05720028  0.58381698  0.93603305  1
  O  O296  1  0.05792048  0.91716981  0.18653281  1
  O  O297  1  0.06002953  0.91641944  0.43875023  1
  O  O298  1  0.06051591  0.91659873  0.68753916  1
  O  O299  1  0.05871726  0.91689218  0.93701381  1
  O  O300  1  0.55856170  0.24938680  0.18682709  1
  O  O301  1  0.55577013  0.24927166  0.43646309  1
  O  O302  1  0.55487650  0.24848238  0.68705246  1
  O  O303  1  0.55862922  0.24957282  0.93816496  1
  O  O304  1  0.55854913  0.58350656  0.18742541  1
  O  O305  1  0.55677376  0.58375721  0.43695862  1
  O  O306  1  0.55531292  0.58457352  0.68686423  1
  O  O307  1  0.55812113  0.58294838  0.93774573  1
  O  O308  1  0.55513327  0.91706551  0.18634387  1
  O  O309  1  0.55474795  0.91681298  0.43727323  1
  O  O310  1  0.55784934  0.91656668  0.68806447  1
  O  O311  1  0.55679181  0.91681835  0.93586980  1
  O  O312  1  0.44018132  0.08259568  0.06185823  1
  O  O313  1  0.44081983  0.08310505  0.31243571  1
  O  O314  1  0.44064234  0.08260242  0.56311381  1
  O  O315  1  0.44027939  0.08239378  0.81267327  1
  O  O316  1  0.44421675  0.41666206  0.06281306  1
  O  O317  1  0.44416521  0.41670809  0.31347383  1
  O  O318  1  0.44168591  0.41704331  0.56252850  1
  O  O319  1  0.44463565  0.41684647  0.81361359  1
  O  O320  1  0.44388833  0.75005322  0.06340505  1
  O  O321  1  0.44104579  0.75024374  0.31306551  1
  O  O322  1  0.43979442  0.75013976  0.56284700  1
  O  O323  1  0.44102584  0.75053001  0.81195580  1
  O  O324  1  0.94210141  0.08382443  0.06207459  1
  O  O325  1  0.94306854  0.08269677  0.31402586  1
  O  O326  1  0.94202665  0.08289732  0.56223750  1
  O  O327  1  0.94394682  0.08260687  0.81327239  1
  O  O328  1  0.94077503  0.41659861  0.06172687  1
  O  O329  1  0.94372240  0.41706766  0.31300425  1
  O  O330  1  0.94332423  0.41649688  0.56323870  1
  O  O331  1  0.94353773  0.41678584  0.81380916  1
  O  O332  1  0.94357254  0.75003904  0.06302540  1
  O  O333  1  0.94386901  0.75057697  0.31408957  1
  O  O334  1  0.94107231  0.75083603  0.56313791  1
  O  O335  1  0.94214141  0.75069478  0.81179423  1
  O  O336  1  0.19142514  0.08417483  0.06202653  1
  O  O337  1  0.19422415  0.08435511  0.31134313  1
  O  O338  1  0.19266359  0.08414520  0.56321673  1
  O  O339  1  0.19132894  0.08410611  0.81223064  1
  O  O340  1  0.19063414  0.41617079  0.06210031  1
  O  O341  1  0.19358710  0.41670501  0.31055621  1
  O  O342  1  0.19514888  0.41658388  0.56164949  1
  O  O343  1  0.19110573  0.41667956  0.81315123  1
  O  O344  1  0.19374398  0.74977952  0.06089510  1
  O  O345  1  0.19243793  0.74909287  0.31308038  1
  O  O346  1  0.19394101  0.74935740  0.56167968  1
  O  O347  1  0.19159869  0.74967415  0.81292619  1
  O  O348  1  0.69379310  0.08380995  0.06162292  1
  O  O349  1  0.69264016  0.08329600  0.31176535  1
  O  O350  1  0.69037961  0.08296828  0.56297580  1
  O  O351  1  0.69243361  0.08332762  0.81109607  1
  O  O352  1  0.69385091  0.41644446  0.06112265  1
  O  O353  1  0.69043323  0.41621138  0.31345175  1
  O  O354  1  0.69271578  0.41633762  0.56164879  1
  O  O355  1  0.69025942  0.41653995  0.81255338  1
  O  O356  1  0.68991121  0.74982346  0.06216993  1
  O  O357  1  0.69286331  0.75037342  0.31130369  1
  O  O358  1  0.69364747  0.75039376  0.56220702  1
  O  O359  1  0.69113849  0.75014549  0.81270943  1
  O  O360  1  0.30927199  0.25049146  0.18724071  1
  O  O361  1  0.30947372  0.25066875  0.43769615  1
  O  O362  1  0.30942982  0.25007412  0.68809230  1
  O  O363  1  0.30926373  0.25097909  0.93727900  1
  O  O364  1  0.30942970  0.58319474  0.18667831  1
  O  O365  1  0.30695381  0.58271387  0.43887644  1
  O  O366  1  0.30864868  0.58311833  0.68856677  1
  O  O367  1  0.31009634  0.58304593  0.93764448  1
  O  O368  1  0.30641793  0.91636595  0.18863298  1
  O  O369  1  0.30814833  0.91685396  0.43805869  1
  O  O370  1  0.30754898  0.91671419  0.68711516  1
  O  O371  1  0.30503036  0.91671212  0.93777221  1
  O  O372  1  0.80809256  0.25012054  0.18726119  1
  O  O373  1  0.80606810  0.24966229  0.43905540  1
  O  O374  1  0.80940259  0.24939812  0.68710124  1
  O  O375  1  0.80640299  0.25005447  0.93843742  1
  O  O376  1  0.80596115  0.58313477  0.18873921  1
  O  O377  1  0.80895403  0.58357894  0.43800243  1
  O  O378  1  0.80921828  0.58343305  0.68746672  1
  O  O379  1  0.80571161  0.58312134  0.93783129  1
  O  O380  1  0.80629626  0.91649461  0.18819115  1
  O  O381  1  0.80663665  0.91677246  0.43860271  1
  O  O382  1  0.80708260  0.91674459  0.68927240  1
  O  O383  1  0.80952688  0.91699255  0.93668066  1
  O  O384  1  0.23543856  0.24935741  0.03829138  1
  O  O385  1  0.23579350  0.25013882  0.28883018  1
  O  O386  1  0.23612052  0.24988124  0.53954038  1
  O  O387  1  0.23552801  0.24986494  0.78896947  1
  O  O388  1  0.23559940  0.58389625  0.03811259  1
  O  O389  1  0.23529871  0.58312958  0.28803609  1
  O  O390  1  0.23448863  0.58356696  0.54120945  1
  O  O391  1  0.23395817  0.58378925  0.78903713  1
  O  O392  1  0.23139184  0.91691697  0.03938043  1
  O  O393  1  0.23487578  0.91712798  0.29135450  1
  O  O394  1  0.23403558  0.91615574  0.53902180  1
  O  O395  1  0.23277642  0.91698281  0.78758415  1
  O  O396  1  0.73284955  0.25039493  0.03991290  1
  O  O397  1  0.73228801  0.24969371  0.28745575  1
  O  O398  1  0.73391935  0.24963302  0.54136334  1
  O  O399  1  0.73438562  0.24901288  0.78730718  1
  O  O400  1  0.73122303  0.58239504  0.03877959  1
  O  O401  1  0.73200461  0.58365125  0.28974645  1
  O  O402  1  0.73544925  0.58386157  0.53964592  1
  O  O403  1  0.73464530  0.58424109  0.78798580  1
  O  O404  1  0.73489225  0.91697240  0.03731822  1
  O  O405  1  0.73318449  0.91660674  0.29019797  1
  O  O406  1  0.73397240  0.91612659  0.54072506  1
  O  O407  1  0.73305014  0.91681277  0.79030553  1
  O  O408  1  0.26794458  0.08271655  0.21022995  1
  O  O409  1  0.26807035  0.08341369  0.46323324  1
  O  O410  1  0.26641780  0.08310594  0.71209719  1
  O  O411  1  0.26608039  0.08350622  0.96139935  1
  O  O412  1  0.26618091  0.41657321  0.20871441  1
  O  O413  1  0.26949719  0.41696052  0.46052820  1
  O  O414  1  0.26591030  0.41707206  0.71291793  1
  O  O415  1  0.26529861  0.41670305  0.96155751  1
  O  O416  1  0.26782252  0.75051213  0.21257522  1
  O  O417  1  0.26797271  0.74996803  0.46092045  1
  O  O418  1  0.26669581  0.74992197  0.71256380  1
  O  O419  1  0.26571037  0.75059942  0.95857645  1
  O  O420  1  0.76556547  0.08331930  0.20975991  1
  O  O421  1  0.76657460  0.08324383  0.46314552  1
  O  O422  1  0.76528880  0.08222984  0.70964785  1
  O  O423  1  0.76828384  0.08446304  0.96061124  1
  O  O424  1  0.76430225  0.41690888  0.21206584  1
  O  O425  1  0.76542658  0.41629057  0.45974256  1
  O  O426  1  0.76500535  0.41688640  0.71212641  1
  O  O427  1  0.76716029  0.41601578  0.95931176  1
  O  O428  1  0.76514528  0.74965659  0.20879267  1
  O  O429  1  0.76813467  0.75033250  0.46126561  1
  O  O430  1  0.76679461  0.75088430  0.71277835  1
  O  O431  1  0.76419756  0.74982995  0.96145786  1
  O  O432  1  0.01745722  0.08401506  0.16259814  1
  O  O433  1  0.01601228  0.08321081  0.41558708  1
  O  O434  1  0.01759156  0.08342229  0.66246754  1
  O  O435  1  0.01789148  0.08293864  0.91413634  1
  O  O436  1  0.01616625  0.41625200  0.16215380  1
  O  O437  1  0.01633167  0.41753091  0.41551311  1
  O  O438  1  0.01622831  0.41605720  0.66506070  1
  O  O439  1  0.01781974  0.41674297  0.91435788  1
  O  O440  1  0.01685969  0.75020013  0.16476130  1
  O  O441  1  0.01749980  0.74944604  0.41587690  1
  O  O442  1  0.01512884  0.75038868  0.66367510  1
  O  O443  1  0.01758323  0.75049749  0.91184654  1
  O  O444  1  0.51408760  0.08342444  0.16301908  1
  O  O445  1  0.51368866  0.08337388  0.41440253  1
  O  O446  1  0.51494250  0.08319695  0.66414965  1
  O  O447  1  0.51424602  0.08311467  0.91367109  1
  O  O448  1  0.51672127  0.41649926  0.16477220  1
  O  O449  1  0.51744340  0.41622855  0.41510193  1
  O  O450  1  0.51475534  0.41641295  0.66433894  1
  O  O451  1  0.51799494  0.41678177  0.91542637  1
  O  O452  1  0.51694957  0.75016460  0.16520675  1
  O  O453  1  0.51435580  0.74988947  0.41473022  1
  O  O454  1  0.51365324  0.75020238  0.66390996  1
  O  O455  1  0.51687405  0.74929800  0.91182329  1
  O  O456  1  0.48348595  0.25006045  0.08676604  1
  O  O457  1  0.48228922  0.24983901  0.33511090  1
  O  O458  1  0.48108081  0.24907706  0.58588662  1
  O  O459  1  0.48311669  0.25005348  0.83794181  1
  O  O460  1  0.48394807  0.58348151  0.08672513  1
  O  O461  1  0.48428095  0.58329599  0.33505111  1
  O  O462  1  0.48105587  0.58356467  0.58599056  1
  O  O463  1  0.48339714  0.58325533  0.83695927  1
  O  O464  1  0.48298310  0.91552937  0.08384915  1
  O  O465  1  0.48058748  0.91720933  0.33616629  1
  O  O466  1  0.48178798  0.91692289  0.58845657  1
  O  O467  1  0.48373180  0.91671650  0.83440632  1
  O  O468  1  0.98275286  0.25002622  0.08496951  1
  O  O469  1  0.98368914  0.25005024  0.33499055  1
  O  O470  1  0.98278739  0.24981643  0.58526645  1
  O  O471  1  0.98411105  0.24931727  0.83476777  1
  O  O472  1  0.98375729  0.58312438  0.08416531  1
  O  O473  1  0.98210035  0.58408013  0.33545402  1
  O  O474  1  0.98308148  0.58341983  0.58831977  1
  O  O475  1  0.98476958  0.58329090  0.83412610  1
  O  O476  1  0.98522208  0.91688394  0.08455891  1
  O  O477  1  0.98560721  0.91657781  0.33755250  1
  O  O478  1  0.98620594  0.91678011  0.58712526  1
  O  O479  1  0.98470090  0.91717996  0.83567685  1
  O  O480  1  0.08671373  0.31503282  0.07751043  1
  O  O481  1  0.08745860  0.31528975  0.32745916  1
  O  O482  1  0.08684797  0.31423424  0.57677673  1
  O  O483  1  0.08763338  0.31505242  0.82768536  1
  O  O484  1  0.08782871  0.64766844  0.07739121  1
  O  O485  1  0.08597166  0.64970817  0.32795560  1
  O  O486  1  0.08652738  0.64842986  0.57749147  1
  O  O487  1  0.08860661  0.64861701  0.82657518  1
  O  O488  1  0.08869414  0.98307440  0.07735020  1
  O  O489  1  0.08950413  0.98050208  0.32876004  1
  O  O490  1  0.08982336  0.98278227  0.57790506  1
  O  O491  1  0.08869187  0.98216208  0.82745666  1
  O  O492  1  0.58766951  0.31451345  0.07691635  1
  O  O493  1  0.58626016  0.31534914  0.32738729  1
  O  O494  1  0.58526250  0.31308755  0.57768866  1
  O  O495  1  0.58654329  0.31560301  0.82829150  1
  O  O496  1  0.58708232  0.64981276  0.07774762  1
  O  O497  1  0.58844291  0.64761278  0.32743639  1
  O  O498  1  0.58459010  0.64919082  0.57704492  1
  O  O499  1  0.58706523  0.64809471  0.82760715  1
  O  O500  1  0.58652898  0.98095570  0.07668537  1
  O  O501  1  0.58441265  0.98195983  0.32765752  1
  O  O502  1  0.58508144  0.98278520  0.57809220  1
  O  O503  1  0.58809299  0.98088215  0.82658668  1
  O  O504  1  0.41009459  0.01918651  0.17208205  1
  O  O505  1  0.40974530  0.01873499  0.42251008  1
  O  O506  1  0.41114269  0.01799966  0.67329306  1
  O  O507  1  0.41009434  0.01892781  0.92283953  1
  O  O508  1  0.41292476  0.35162293  0.17181857  1
  O  O509  1  0.41356043  0.35067472  0.42246644  1
  O  O510  1  0.41113075  0.35155541  0.67191331  1
  O  O511  1  0.41399867  0.35184196  0.92280671  1
  O  O512  1  0.41351288  0.68384936  0.17264962  1
  O  O513  1  0.41000533  0.68612068  0.42269531  1
  O  O514  1  0.40999937  0.68487105  0.67262153  1
  O  O515  1  0.41323351  0.68440033  0.92175003  1
  O  O516  1  0.91386909  0.01932969  0.17233452  1
  O  O517  1  0.91208607  0.01807640  0.42371477  1
  O  O518  1  0.91405005  0.01886218  0.67272953  1
  O  O519  1  0.91426030  0.01679459  0.92268659  1
  O  O520  1  0.91272647  0.35047569  0.17153443  1
  O  O521  1  0.91239971  0.35277468  0.42215228  1
  O  O522  1  0.91242146  0.35096065  0.67218476  1
  O  O523  1  0.91366948  0.35180115  0.92333625  1
  O  O524  1  0.91299067  0.68504914  0.17215097  1
  O  O525  1  0.91310999  0.68447125  0.42288142  1
  O  O526  1  0.91146631  0.68459437  0.67263013  1
  O  O527  1  0.91355865  0.68641423  0.92216325  1
  O  O528  1  0.16323687  0.01906951  0.20224264  1
  O  O529  1  0.16475386  0.01771318  0.45351588  1
  O  O530  1  0.16243551  0.01817985  0.70254343  1
  O  O531  1  0.16249371  0.01785198  0.95232862  1
  O  O532  1  0.16215336  0.35157222  0.20132135  1
  O  O533  1  0.16580165  0.35170556  0.45202701  1
  O  O534  1  0.16243990  0.35262742  0.70268193  1
  O  O535  1  0.16173587  0.35139233  0.95201757  1
  O  O536  1  0.16455477  0.68489207  0.20245101  1
  O  O537  1  0.16392221  0.68536705  0.45162722  1
  O  O538  1  0.16348506  0.68434841  0.70277741  1
  O  O539  1  0.16159829  0.68601547  0.95141662  1
  O  O540  1  0.66169533  0.01855912  0.20243015  1
  O  O541  1  0.66300708  0.01800723  0.45270811  1
  O  O542  1  0.66148384  0.01652065  0.70240771  1
  O  O543  1  0.66419991  0.01974725  0.95191051  1
  O  O544  1  0.66094591  0.35154620  0.20335416  1
  O  O545  1  0.66130192  0.35143435  0.45246821  1
  O  O546  1  0.66153699  0.35152370  0.70265131  1
  O  O547  1  0.66301111  0.35093740  0.95205655  1
  O  O548  1  0.66129819  0.68408990  0.20270490  1
  O  O549  1  0.66430764  0.68516665  0.45285189  1
  O  O550  1  0.66303563  0.68642538  0.70203264  1
  O  O551  1  0.66100526  0.68343752  0.95250374  1
  O  O552  1  0.33924996  0.31411893  0.04778966  1
  O  O553  1  0.34010511  0.31376190  0.29741478  1
  O  O554  1  0.33954931  0.31557811  0.54751173  1
  O  O555  1  0.33968216  0.31389171  0.79837795  1
  O  O556  1  0.33947473  0.64858158  0.04729641  1
  O  O557  1  0.33864647  0.64886548  0.29633581  1
  O  O558  1  0.33850430  0.64824792  0.54781576  1
  O  O559  1  0.33772737  0.64933228  0.79806496  1
  O  O560  1  0.33509606  0.98236900  0.04697144  1
  O  O561  1  0.33880039  0.98192334  0.29740128  1
  O  O562  1  0.33771651  0.98149276  0.54828497  1
  O  O563  1  0.33641680  0.98176947  0.79704982  1
  O  O564  1  0.83678052  0.31557435  0.04777375  1
  O  O565  1  0.83570301  0.31507348  0.29748485  1
  O  O566  1  0.83825613  0.31394068  0.54819512  1
  O  O567  1  0.83773757  0.31435391  0.79732589  1
  O  O568  1  0.83509650  0.64721545  0.04761475  1
  O  O569  1  0.83627643  0.64838309  0.29808639  1
  O  O570  1  0.83918728  0.64951038  0.54727218  1
  O  O571  1  0.83812092  0.64973783  0.79712083  1
  O  O572  1  0.83815618  0.98294727  0.04634797  1
  O  O573  1  0.83712782  0.98149902  0.29736642  1
  O  O574  1  0.83747014  0.98194579  0.54800547  1
  O  O575  1  0.83768894  0.98082574  0.79866882  1
  O  O576  1  0.41075783  0.14935232  0.17115781  1
  O  O577  1  0.41011787  0.14888497  0.42161928  1
  O  O578  1  0.41101787  0.14809452  0.67271086  1
  O  O579  1  0.41075254  0.14899151  0.92195561  1
  O  O580  1  0.41326246  0.48193137  0.17198430  1
  O  O581  1  0.41322887  0.48066076  0.42318387  1
  O  O582  1  0.41141099  0.48190424  0.67235671  1
  O  O583  1  0.41413201  0.48195758  0.92275124  1
  O  O584  1  0.41223521  0.81384790  0.17280552  1
  O  O585  1  0.41104884  0.81619090  0.42261008  1
  O  O586  1  0.40973522  0.81506296  0.67276930  1
  O  O587  1  0.41357744  0.81455522  0.92250552  1
  O  O588  1  0.91372803  0.14959522  0.17173395  1
  O  O589  1  0.91171143  0.14805388  0.42301564  1
  O  O590  1  0.91404052  0.14900211  0.67197274  1
  O  O591  1  0.91335585  0.14674166  0.92313411  1
  O  O592  1  0.91232627  0.48074062  0.17196657  1
  O  O593  1  0.91256546  0.48298616  0.42173567  1
  O  O594  1  0.91257048  0.48138335  0.67266021  1
  O  O595  1  0.91377676  0.48177685  0.92349462  1
  O  O596  1  0.91324874  0.81524652  0.17246436  1
  O  O597  1  0.91363645  0.81445164  0.42407845  1
  O  O598  1  0.91120727  0.81469148  0.67342688  1
  O  O599  1  0.91434004  0.81657241  0.92165340  1
  O  O600  1  0.08674152  0.18500429  0.07731146  1
  O  O601  1  0.08748542  0.18496810  0.32737943  1
  O  O602  1  0.08653912  0.18411672  0.57694871  1
  O  O603  1  0.08811335  0.18470061  0.82781894  1
  O  O604  1  0.08748062  0.51748633  0.07778873  1
  O  O605  1  0.08626887  0.51957027  0.32754743  1
  O  O606  1  0.08663008  0.51833228  0.57753133  1
  O  O607  1  0.08893531  0.51842804  0.82716288  1
  O  O608  1  0.08961758  0.85298836  0.07705602  1
  O  O609  1  0.08857621  0.85004206  0.32933433  1
  O  O610  1  0.09030725  0.85271730  0.57738006  1
  O  O611  1  0.08856238  0.85200811  0.82698030  1
  O  O612  1  0.58699867  0.18464311  0.07634283  1
  O  O613  1  0.58628052  0.18525224  0.32655579  1
  O  O614  1  0.58435906  0.18293974  0.57740478  1
  O  O615  1  0.58660338  0.18531012  0.82778239  1
  O  O616  1  0.58820279  0.51971720  0.07702984  1
  O  O617  1  0.58782857  0.51746050  0.32803399  1
  O  O618  1  0.58532525  0.51909021  0.57784313  1
  O  O619  1  0.58692198  0.51781750  0.82798317  1
  O  O620  1  0.58715031  0.85081805  0.07801912  1
  O  O621  1  0.58436936  0.85185437  0.32786792  1
  O  O622  1  0.58548636  0.85252506  0.57751190  1
  O  O623  1  0.58739094  0.85076939  0.82662373  1
  O  O624  1  0.33915921  0.18408044  0.04625839  1
  O  O625  1  0.33892196  0.18367079  0.29639346  1
  O  O626  1  0.34008244  0.18533960  0.54723568  1
  O  O627  1  0.33887819  0.18376672  0.79738968  1
  O  O628  1  0.33922352  0.51854662  0.04782767  1
  O  O629  1  0.33896824  0.51875641  0.29666661  1
  O  O630  1  0.33831746  0.51807875  0.54827488  1
  O  O631  1  0.33792218  0.51930553  0.79903133  1
  O  O632  1  0.33533795  0.85234802  0.04725591  1
  O  O633  1  0.33871125  0.85179367  0.29784627  1
  O  O634  1  0.33787953  0.85139185  0.54774152  1
  O  O635  1  0.33623737  0.85165471  0.79731241  1
  O  O636  1  0.83720738  0.18544756  0.04799575  1
  O  O637  1  0.83611881  0.18497298  0.29717847  1
  O  O638  1  0.83785224  0.18385909  0.54802217  1
  O  O639  1  0.83801530  0.18416795  0.79694558  1
  O  O640  1  0.83487850  0.51692206  0.04709846  1
  O  O641  1  0.83592301  0.51846211  0.29851635  1
  O  O642  1  0.83932471  0.51927974  0.54794636  1
  O  O643  1  0.83818365  0.51947516  0.79772376  1
  O  O644  1  0.83852264  0.85245482  0.04666769  1
  O  O645  1  0.83700942  0.85141396  0.29738725  1
  O  O646  1  0.83817406  0.85172711  0.54755463  1
  O  O647  1  0.83693450  0.85088565  0.79875869  1
  O  O648  1  0.16466557  0.14896181  0.20120257  1
  O  O649  1  0.16449339  0.14789140  0.45252668  1
  O  O650  1  0.16289318  0.14821496  0.70157336  1
  O  O651  1  0.16219991  0.14785348  0.95154551  1
  O  O652  1  0.16200748  0.48154567  0.20137084  1
  O  O653  1  0.16554947  0.48187520  0.45224144  1
  O  O654  1  0.16273279  0.48300772  0.70343436  1
  O  O655  1  0.16147484  0.48144643  0.95230424  1
  O  O656  1  0.16393298  0.81492450  0.20356514  1
  O  O657  1  0.16407526  0.81539984  0.45244780  1
  O  O658  1  0.16299800  0.81461427  0.70295073  1
  O  O659  1  0.16172665  0.81607221  0.95222789  1
  O  O660  1  0.66187073  0.14880360  0.20260324  1
  O  O661  1  0.66289476  0.14811637  0.45287317  1
  O  O662  1  0.66090346  0.14655282  0.70115304  1
  O  O663  1  0.66442033  0.14984571  0.95235731  1
  O  O664  1  0.66080953  0.48188246  0.20389420  1
  O  O665  1  0.66148433  0.48150716  0.45265331  1
  O  O666  1  0.66145700  0.48184170  0.70267752  1
  O  O667  1  0.66286283  0.48104460  0.95168074  1
  O  O668  1  0.66092381  0.81422189  0.20181188  1
  O  O669  1  0.66406943  0.81515440  0.45247665  1
  O  O670  1  0.66331237  0.81656155  0.70299137  1
  O  O671  1  0.65991838  0.81362426  0.95195700  1
