# generated using pymatgen
data_Na2MnFe(PO4)2
_symmetry_space_group_name_H-M   'P 1'
_cell_length_a   21.07925314
_cell_length_b   18.93058443
_cell_length_c   20.03891212
_cell_angle_alpha   89.99967337
_cell_angle_beta   90.00036491
_cell_angle_gamma   90.00119476
_symmetry_Int_Tables_number   1
_chemical_formula_structural   Na2MnFe(PO4)2
_chemical_formula_sum   'Na96 Mn48 Fe48 P96 O384'
_cell_volume   7996.37921715
_cell_formula_units_Z   48
loop_
 _symmetry_equiv_pos_site_id
 _symmetry_equiv_pos_as_xyz
  1  'x, y, z'
loop_
 _atom_site_type_symbol
 _atom_site_label
 _atom_site_symmetry_multiplicity
 _atom_site_fract_x
 _atom_site_fract_y
 _atom_site_fract_z
 _atom_site_occupancy
  Na  Na0  1  -0.00248502  -0.00109928  0.00081264  1
  Na  Na1  1  -0.00168490  -0.00060855  0.25077282  1
  Na  Na2  1  -0.00013524  -0.00037910  0.49938512  1
  Na  Na3  1  0.00023516  -0.00016811  0.74865034  1
  Na  Na4  1  0.00113495  0.33411013  0.00038352  1
  Na  Na5  1  -0.00161128  0.33333776  0.25158751  1
  Na  Na6  1  -0.00042304  0.33351088  0.49882462  1
  Na  Na7  1  0.00094015  0.33382072  0.74928559  1
  Na  Na8  1  -0.00088882  0.66611356  -0.00082780  1
  Na  Na9  1  -0.00055660  0.66671225  0.24931644  1
  Na  Na10  1  0.00042679  0.66691992  0.50059282  1
  Na  Na11  1  0.00112086  0.66745893  0.75129276  1
  Na  Na12  1  0.49964183  -0.00048922  0.00099119  1
  Na  Na13  1  0.49981464  0.00027300  0.24904104  1
  Na  Na14  1  0.49940609  -0.00077077  0.50045637  1
  Na  Na15  1  0.50074739  0.00002332  0.74996116  1
  Na  Na16  1  0.49898664  0.33321952  -0.00016084  1
  Na  Na17  1  0.49983440  0.33312957  0.25056054  1
  Na  Na18  1  0.50037534  0.33331654  0.49853939  1
  Na  Na19  1  0.49878615  0.33284164  0.75098766  1
  Na  Na20  1  0.50098365  0.66728390  0.00029495  1
  Na  Na21  1  0.49984803  0.66720563  0.24955233  1
  Na  Na22  1  0.49785433  0.66645811  0.50009711  1
  Na  Na23  1  0.50033976  0.66761873  0.74963641  1
  Na  Na24  1  0.25212431  0.00070231  0.12596724  1
  Na  Na25  1  0.24976487  0.00006757  0.37613274  1
  Na  Na26  1  0.24875095  -0.00073365  0.62400198  1
  Na  Na27  1  0.25123178  0.00011916  0.87418482  1
  Na  Na28  1  0.25177658  0.33441998  0.12507195  1
  Na  Na29  1  0.25056950  0.33355830  0.37497366  1
  Na  Na30  1  0.24830459  0.33280584  0.62582749  1
  Na  Na31  1  0.24929658  0.33342023  0.87494137  1
  Na  Na32  1  0.25160576  0.66704226  0.12527276  1
  Na  Na33  1  0.25343164  0.66792136  0.37632289  1
  Na  Na34  1  0.25071950  0.66713794  0.62378548  1
  Na  Na35  1  0.24865906  0.66613726  0.87409573  1
  Na  Na36  1  0.75195004  0.00009081  0.12496632  1
  Na  Na37  1  0.75126734  -0.00000730  0.37507735  1
  Na  Na38  1  0.75176951  -0.00012593  0.62445057  1
  Na  Na39  1  0.75012345  -0.00114477  0.87466568  1
  Na  Na40  1  0.74965058  0.33326583  0.12505926  1
  Na  Na41  1  0.75117278  0.33359316  0.37386812  1
  Na  Na42  1  0.75097989  0.33328706  0.62585411  1
  Na  Na43  1  0.74964847  0.33328341  0.87452123  1
  Na  Na44  1  0.74918295  0.66667865  0.12510184  1
  Na  Na45  1  0.74794636  0.66616453  0.37484165  1
  Na  Na46  1  0.74837060  0.66674092  0.62529739  1
  Na  Na47  1  0.75025593  0.66776036  0.87554235  1
  Na  Na48  1  -0.00113348  0.16705412  0.00055482  1
  Na  Na49  1  -0.00221343  0.16724266  0.25100852  1
  Na  Na50  1  0.00109426  0.16546724  0.49882887  1
  Na  Na51  1  0.00083574  0.16614691  0.74917446  1
  Na  Na52  1  0.00225152  0.49980653  -0.00004188  1
  Na  Na53  1  -0.00086301  0.50050661  0.25045123  1
  Na  Na54  1  -0.00002771  0.50010116  0.50024633  1
  Na  Na55  1  0.00365722  0.49921799  0.74937962  1
  Na  Na56  1  -0.00283746  0.83364172  -0.00000351  1
  Na  Na57  1  -0.00214498  0.83404268  0.24998129  1
  Na  Na58  1  -0.00039943  0.83348814  0.49987544  1
  Na  Na59  1  -0.00228474  0.83385598  0.75053360  1
  Na  Na60  1  0.49918888  0.16707551  0.00019254  1
  Na  Na61  1  0.49907784  0.16727878  0.25012492  1
  Na  Na62  1  0.50128306  0.16589935  0.49893192  1
  Na  Na63  1  0.49896942  0.16737397  0.75059466  1
  Na  Na64  1  0.49992465  0.50007831  0.00076203  1
  Na  Na65  1  0.49935226  0.49987057  0.24937847  1
  Na  Na66  1  0.49790274  0.50123183  0.50027718  1
  Na  Na67  1  0.50025987  0.50004124  0.75022887  1
  Na  Na68  1  0.50054461  0.83291000  0.00016161  1
  Na  Na69  1  0.50049825  0.83294947  0.24948039  1
  Na  Na70  1  0.49856644  0.83383314  0.49993192  1
  Na  Na71  1  0.49992543  0.83271020  0.74976260  1
  Na  Na72  1  0.25313307  0.16546615  0.12626731  1
  Na  Na73  1  0.24813001  0.16720104  0.37510431  1
  Na  Na74  1  0.24864294  0.16644385  0.62492060  1
  Na  Na75  1  0.25028232  0.16659636  0.87433228  1
  Na  Na76  1  0.24950864  0.49989565  0.12473521  1
  Na  Na77  1  0.25168918  0.49926201  0.37627525  1
  Na  Na78  1  0.24881930  0.50062233  0.62441952  1
  Na  Na79  1  0.24815972  0.50031744  0.87444126  1
  Na  Na80  1  0.25280480  0.83263759  0.12533678  1
  Na  Na81  1  0.25340774  0.83265287  0.37617306  1
  Na  Na82  1  0.25043736  0.83358710  0.62425594  1
  Na  Na83  1  0.25137118  0.83261837  0.87426647  1
  Na  Na84  1  0.75138310  0.16595512  0.12612182  1
  Na  Na85  1  0.74951926  0.16715006  0.37383840  1
  Na  Na86  1  0.75113727  0.16614094  0.62561680  1
  Na  Na87  1  0.74977638  0.16746610  0.87402478  1
  Na  Na88  1  0.75021766  0.49980189  0.12429257  1
  Na  Na89  1  0.75045518  0.49966038  0.37454950  1
  Na  Na90  1  0.75020180  0.49973758  0.62515571  1
  Na  Na91  1  0.74837358  0.50100335  0.87608164  1
  Na  Na92  1  0.74934969  0.83361117  0.12467821  1
  Na  Na93  1  0.75005471  0.83328368  0.37564804  1
  Na  Na94  1  0.75003361  0.83356810  0.62474800  1
  Na  Na95  1  0.75099595  0.83262372  0.87483316  1
  Mn  Mn96  1  0.35752199  0.08285800  0.75150666  1
  Mn  Mn97  1  0.85844535  0.41693865  0.00251571  1
  Mn  Mn98  1  0.39189639  0.58360764  0.87716277  1
  Mn  Mn99  1  0.39248918  0.91710110  0.12755240  1
  Mn  Mn100  1  0.85812686  0.08344502  0.00238195  1
  Mn  Mn101  1  0.60671584  0.75057784  0.37311513  1
  Mn  Mn102  1  0.64198000  0.24994320  0.74689705  1
  Mn  Mn103  1  0.39157591  0.25002883  0.87779984  1
  Mn  Mn104  1  0.14148836  0.24996069  0.74705402  1
  Mn  Mn105  1  0.35676155  0.41727776  0.75170450  1
  Mn  Mn106  1  0.14298342  0.91614413  0.24813013  1
  Mn  Mn107  1  0.60739344  0.41723765  0.87300758  1
  Mn  Mn108  1  0.10840042  0.75037683  0.37249186  1
  Mn  Mn109  1  0.60791467  0.08269322  0.87284033  1
  Mn  Mn110  1  0.14224199  0.91635070  0.99835320  1
  Mn  Mn111  1  0.39247228  0.24952366  0.37795938  1
  Mn  Mn112  1  0.10819368  0.08307750  0.87373237  1
  Mn  Mn113  1  0.14169323  0.91564894  0.74771000  1
  Mn  Mn114  1  0.60753389  0.41662996  0.62256122  1
  Mn  Mn115  1  0.85769864  0.74965440  0.50301490  1
  Mn  Mn116  1  0.64267257  0.25002507  0.24700218  1
  Mn  Mn117  1  0.14310607  0.58365330  0.24818256  1
  Mn  Mn118  1  0.64229430  0.91769218  0.49778652  1
  Mn  Mn119  1  0.85836727  0.41807076  0.75240819  1
  Mn  Mn120  1  0.10800565  0.74985742  0.12286996  1
  Mn  Mn121  1  0.39198151  0.58273815  0.12724830  1
  Mn  Mn122  1  0.89180552  0.24957251  0.37816224  1
  Mn  Mn123  1  0.60787143  0.08397488  0.12274249  1
  Mn  Mn124  1  0.14296699  0.58385224  0.49753245  1
  Mn  Mn125  1  0.10736504  0.41675660  0.37248588  1
  Mn  Mn126  1  0.64143316  0.58215780  0.49785911  1
  Mn  Mn127  1  0.89247843  0.25021307  0.87751882  1
  Mn  Mn128  1  0.89257354  0.58374654  0.62799944  1
  Mn  Mn129  1  0.89103598  0.58431818  0.37712048  1
  Mn  Mn130  1  0.10747523  0.08352081  0.12330292  1
  Mn  Mn131  1  0.35722636  0.08356570  0.50214290  1
  Mn  Mn132  1  0.64293351  0.91726240  0.99765735  1
  Mn  Mn133  1  0.85688716  0.74962547  0.25207475  1
  Mn  Mn134  1  0.39265622  0.91649332  0.87708265  1
  Mn  Mn135  1  0.85862462  0.08263866  0.75216610  1
  Mn  Mn136  1  0.35765120  0.41605393  0.50310148  1
  Mn  Mn137  1  0.89282381  0.58326651  0.87677298  1
  Mn  Mn138  1  0.64238569  0.58308662  0.99777182  1
  Mn  Mn139  1  0.60803617  0.41672233  0.37264346  1
  Mn  Mn140  1  0.14250231  0.24969238  0.99904498  1
  Mn  Mn141  1  0.14273058  0.25027393  0.24722435  1
  Mn  Mn142  1  0.60792738  0.08331109  0.62229602  1
  Mn  Mn143  1  0.10769558  0.75048453  0.87313193  1
  Fe  Fe144  1  0.35786680  0.08323198  0.25312685  1
  Fe  Fe145  1  0.89324860  0.24966086  0.62545810  1
  Fe  Fe146  1  0.10683290  0.41634703  0.62236814  1
  Fe  Fe147  1  0.14265007  0.91680006  0.49802825  1
  Fe  Fe148  1  0.85676398  0.74956923  0.75116522  1
  Fe  Fe149  1  0.39290519  0.58360771  0.37621385  1
  Fe  Fe150  1  0.35800451  0.08330004  0.00187930  1
  Fe  Fe151  1  0.89207737  0.25060406  0.12636603  1
  Fe  Fe152  1  0.39274185  0.25037155  0.12640808  1
  Fe  Fe153  1  0.10824906  0.41623613  0.87348459  1
  Fe  Fe154  1  0.35800986  0.74968491  0.00103547  1
  Fe  Fe155  1  0.60713040  0.74963750  0.12321717  1
  Fe  Fe156  1  0.14178165  0.24942779  0.49862116  1
  Fe  Fe157  1  0.10733525  0.75056993  0.62352948  1
  Fe  Fe158  1  0.89198910  0.91679921  0.87635056  1
  Fe  Fe159  1  0.64258335  0.24988389  0.99906648  1
  Fe  Fe160  1  0.89291697  0.58294286  0.12667356  1
  Fe  Fe161  1  0.14279020  0.58438194  0.74755673  1
  Fe  Fe162  1  0.85725422  0.08311765  0.25212731  1
  Fe  Fe163  1  0.85749173  0.08414006  0.50152324  1
  Fe  Fe164  1  0.60631191  0.75012315  0.62375486  1
  Fe  Fe165  1  0.89329766  0.91650055  0.62634111  1
  Fe  Fe166  1  0.64311955  0.24982889  0.49932642  1
  Fe  Fe167  1  0.10739026  0.41667918  0.12422042  1
  Fe  Fe168  1  0.35874436  0.74998321  0.25196481  1
  Fe  Fe169  1  0.39216202  0.24985708  0.62576332  1
  Fe  Fe170  1  0.85709226  0.41707958  0.25058654  1
  Fe  Fe171  1  0.89238912  0.91627684  0.37687908  1
  Fe  Fe172  1  0.35747312  0.75060453  0.50282177  1
  Fe  Fe173  1  0.10691072  0.08291864  0.62251607  1
  Fe  Fe174  1  0.60793079  0.75005609  0.87288537  1
  Fe  Fe175  1  0.64179311  0.58346980  0.24791636  1
  Fe  Fe176  1  0.85709554  0.74945194  0.00197072  1
  Fe  Fe177  1  0.10638984  0.08272460  0.37275675  1
  Fe  Fe178  1  0.60796591  0.08268362  0.37323561  1
  Fe  Fe179  1  0.64294305  0.91636380  0.24873998  1
  Fe  Fe180  1  0.35661319  0.41676026  0.00214123  1
  Fe  Fe181  1  0.64224184  0.58402372  0.74835137  1
  Fe  Fe182  1  0.64319892  0.91599253  0.74786194  1
  Fe  Fe183  1  0.35781365  0.41683173  0.25162225  1
  Fe  Fe184  1  0.89205797  0.91639834  0.12770388  1
  Fe  Fe185  1  0.39316299  0.91688422  0.37658205  1
  Fe  Fe186  1  0.39263442  0.58324679  0.62761427  1
  Fe  Fe187  1  0.35721500  0.74972412  0.75151223  1
  Fe  Fe188  1  0.39248579  0.91696606  0.62708424  1
  Fe  Fe189  1  0.60704743  0.41652477  0.12344733  1
  Fe  Fe190  1  0.14267598  0.58378886  0.99918458  1
  Fe  Fe191  1  0.85733113  0.41631953  0.50199903  1
  P  P192  1  0.05171431  0.25071006  0.11095992  1
  P  P193  1  0.05451941  0.24901467  0.36104386  1
  P  P194  1  0.05257109  0.24982608  0.60881548  1
  P  P195  1  0.05373539  0.25040210  0.86023476  1
  P  P196  1  0.05304505  0.58280957  0.10992976  1
  P  P197  1  0.05304110  0.58371820  0.35975624  1
  P  P198  1  0.05491908  0.58419946  0.61122109  1
  P  P199  1  0.05609507  0.58289903  0.86070657  1
  P  P200  1  0.05174838  0.91654245  0.11050222  1
  P  P201  1  0.05333850  0.91710392  0.36100236  1
  P  P202  1  0.05303598  0.91596400  0.60938934  1
  P  P203  1  0.05172853  0.91660075  0.86015864  1
  P  P204  1  0.55271404  0.25095020  0.10968134  1
  P  P205  1  0.55544572  0.24894151  0.36111893  1
  P  P206  1  0.55216199  0.25012687  0.60890938  1
  P  P207  1  0.55432332  0.24998202  0.86118936  1
  P  P208  1  0.55454576  0.58322152  0.11127998  1
  P  P209  1  0.55245886  0.58350594  0.35928907  1
  P  P210  1  0.55283495  0.58438657  0.61132491  1
  P  P211  1  0.55388429  0.58446596  0.85944115  1
  P  P212  1  0.55498437  0.91599745  0.11128135  1
  P  P213  1  0.55289659  0.91751753  0.35937194  1
  P  P214  1  0.55321940  0.91560499  0.61124676  1
  P  P215  1  0.55448883  0.91554570  0.85930755  1
  P  P216  1  0.44493200  0.08451484  0.13971744  1
  P  P217  1  0.44708445  0.08224560  0.38911497  1
  P  P218  1  0.44656801  0.08369099  0.63961398  1
  P  P219  1  0.44621650  0.08289265  0.89081629  1
  P  P220  1  0.44591849  0.41586404  0.13928752  1
  P  P221  1  0.44556023  0.41748593  0.38893159  1
  P  P222  1  0.44640764  0.41611602  0.64006251  1
  P  P223  1  0.44531634  0.41734929  0.89096511  1
  P  P224  1  0.44599369  0.74978184  0.13918313  1
  P  P225  1  0.44446943  0.75032561  0.38943264  1
  P  P226  1  0.44527426  0.75030836  0.63943920  1
  P  P227  1  0.44667399  0.74983602  0.88939984  1
  P  P228  1  0.94555487  0.08343916  0.14114937  1
  P  P229  1  0.94525433  0.08222823  0.38948001  1
  P  P230  1  0.94659011  0.08328509  0.63777951  1
  P  P231  1  0.94692635  0.08253524  0.88996520  1
  P  P232  1  0.94742534  0.41716253  0.14054210  1
  P  P233  1  0.94416656  0.41722464  0.38959100  1
  P  P234  1  0.94666273  0.41592672  0.63852126  1
  P  P235  1  0.94868704  0.41725311  0.88997349  1
  P  P236  1  0.94523264  0.74937176  0.13874432  1
  P  P237  1  0.94642026  0.75058631  0.39017378  1
  P  P238  1  0.94739462  0.75073835  0.64080374  1
  P  P239  1  0.94444289  0.75056118  0.88924914  1
  P  P240  1  0.19708238  0.08298580  0.23648959  1
  P  P241  1  0.19392098  0.08308376  0.48556200  1
  P  P242  1  0.19542707  0.08270772  0.73380726  1
  P  P243  1  0.19862241  0.08324280  0.98557854  1
  P  P244  1  0.19774197  0.41691079  0.23473757  1
  P  P245  1  0.19510140  0.41558557  0.48611865  1
  P  P246  1  0.19416355  0.41770436  0.73517578  1
  P  P247  1  0.19573343  0.41717760  0.98623983  1
  P  P248  1  0.19915497  0.75015919  0.23537242  1
  P  P249  1  0.19682186  0.75127471  0.48629527  1
  P  P250  1  0.19720058  0.74963428  0.73392543  1
  P  P251  1  0.19820822  0.74959179  0.98518258  1
  P  P252  1  0.69681909  0.08193538  0.23622295  1
  P  P253  1  0.69763237  0.08419719  0.48438992  1
  P  P254  1  0.69692937  0.08186185  0.73472924  1
  P  P255  1  0.69712627  0.08437183  0.98499854  1
  P  P256  1  0.69684199  0.41745793  0.23412483  1
  P  P257  1  0.69798262  0.41535952  0.48505370  1
  P  P258  1  0.69651490  0.41793472  0.73510812  1
  P  P259  1  0.69561046  0.41549249  0.98634438  1
  P  P260  1  0.69511871  0.75036300  0.23481826  1
  P  P261  1  0.69494907  0.75013510  0.48632853  1
  P  P262  1  0.69558118  0.75017740  0.73552828  1
  P  P263  1  0.69605178  0.75007880  0.98553329  1
  P  P264  1  0.30391202  0.25016906  0.01581354  1
  P  P265  1  0.30524419  0.25031032  0.26412085  1
  P  P266  1  0.30186105  0.24952656  0.51575598  1
  P  P267  1  0.30399542  0.25000357  0.76370911  1
  P  P268  1  0.30230321  0.58325049  0.01459064  1
  P  P269  1  0.30448125  0.58293711  0.26582542  1
  P  P270  1  0.30592676  0.58399689  0.51458041  1
  P  P271  1  0.30319378  0.58422320  0.76347450  1
  P  P272  1  0.30386884  0.91636945  0.01493710  1
  P  P273  1  0.30474039  0.91682925  0.26624655  1
  P  P274  1  0.30435352  0.91667414  0.51436638  1
  P  P275  1  0.30445700  0.91566932  0.76344359  1
  P  P276  1  0.80270532  0.25022373  0.01577852  1
  P  P277  1  0.80521877  0.25038826  0.26346371  1
  P  P278  1  0.80284323  0.24967184  0.51546156  1
  P  P279  1  0.80510380  0.25018400  0.76364314  1
  P  P280  1  0.80430260  0.58404536  0.01551721  1
  P  P281  1  0.80255173  0.58270009  0.26337467  1
  P  P282  1  0.80281993  0.58269292  0.51553731  1
  P  P283  1  0.80188565  0.58453058  0.76521096  1
  P  P284  1  0.80539129  0.91562347  0.01443698  1
  P  P285  1  0.80390804  0.91676655  0.26476557  1
  P  P286  1  0.80532995  0.91759493  0.51444446  1
  P  P287  1  0.80435899  0.91525991  0.76375044  1
  O  O288  1  0.05547596  0.25008494  0.18767818  1
  O  O289  1  0.05857461  0.24976360  0.43774845  1
  O  O290  1  0.05570855  0.24991387  0.68559828  1
  O  O291  1  0.05670848  0.24986854  0.93704241  1
  O  O292  1  0.05683666  0.58380854  0.18664687  1
  O  O293  1  0.05688013  0.58367044  0.43653987  1
  O  O294  1  0.05862554  0.58455633  0.68804046  1
  O  O295  1  0.06000209  0.58401113  0.93752626  1
  O  O296  1  0.05630160  0.91626690  0.18718851  1
  O  O297  1  0.05836873  0.91623736  0.43763839  1
  O  O298  1  0.05622026  0.91582960  0.68614210  1
  O  O299  1  0.05571020  0.91622269  0.93686416  1
  O  O300  1  0.55655900  0.25024663  0.18647428  1
  O  O301  1  0.55998163  0.24966147  0.43782870  1
  O  O302  1  0.55579745  0.25016270  0.68570319  1
  O  O303  1  0.55877147  0.24991196  0.93789955  1
  O  O304  1  0.55815616  0.58322114  0.18806584  1
  O  O305  1  0.55593309  0.58321890  0.43610430  1
  O  O306  1  0.55792579  0.58378821  0.68794481  1
  O  O307  1  0.55695148  0.58377808  0.93627754  1
  O  O308  1  0.55889940  0.91676655  0.18800685  1
  O  O309  1  0.55637522  0.91710267  0.43616226  1
  O  O310  1  0.55831899  0.91613030  0.68784087  1
  O  O311  1  0.55737960  0.91628762  0.93616145  1
  O  O312  1  0.44089962  0.08339885  0.06292138  1
  O  O313  1  0.44235231  0.08318842  0.31241747  1
  O  O314  1  0.44367695  0.08331557  0.56280766  1
  O  O315  1  0.44291609  0.08296462  0.81402012  1
  O  O316  1  0.44094324  0.41694437  0.06261436  1
  O  O317  1  0.44179682  0.41661575  0.31215710  1
  O  O318  1  0.44391186  0.41629463  0.56320205  1
  O  O319  1  0.44185921  0.41741411  0.81418255  1
  O  O320  1  0.44114713  0.74966928  0.06246483  1
  O  O321  1  0.44151829  0.75031303  0.31251444  1
  O  O322  1  0.44115808  0.75046895  0.56263276  1
  O  O323  1  0.44146329  0.74958092  0.81275531  1
  O  O324  1  0.94309544  0.08359879  0.06430448  1
  O  O325  1  0.94045348  0.08302842  0.31279469  1
  O  O326  1  0.94214376  0.08355433  0.56110976  1
  O  O327  1  0.94448876  0.08303397  0.81310586  1
  O  O328  1  0.94441584  0.41711810  0.06376882  1
  O  O329  1  0.93973853  0.41739673  0.31283570  1
  O  O330  1  0.94155872  0.41671738  0.56182836  1
  O  O331  1  0.94475638  0.41768062  0.81322994  1
  O  O332  1  0.94155363  0.74930353  0.06199283  1
  O  O333  1  0.94274309  0.74981487  0.31340312  1
  O  O334  1  0.94368530  0.74964941  0.56408030  1
  O  O335  1  0.94040176  0.74946567  0.81249388  1
  O  O336  1  0.19445484  0.08326222  0.06231028  1
  O  O337  1  0.19136428  0.08297552  0.31309396  1
  O  O338  1  0.18983769  0.08294724  0.56240130  1
  O  O339  1  0.19279376  0.08279898  0.81065812  1
  O  O340  1  0.19089879  0.41642328  0.06297348  1
  O  O341  1  0.19359450  0.41660164  0.31145966  1
  O  O342  1  0.19062294  0.41610911  0.56291154  1
  O  O343  1  0.19107684  0.41640778  0.81206033  1
  O  O344  1  0.19446651  0.75029813  0.06190516  1
  O  O345  1  0.19509398  0.75036956  0.31207527  1
  O  O346  1  0.19154762  0.75082021  0.56287540  1
  O  O347  1  0.19343177  0.75050523  0.81066181  1
  O  O348  1  0.69414906  0.08346318  0.06183637  1
  O  O349  1  0.69204696  0.08244092  0.31289544  1
  O  O350  1  0.69389519  0.08304438  0.56114024  1
  O  O351  1  0.69375175  0.08254344  0.81149648  1
  O  O352  1  0.69119670  0.41615550  0.06306635  1
  O  O353  1  0.69342246  0.41688366  0.31089637  1
  O  O354  1  0.69398396  0.41616777  0.56174786  1
  O  O355  1  0.69324290  0.41728616  0.81189432  1
  O  O356  1  0.69102459  0.74997500  0.06220227  1
  O  O357  1  0.69234338  0.75031154  0.31167487  1
  O  O358  1  0.69039224  0.75035990  0.56306976  1
  O  O359  1  0.69181946  0.75027665  0.81230541  1
  O  O360  1  0.30916874  0.25028418  0.18739575  1
  O  O361  1  0.30626814  0.24961240  0.43902538  1
  O  O362  1  0.30836875  0.24992873  0.68697690  1
  O  O363  1  0.30584624  0.25023670  0.93892125  1
  O  O364  1  0.30664767  0.58285364  0.18893739  1
  O  O365  1  0.30997350  0.58320911  0.43783320  1
  O  O366  1  0.30818091  0.58344669  0.68679651  1
  O  O367  1  0.30529807  0.58313866  0.93787246  1
  O  O368  1  0.30739111  0.91690994  0.18939821  1
  O  O369  1  0.30931948  0.91744058  0.43774315  1
  O  O370  1  0.30848278  0.91663510  0.68666659  1
  O  O371  1  0.30636225  0.91636284  0.93812869  1
  O  O372  1  0.80914929  0.25034686  0.18672496  1
  O  O373  1  0.80582502  0.24959349  0.43860629  1
  O  O374  1  0.81013991  0.24993479  0.68692314  1
  O  O375  1  0.80630439  0.25054276  0.93898555  1
  O  O376  1  0.80785270  0.58325045  0.18678319  1
  O  O377  1  0.80557884  0.58376209  0.43870819  1
  O  O378  1  0.80593940  0.58369143  0.68850811  1
  O  O379  1  0.80735318  0.58325992  0.93873076  1
  O  O380  1  0.80834938  0.91625594  0.18798266  1
  O  O381  1  0.80908690  0.91635964  0.43764172  1
  O  O382  1  0.80935875  0.91624833  0.68704285  1
  O  O383  1  0.80884473  0.91644637  0.93759744  1
  O  O384  1  0.23444630  0.25001193  0.04190676  1
  O  O385  1  0.23525957  0.25031601  0.28862531  1
  O  O386  1  0.23165313  0.24924348  0.53961153  1
  O  O387  1  0.23394532  0.24992862  0.78780182  1
  O  O388  1  0.23246331  0.58357006  0.04005096  1
  O  O389  1  0.23505259  0.58331689  0.29195632  1
  O  O390  1  0.23571574  0.58361025  0.53827971  1
  O  O391  1  0.23289355  0.58388593  0.78713712  1
  O  O392  1  0.23448363  0.91644651  0.04120317  1
  O  O393  1  0.23510791  0.91656103  0.29168193  1
  O  O394  1  0.23380078  0.91693070  0.53761075  1
  O  O395  1  0.23454726  0.91601627  0.78797938  1
  O  O396  1  0.73281104  0.24968328  0.04073232  1
  O  O397  1  0.73515610  0.25046922  0.28766250  1
  O  O398  1  0.73291925  0.24954912  0.54063316  1
  O  O399  1  0.73486850  0.25034130  0.78710786  1
  O  O400  1  0.73441960  0.58336983  0.04009777  1
  O  O401  1  0.73215698  0.58319216  0.28712611  1
  O  O402  1  0.73311889  0.58296869  0.54072378  1
  O  O403  1  0.73193968  0.58467171  0.78995063  1
  O  O404  1  0.73541485  0.91671296  0.03888421  1
  O  O405  1  0.73358277  0.91610671  0.28864869  1
  O  O406  1  0.73521871  0.91707109  0.53853877  1
  O  O407  1  0.73398698  0.91545326  0.78738567  1
  O  O408  1  0.26769388  0.08298181  0.21373410  1
  O  O409  1  0.26413056  0.08341209  0.46165472  1
  O  O410  1  0.26512078  0.08267087  0.70865248  1
  O  O411  1  0.26863887  0.08346613  0.96094184  1
  O  O412  1  0.26796145  0.41707306  0.21076467  1
  O  O413  1  0.26526676  0.41620740  0.46235012  1
  O  O414  1  0.26406765  0.41727593  0.71046287  1
  O  O415  1  0.26614401  0.41659411  0.96244866  1
  O  O416  1  0.26937118  0.74991749  0.21130820  1
  O  O417  1  0.26742598  0.75074046  0.46330072  1
  O  O418  1  0.26724769  0.74997015  0.70939724  1
  O  O419  1  0.26819706  0.74942575  0.96027224  1
  O  O420  1  0.76720999  0.08276940  0.21258628  1
  O  O421  1  0.76774294  0.08384862  0.45998454  1
  O  O422  1  0.76670967  0.08224751  0.70981366  1
  O  O423  1  0.76666326  0.08372542  0.95945731  1
  O  O424  1  0.76698839  0.41662471  0.20967833  1
  O  O425  1  0.76798013  0.41595672  0.46037639  1
  O  O426  1  0.76631564  0.41722011  0.71022298  1
  O  O427  1  0.76562034  0.41690594  0.96196657  1
  O  O428  1  0.76484207  0.75022485  0.20967766  1
  O  O429  1  0.76501022  0.75004951  0.46229827  1
  O  O430  1  0.76582749  0.75017748  0.71112933  1
  O  O431  1  0.76652721  0.74979364  0.96229895  1
  O  O432  1  0.01518460  0.08324314  0.16681208  1
  O  O433  1  0.01567737  0.08262663  0.41282971  1
  O  O434  1  0.01694150  0.08284510  0.66183822  1
  O  O435  1  0.01624112  0.08260064  0.91620990  1
  O  O436  1  0.01741620  0.41722115  0.16573559  1
  O  O437  1  0.01438975  0.41689319  0.41314231  1
  O  O438  1  0.01714833  0.41652185  0.66189191  1
  O  O439  1  0.01869994  0.41705341  0.91446371  1
  O  O440  1  0.01508737  0.74994073  0.16375785  1
  O  O441  1  0.01616286  0.75036304  0.41505597  1
  O  O442  1  0.01750444  0.75083861  0.66527789  1
  O  O443  1  0.01455950  0.74993730  0.91344933  1
  O  O444  1  0.51510398  0.08404983  0.16362827  1
  O  O445  1  0.51733761  0.08243622  0.41306058  1
  O  O446  1  0.51615849  0.08372303  0.66517189  1
  O  O447  1  0.51596929  0.08287522  0.91574953  1
  O  O448  1  0.51631873  0.41650828  0.16298921  1
  O  O449  1  0.51550995  0.41718837  0.41351173  1
  O  O450  1  0.51587040  0.41628771  0.66594197  1
  O  O451  1  0.51518381  0.41715512  0.91549653  1
  O  O452  1  0.51638108  0.74972205  0.16265289  1
  O  O453  1  0.51435564  0.75030957  0.41431922  1
  O  O454  1  0.51561489  0.75019621  0.66337056  1
  O  O455  1  0.51710084  0.75002954  0.91279377  1
  O  O456  1  0.48257235  0.25024318  0.08548243  1
  O  O457  1  0.48530039  0.24963136  0.33730199  1
  O  O458  1  0.48217467  0.24982473  0.58409870  1
  O  O459  1  0.48416940  0.25010193  0.83737769  1
  O  O460  1  0.48462407  0.58341640  0.08650665  1
  O  O461  1  0.48241947  0.58376936  0.33479404  1
  O  O462  1  0.48240499  0.58410187  0.58781009  1
  O  O463  1  0.48412331  0.58392890  0.83451944  1
  O  O464  1  0.48498524  0.91620852  0.08683096  1
  O  O465  1  0.48287823  0.91674983  0.33473983  1
  O  O466  1  0.48280879  0.91618269  0.58758328  1
  O  O467  1  0.48474834  0.91615581  0.83432501  1
  O  O468  1  0.98170552  0.25059926  0.08611293  1
  O  O469  1  0.98429956  0.24958380  0.33733805  1
  O  O470  1  0.98258772  0.24956333  0.58373386  1
  O  O471  1  0.98424353  0.25022424  0.83450817  1
  O  O472  1  0.98295725  0.58278660  0.08537001  1
  O  O473  1  0.98322445  0.58377811  0.33517928  1
  O  O474  1  0.98494655  0.58374423  0.58665596  1
  O  O475  1  0.98600569  0.58347315  0.83640676  1
  O  O476  1  0.98142433  0.91647376  0.08685962  1
  O  O477  1  0.98292293  0.91703483  0.33746583  1
  O  O478  1  0.98286418  0.91623295  0.58489198  1
  O  O479  1  0.98175856  0.91670279  0.83544456  1
  O  O480  1  0.08569924  0.31584325  0.07868511  1
  O  O481  1  0.08807130  0.31393485  0.32764803  1
  O  O482  1  0.08658603  0.31488879  0.57620494  1
  O  O483  1  0.08792006  0.31562731  0.82814143  1
  O  O484  1  0.08698882  0.64771762  0.07662134  1
  O  O485  1  0.08705700  0.64877067  0.32715546  1
  O  O486  1  0.08824220  0.64959434  0.57830888  1
  O  O487  1  0.09001782  0.64777253  0.82733175  1
  O  O488  1  0.08516567  0.98178140  0.07764096  1
  O  O489  1  0.08651326  0.98237279  0.32787160  1
  O  O490  1  0.08709147  0.98088399  0.57658402  1
  O  O491  1  0.08580002  0.98151260  0.82756110  1
  O  O492  1  0.58632788  0.31616844  0.07711622  1
  O  O493  1  0.58901244  0.31389453  0.32767924  1
  O  O494  1  0.58624245  0.31514152  0.57619715  1
  O  O495  1  0.58766701  0.31508566  0.82790074  1
  O  O496  1  0.58829243  0.64833594  0.07843607  1
  O  O497  1  0.58656995  0.64853851  0.32684487  1
  O  O498  1  0.58586707  0.64953778  0.57802520  1
  O  O499  1  0.58788947  0.64966797  0.82712623  1
  O  O500  1  0.58851972  0.98107046  0.07806669  1
  O  O501  1  0.58692719  0.98252221  0.32672852  1
  O  O502  1  0.58662858  0.98058031  0.57755167  1
  O  O503  1  0.58914250  0.98023621  0.82660961  1
  O  O504  1  0.41117149  0.01960319  0.17316575  1
  O  O505  1  0.41368090  0.01705711  0.42202213  1
  O  O506  1  0.41248174  0.01849607  0.67201152  1
  O  O507  1  0.41220188  0.01779888  0.92335970  1
  O  O508  1  0.41287270  0.35063936  0.17251269  1
  O  O509  1  0.41175880  0.35255656  0.42223681  1
  O  O510  1  0.41218523  0.35077706  0.67180832  1
  O  O511  1  0.41098765  0.35249095  0.92355831  1
  O  O512  1  0.41251293  0.68484340  0.17261084  1
  O  O513  1  0.41060486  0.68524041  0.42208481  1
  O  O514  1  0.41178156  0.68527962  0.67277037  1
  O  O515  1  0.41332969  0.68490300  0.92313939  1
  O  O516  1  0.91103002  0.01826263  0.17322156  1
  O  O517  1  0.91191508  0.01726403  0.42264917  1
  O  O518  1  0.91322551  0.01803937  0.67090088  1
  O  O519  1  0.91226163  0.01747052  0.92163225  1
  O  O520  1  0.91314456  0.35221071  0.17306033  1
  O  O521  1  0.91062717  0.35206513  0.42277934  1
  O  O522  1  0.91392963  0.35051076  0.67146094  1
  O  O523  1  0.91470351  0.35224990  0.92260870  1
  O  O524  1  0.91183404  0.68395109  0.17161707  1
  O  O525  1  0.91232683  0.68565183  0.42307526  1
  O  O526  1  0.91340551  0.68591003  0.67412507  1
  O  O527  1  0.91053199  0.68582828  0.92275599  1
  O  O528  1  0.16412003  0.01794961  0.20277585  1
  O  O529  1  0.16064433  0.01769665  0.45255754  1
  O  O530  1  0.16101309  0.01773847  0.70148595  1
  O  O531  1  0.16493086  0.01810960  0.95273753  1
  O  O532  1  0.16394695  0.35203545  0.20145649  1
  O  O533  1  0.16207345  0.35027465  0.45311303  1
  O  O534  1  0.15997941  0.35293785  0.70194020  1
  O  O535  1  0.16211451  0.35225137  0.95267164  1
  O  O536  1  0.16533363  0.68512569  0.20260539  1
  O  O537  1  0.16382127  0.68627710  0.45246816  1
  O  O538  1  0.16327967  0.68457059  0.70134283  1
  O  O539  1  0.16403918  0.68455949  0.95292864  1
  O  O540  1  0.66393495  0.01674501  0.20291396  1
  O  O541  1  0.66350036  0.01930237  0.45123980  1
  O  O542  1  0.66319461  0.01654067  0.70234936  1
  O  O543  1  0.66276204  0.01936345  0.95254842  1
  O  O544  1  0.66247822  0.35262060  0.20130500  1
  O  O545  1  0.66447291  0.35008686  0.45254155  1
  O  O546  1  0.66221434  0.35307676  0.70233786  1
  O  O547  1  0.66278987  0.34993836  0.95350142  1
  O  O548  1  0.66080019  0.68537270  0.20235456  1
  O  O549  1  0.66131322  0.68508260  0.45331389  1
  O  O550  1  0.66171284  0.68513776  0.70254120  1
  O  O551  1  0.66252147  0.68521462  0.95198012  1
  O  O552  1  0.33832401  0.31542083  0.04781172  1
  O  O553  1  0.33876854  0.31559353  0.29692766  1
  O  O554  1  0.33564521  0.31443596  0.54885342  1
  O  O555  1  0.33731258  0.31514506  0.79690737  1
  O  O556  1  0.33681054  0.64813418  0.04692991  1
  O  O557  1  0.33929751  0.64795644  0.29765617  1
  O  O558  1  0.33921676  0.64932634  0.54743877  1
  O  O559  1  0.33632886  0.64955317  0.79656465  1
  O  O560  1  0.33835134  0.98140934  0.04715837  1
  O  O561  1  0.33896552  0.98193526  0.29872603  1
  O  O562  1  0.33769026  0.98160330  0.54810252  1
  O  O563  1  0.33831389  0.98046856  0.79668262  1
  O  O564  1  0.83672779  0.31529463  0.04848641  1
  O  O565  1  0.83868929  0.31559470  0.29626802  1
  O  O566  1  0.83711641  0.31466117  0.54788562  1
  O  O567  1  0.83840687  0.31528064  0.79699326  1
  O  O568  1  0.83795831  0.64929154  0.04797457  1
  O  O569  1  0.83572315  0.64771109  0.29724125  1
  O  O570  1  0.83705723  0.64758782  0.54834076  1
  O  O571  1  0.83596099  0.64969914  0.79735219  1
  O  O572  1  0.83970540  0.98022711  0.04770318  1
  O  O573  1  0.83733862  0.98188072  0.29782165  1
  O  O574  1  0.83866704  0.98312735  0.54683926  1
  O  O575  1  0.83791696  0.98007122  0.79757491  1
  O  O576  1  0.41159466  0.14976692  0.17251158  1
  O  O577  1  0.41345451  0.14709093  0.42269752  1
  O  O578  1  0.41239544  0.14898824  0.67156479  1
  O  O579  1  0.41187882  0.14778260  0.92336903  1
  O  O580  1  0.41217997  0.48069897  0.17288701  1
  O  O581  1  0.41204937  0.48277860  0.42142175  1
  O  O582  1  0.41206217  0.48129143  0.67226240  1
  O  O583  1  0.41144566  0.48245833  0.92367771  1
  O  O584  1  0.41270549  0.81475640  0.17275241  1
  O  O585  1  0.41073176  0.81553708  0.42219104  1
  O  O586  1  0.41184273  0.81534356  0.67263944  1
  O  O587  1  0.41318562  0.81476495  0.92284572  1
  O  O588  1  0.91124380  0.14858286  0.17328752  1
  O  O589  1  0.91186213  0.14722461  0.42319297  1
  O  O590  1  0.91352505  0.14836686  0.67120441  1
  O  O591  1  0.91259782  0.14764137  0.92217489  1
  O  O592  1  0.91312445  0.48229040  0.17297962  1
  O  O593  1  0.91072113  0.48209864  0.42305375  1
  O  O594  1  0.91352316  0.48088795  0.67251856  1
  O  O595  1  0.91495759  0.48223907  0.92289734  1
  O  O596  1  0.91105490  0.81429808  0.17157966  1
  O  O597  1  0.91244732  0.81581969  0.42236974  1
  O  O598  1  0.91315572  0.81590987  0.67280844  1
  O  O599  1  0.91100309  0.81592897  0.92178351  1
  O  O600  1  0.08557056  0.18565637  0.07804972  1
  O  O601  1  0.08757333  0.18360318  0.32814999  1
  O  O602  1  0.08680052  0.18478881  0.57644915  1
  O  O603  1  0.08798093  0.18533442  0.82778616  1
  O  O604  1  0.08719805  0.51761601  0.07778988  1
  O  O605  1  0.08690606  0.51858354  0.32717790  1
  O  O606  1  0.08880596  0.51915489  0.57845670  1
  O  O607  1  0.08959044  0.51762006  0.82821207  1
  O  O608  1  0.08533740  0.85156723  0.07727517  1
  O  O609  1  0.08651778  0.85217072  0.32715665  1
  O  O610  1  0.08692493  0.85083635  0.57663925  1
  O  O611  1  0.08544307  0.85147299  0.82720943  1
  O  O612  1  0.58701185  0.18614174  0.07679303  1
  O  O613  1  0.58848132  0.18353446  0.32807574  1
  O  O614  1  0.58665805  0.18524539  0.57639616  1
  O  O615  1  0.58767042  0.18493180  0.82777435  1
  O  O616  1  0.58803546  0.51797059  0.07850073  1
  O  O617  1  0.58652757  0.51859711  0.32648183  1
  O  O618  1  0.58590938  0.51923722  0.57756081  1
  O  O619  1  0.58839836  0.51967358  0.82678112  1
  O  O620  1  0.58839736  0.85074880  0.07848194  1
  O  O621  1  0.58718454  0.85258889  0.32671378  1
  O  O622  1  0.58616343  0.85046743  0.57779871  1
  O  O623  1  0.58836182  0.85023339  0.82705420  1
  O  O624  1  0.33870578  0.18529444  0.04782355  1
  O  O625  1  0.33876795  0.18516023  0.29738213  1
  O  O626  1  0.33585528  0.18458171  0.54852978  1
  O  O627  1  0.33755304  0.18493242  0.79680650  1
  O  O628  1  0.33617523  0.51812138  0.04733764  1
  O  O629  1  0.33879176  0.51769190  0.29782758  1
  O  O630  1  0.33955083  0.51916238  0.54819113  1
  O  O631  1  0.33646571  0.51937584  0.79722006  1
  O  O632  1  0.33831171  0.85112489  0.04684413  1
  O  O633  1  0.33930125  0.85174886  0.29818604  1
  O  O634  1  0.33773366  0.85160241  0.54765697  1
  O  O635  1  0.33796095  0.85024805  0.79597151  1
  O  O636  1  0.83726926  0.18543957  0.04824729  1
  O  O637  1  0.83851327  0.18519682  0.29670822  1
  O  O638  1  0.83708926  0.18454146  0.54779629  1
  O  O639  1  0.83818945  0.18491039  0.79690085  1
  O  O640  1  0.83879824  0.51929350  0.04833119  1
  O  O641  1  0.83571664  0.51750092  0.29647413  1
  O  O642  1  0.83689010  0.51739138  0.54745719  1
  O  O643  1  0.83577410  0.51954582  0.79830162  1
  O  O644  1  0.83845477  0.85012856  0.04718273  1
  O  O645  1  0.83769395  0.85190301  0.29814133  1
  O  O646  1  0.83932576  0.85300787  0.54814486  1
  O  O647  1  0.83757172  0.85002632  0.79680213  1
  O  O648  1  0.16418303  0.14807172  0.20268783  1
  O  O649  1  0.16018114  0.14803526  0.45253047  1
  O  O650  1  0.16099676  0.14767117  0.70138683  1
  O  O651  1  0.16472958  0.14838082  0.95300041  1
  O  O652  1  0.16381954  0.48192867  0.20202534  1
  O  O653  1  0.16162318  0.48068567  0.45289772  1
  O  O654  1  0.16053918  0.48303973  0.70290563  1
  O  O655  1  0.16268848  0.48249571  0.95320411  1
  O  O656  1  0.16553200  0.81513175  0.20228647  1
  O  O657  1  0.16408471  0.81652876  0.45272205  1
  O  O658  1  0.16303590  0.81448304  0.70088072  1
  O  O659  1  0.16443439  0.81466972  0.95214208  1
  O  O660  1  0.66328929  0.14689285  0.20272127  1
  O  O661  1  0.66371299  0.14936980  0.45215012  1
  O  O662  1  0.66280631  0.14690390  0.70209566  1
  O  O663  1  0.66315599  0.14971961  0.95315442  1
  O  O664  1  0.66300003  0.48253063  0.20157431  1
  O  O665  1  0.66381873  0.48030830  0.45213648  1
  O  O666  1  0.66291651  0.48342646  0.70285452  1
  O  O667  1  0.66134282  0.48028301  0.95331563  1
  O  O668  1  0.66111358  0.81557250  0.20246292  1
  O  O669  1  0.66158711  0.81526823  0.45309477  1
  O  O670  1  0.66189405  0.81516288  0.70219352  1
  O  O671  1  0.66299662  0.81513445  0.95190662  1
