# generated using pymatgen
data_Na2MnFe(PO4)2
_symmetry_space_group_name_H-M   'P 1'
_cell_length_a   21.08059060
_cell_length_b   18.93225263
_cell_length_c   20.04036383
_cell_angle_alpha   90.00008287
_cell_angle_beta   89.99741259
_cell_angle_gamma   89.99867588
_symmetry_Int_Tables_number   1
_chemical_formula_structural   Na2MnFe(PO4)2
_chemical_formula_sum   'Na96 Mn48 Fe48 P96 O384'
_cell_volume   7998.17065591
_cell_formula_units_Z   48
loop_
 _symmetry_equiv_pos_site_id
 _symmetry_equiv_pos_as_xyz
  1  'x, y, z'
loop_
 _atom_site_type_symbol
 _atom_site_label
 _atom_site_symmetry_multiplicity
 _atom_site_fract_x
 _atom_site_fract_y
 _atom_site_fract_z
 _atom_site_occupancy
  Na  Na0  1  0.00061518  -0.00048138  -0.00051630  1
  Na  Na1  1  0.00280622  0.00037876  0.24954220  1
  Na  Na2  1  0.00039490  0.00022962  0.49958996  1
  Na  Na3  1  -0.00241701  -0.00126407  0.75171171  1
  Na  Na4  1  0.00116407  0.33411309  0.00029703  1
  Na  Na5  1  -0.00004749  0.33343499  0.24940489  1
  Na  Na6  1  -0.00235704  0.33241805  0.50032856  1
  Na  Na7  1  -0.00002408  0.33355722  0.74988499  1
  Na  Na8  1  -0.00091020  0.66630059  0.00004373  1
  Na  Na9  1  -0.00225016  0.66582470  0.24997209  1
  Na  Na10  1  0.00088195  0.66808288  0.50019915  1
  Na  Na11  1  -0.00059447  0.66605434  0.74953622  1
  Na  Na12  1  0.50064504  0.00002239  -0.00015148  1
  Na  Na13  1  0.49846153  -0.00111977  0.25040524  1
  Na  Na14  1  0.50141508  0.00062553  0.49876132  1
  Na  Na15  1  0.50111950  0.00035112  0.75073710  1
  Na  Na16  1  0.49750282  0.33262911  -0.00013567  1
  Na  Na17  1  0.50036691  0.33457776  0.24924521  1
  Na  Na18  1  0.50044580  0.33344535  0.49977614  1
  Na  Na19  1  0.50015282  0.33345751  0.75105971  1
  Na  Na20  1  0.49914756  0.66607593  0.00132965  1
  Na  Na21  1  0.49981928  0.66705482  0.24864816  1
  Na  Na22  1  0.49944225  0.66649636  0.49974894  1
  Na  Na23  1  0.49884529  0.66610965  0.75044730  1
  Na  Na24  1  0.25092606  0.00010338  0.12622927  1
  Na  Na25  1  0.25045969  -0.00046230  0.37488374  1
  Na  Na26  1  0.25113812  0.00034673  0.62357041  1
  Na  Na27  1  0.24948832  -0.00039998  0.87515169  1
  Na  Na28  1  0.24781851  0.33308900  0.12505764  1
  Na  Na29  1  0.24990758  0.33305725  0.37452312  1
  Na  Na30  1  0.25002945  0.33321279  0.62539043  1
  Na  Na31  1  0.24857627  0.33327271  0.87449477  1
  Na  Na32  1  0.25264536  0.66798200  0.12523893  1
  Na  Na33  1  0.25198166  0.66716249  0.37517707  1
  Na  Na34  1  0.25035646  0.66690304  0.62477420  1
  Na  Na35  1  0.24950924  0.66646632  0.87539982  1
  Na  Na36  1  0.74858334  -0.00072572  0.12517752  1
  Na  Na37  1  0.74795503  -0.00131809  0.37500669  1
  Na  Na38  1  0.74952677  0.00022389  0.62542291  1
  Na  Na39  1  0.74934310  0.00003718  0.87433865  1
  Na  Na40  1  0.75129619  0.33386351  0.12527327  1
  Na  Na41  1  0.75114604  0.33398494  0.37528051  1
  Na  Na42  1  0.75123660  0.33383648  0.62420116  1
  Na  Na43  1  0.75249117  0.33471397  0.87593817  1
  Na  Na44  1  0.75021220  0.66644762  0.12507519  1
  Na  Na45  1  0.74769700  0.66582066  0.37380595  1
  Na  Na46  1  0.75118844  0.66703810  0.62483461  1
  Na  Na47  1  0.75225100  0.66694070  0.87580582  1
  Na  Na48  1  0.00076190  0.16718353  0.00007787  1
  Na  Na49  1  0.00091510  0.16679430  0.24900142  1
  Na  Na50  1  0.00075825  0.16653898  0.50085931  1
  Na  Na51  1  -0.00114450  0.16772039  0.75092248  1
  Na  Na52  1  -0.00175745  0.50015811  -0.00044299  1
  Na  Na53  1  -0.00021248  0.49896700  0.25037659  1
  Na  Na54  1  -0.00200210  0.50026262  0.49999582  1
  Na  Na55  1  -0.00019396  0.49925985  0.74934248  1
  Na  Na56  1  0.00154306  0.83250868  -0.00008267  1
  Na  Na57  1  0.00055104  0.83335393  0.24977171  1
  Na  Na58  1  -0.00082635  0.83371046  0.49906891  1
  Na  Na59  1  -0.00053096  0.83349039  0.75107499  1
  Na  Na60  1  0.50016929  0.16585405  -0.00016621  1
  Na  Na61  1  0.49618051  0.16840285  0.24973585  1
  Na  Na62  1  0.49861077  0.16673948  0.49918883  1
  Na  Na63  1  0.50007576  0.16662216  0.75041262  1
  Na  Na64  1  0.50011336  0.50009807  0.00084230  1
  Na  Na65  1  0.50166335  0.49979916  0.24839837  1
  Na  Na66  1  0.50205290  0.49952715  0.49996539  1
  Na  Na67  1  0.49986823  0.50009116  0.75133657  1
  Na  Na68  1  0.49820525  0.83413197  0.00081237  1
  Na  Na69  1  0.49919489  0.83352928  0.24961148  1
  Na  Na70  1  0.50096568  0.83280526  0.49939199  1
  Na  Na71  1  0.49989332  0.83353981  0.75041001  1
  Na  Na72  1  0.25052773  0.16691878  0.12622931  1
  Na  Na73  1  0.25102117  0.16717822  0.37515166  1
  Na  Na74  1  0.25092713  0.16706805  0.62369391  1
  Na  Na75  1  0.24931545  0.16761033  0.87457412  1
  Na  Na76  1  0.24925423  0.50021559  0.12454387  1
  Na  Na77  1  0.25084555  0.50002782  0.37493405  1
  Na  Na78  1  0.24904781  0.50089717  0.62491003  1
  Na  Na79  1  0.24941782  0.49938645  0.87574920  1
  Na  Na80  1  0.25059928  0.83311261  0.12596741  1
  Na  Na81  1  0.25054122  0.83331216  0.37427480  1
  Na  Na82  1  0.25086854  0.83263001  0.62533468  1
  Na  Na83  1  0.24956463  0.83318685  0.87448898  1
  Na  Na84  1  0.75038569  0.16652617  0.12418952  1
  Na  Na85  1  0.75080301  0.16597452  0.37569317  1
  Na  Na86  1  0.75054996  0.16648817  0.62462602  1
  Na  Na87  1  0.75047841  0.16653828  0.87552885  1
  Na  Na88  1  0.74910283  0.50019871  0.12488827  1
  Na  Na89  1  0.74969457  0.49905973  0.37406000  1
  Na  Na90  1  0.75044501  0.49938160  0.62486849  1
  Na  Na91  1  0.75233018  0.49922763  0.87606961  1
  Na  Na92  1  0.75033817  0.83309623  0.12612812  1
  Na  Na93  1  0.74843316  0.83394236  0.37410194  1
  Na  Na94  1  0.75083416  0.83292179  0.62508426  1
  Na  Na95  1  0.74934939  0.83430424  0.87489915  1
  Mn  Mn96  1  0.10734896  0.75061360  0.62277636  1
  Mn  Mn97  1  0.14212944  0.91625041  0.49788383  1
  Mn  Mn98  1  0.60745609  0.74979259  0.87337015  1
  Mn  Mn99  1  0.60772000  0.41637993  0.87349295  1
  Mn  Mn100  1  0.85814487  0.08315894  0.25263029  1
  Mn  Mn101  1  0.85742227  0.08293662  0.00220501  1
  Mn  Mn102  1  0.10761504  0.74895842  0.12329508  1
  Mn  Mn103  1  0.60702381  0.08373955  0.37183466  1
  Mn  Mn104  1  0.64287777  0.58311678  0.74910752  1
  Mn  Mn105  1  0.14171306  0.58359065  0.99763955  1
  Mn  Mn106  1  0.35776178  0.41694026  0.25210952  1
  Mn  Mn107  1  0.64283656  0.91633940  0.74747217  1
  Mn  Mn108  1  0.39208020  0.91633876  0.87751125  1
  Mn  Mn109  1  0.64165459  0.58399678  0.49739769  1
  Mn  Mn110  1  0.35768652  0.74997500  0.75261052  1
  Mn  Mn111  1  0.64191613  0.24970312  0.24767163  1
  Mn  Mn112  1  0.60663769  0.08416915  0.12349477  1
  Mn  Mn113  1  0.89154856  0.58316020  0.37722856  1
  Mn  Mn114  1  0.85809957  0.08290213  0.50209545  1
  Mn  Mn115  1  0.10821425  0.08372529  0.87202424  1
  Mn  Mn116  1  0.10753138  0.08268374  0.62380440  1
  Mn  Mn117  1  0.14253811  0.25022701  0.49748471  1
  Mn  Mn118  1  0.64190037  0.24961685  0.49750812  1
  Mn  Mn119  1  0.14250342  0.58364870  0.49732479  1
  Mn  Mn120  1  0.89168329  0.24905013  0.62792768  1
  Mn  Mn121  1  0.14236650  0.58344686  0.24779520  1
  Mn  Mn122  1  0.35771199  0.08341001  0.00236803  1
  Mn  Mn123  1  0.39317829  0.91754978  0.62703683  1
  Mn  Mn124  1  0.14203388  0.91725131  0.74706450  1
  Mn  Mn125  1  0.64294081  0.25067771  0.74798973  1
  Mn  Mn126  1  0.39150889  0.25051793  0.87746449  1
  Mn  Mn127  1  0.39261416  0.58304174  0.12723104  1
  Mn  Mn128  1  0.89239287  0.91636315  0.87824619  1
  Mn  Mn129  1  0.64222320  0.24999982  0.99780745  1
  Mn  Mn130  1  0.60846623  0.75003598  0.62290219  1
  Mn  Mn131  1  0.35926143  0.41753582  0.50227604  1
  Mn  Mn132  1  0.10732400  0.41670755  0.62243845  1
  Mn  Mn133  1  0.89169305  0.58416414  0.62748173  1
  Mn  Mn134  1  0.85804743  0.75031897  0.00244152  1
  Mn  Mn135  1  0.85736122  0.74990835  0.50104924  1
  Mn  Mn136  1  0.10709087  0.41653062  0.37301396  1
  Mn  Mn137  1  0.35817552  0.08287585  0.50234033  1
  Mn  Mn138  1  0.35745252  0.41662432  0.75214283  1
  Mn  Mn139  1  0.89285290  0.24957582  0.12757088  1
  Mn  Mn140  1  0.10874222  0.08335439  0.12240258  1
  Mn  Mn141  1  0.89259467  0.91753493  0.37656844  1
  Mn  Mn142  1  0.39247822  0.58238498  0.62779451  1
  Mn  Mn143  1  0.60730233  0.75007923  0.12245499  1
  Fe  Fe144  1  0.64260686  0.58332725  0.24809151  1
  Fe  Fe145  1  0.64364920  0.58372020  0.99782337  1
  Fe  Fe146  1  0.85707487  0.08377731  0.75217609  1
  Fe  Fe147  1  0.39307556  0.91598011  0.37691101  1
  Fe  Fe148  1  0.35766886  0.75029584  0.25256174  1
  Fe  Fe149  1  0.10662645  0.41733330  0.12336838  1
  Fe  Fe150  1  0.10815461  0.08334311  0.37326795  1
  Fe  Fe151  1  0.85649604  0.41671736  0.50134564  1
  Fe  Fe152  1  0.14388888  0.91652566  0.24831747  1
  Fe  Fe153  1  0.39239505  0.25116760  0.37647034  1
  Fe  Fe154  1  0.60739521  0.41592015  0.12268962  1
  Fe  Fe155  1  0.14271233  0.24999394  0.74815387  1
  Fe  Fe156  1  0.39191167  0.91724278  0.12690012  1
  Fe  Fe157  1  0.39335048  0.25009150  0.62668539  1
  Fe  Fe158  1  0.89325088  0.58271412  0.87643266  1
  Fe  Fe159  1  0.85648692  0.75000417  0.25186200  1
  Fe  Fe160  1  0.85809520  0.74992353  0.75229214  1
  Fe  Fe161  1  0.60820307  0.41599166  0.62388743  1
  Fe  Fe162  1  0.60771551  0.41699429  0.37297871  1
  Fe  Fe163  1  0.35676745  0.74985930  0.00124162  1
  Fe  Fe164  1  0.64208646  0.91615198  0.99903351  1
  Fe  Fe165  1  0.10675275  0.41728260  0.87337857  1
  Fe  Fe166  1  0.89188086  0.58354678  0.12707516  1
  Fe  Fe167  1  0.89271136  0.91623937  0.12699305  1
  Fe  Fe168  1  0.64206329  0.91640534  0.24786465  1
  Fe  Fe169  1  0.10805699  0.75036425  0.37274255  1
  Fe  Fe170  1  0.60660560  0.74965029  0.37274014  1
  Fe  Fe171  1  0.60766713  0.08410084  0.62373157  1
  Fe  Fe172  1  0.35805147  0.08354927  0.75122534  1
  Fe  Fe173  1  0.89151109  0.91686976  0.62630621  1
  Fe  Fe174  1  0.89314677  0.24925808  0.37589650  1
  Fe  Fe175  1  0.64247329  0.91653768  0.49835350  1
  Fe  Fe176  1  0.10759372  0.74892013  0.87334887  1
  Fe  Fe177  1  0.14284224  0.24976042  0.99813413  1
  Fe  Fe178  1  0.39376289  0.58328021  0.37599191  1
  Fe  Fe179  1  0.39149200  0.25015049  0.12649358  1
  Fe  Fe180  1  0.14218031  0.58305022  0.74876493  1
  Fe  Fe181  1  0.35795958  0.75000927  0.50126310  1
  Fe  Fe182  1  0.89341069  0.25065879  0.87688607  1
  Fe  Fe183  1  0.39156595  0.58332321  0.87729883  1
  Fe  Fe184  1  0.85791748  0.41676024  0.00241969  1
  Fe  Fe185  1  0.85685054  0.41674968  0.25168980  1
  Fe  Fe186  1  0.60743956  0.08350814  0.87306189  1
  Fe  Fe187  1  0.14310648  0.91669771  0.99939175  1
  Fe  Fe188  1  0.14279512  0.24985292  0.24880261  1
  Fe  Fe189  1  0.85784544  0.41657273  0.75222634  1
  Fe  Fe190  1  0.35607830  0.41676112  0.00179893  1
  Fe  Fe191  1  0.35672348  0.08309000  0.25188172  1
  P  P192  1  0.05577752  0.25094188  0.11063492  1
  P  P193  1  0.05297908  0.24939123  0.35942709  1
  P  P194  1  0.05437879  0.24972922  0.61118414  1
  P  P195  1  0.05437358  0.25127747  0.86081981  1
  P  P196  1  0.05154900  0.58257748  0.11025223  1
  P  P197  1  0.05298495  0.58401745  0.35986374  1
  P  P198  1  0.05399655  0.58345865  0.61064272  1
  P  P199  1  0.05269805  0.58270066  0.85966934  1
  P  P200  1  0.05430375  0.91606379  0.11067152  1
  P  P201  1  0.05474497  0.91678201  0.35915186  1
  P  P202  1  0.05126742  0.91684614  0.60989150  1
  P  P203  1  0.05532829  0.91570488  0.86165124  1
  P  P204  1  0.55146870  0.25070381  0.10992712  1
  P  P205  1  0.55179165  0.25074793  0.35957937  1
  P  P206  1  0.55275809  0.24986298  0.61034103  1
  P  P207  1  0.55329923  0.24951563  0.86021318  1
  P  P208  1  0.55592258  0.58256431  0.11042465  1
  P  P209  1  0.55316382  0.58377055  0.35891993  1
  P  P210  1  0.55379547  0.58243632  0.61059753  1
  P  P211  1  0.55286112  0.58334750  0.86174812  1
  P  P212  1  0.55312747  0.91694427  0.11083810  1
  P  P213  1  0.55388956  0.91558683  0.36037593  1
  P  P214  1  0.55441056  0.91771131  0.60932361  1
  P  P215  1  0.55480776  0.91692431  0.86138951  1
  P  P216  1  0.44496659  0.08329169  0.14051144  1
  P  P217  1  0.44468628  0.08314120  0.38809361  1
  P  P218  1  0.44780487  0.08407233  0.64039241  1
  P  P219  1  0.44667084  0.08331747  0.88910035  1
  P  P220  1  0.44617434  0.41607987  0.13841355  1
  P  P221  1  0.44830991  0.41763558  0.38921605  1
  P  P222  1  0.44863791  0.41570944  0.64046158  1
  P  P223  1  0.44525874  0.41770221  0.89117961  1
  P  P224  1  0.44414444  0.75094945  0.13926770  1
  P  P225  1  0.44612642  0.74977303  0.38869046  1
  P  P226  1  0.44622301  0.75018020  0.63918829  1
  P  P227  1  0.44570247  0.74909023  0.89128730  1
  P  P228  1  0.94707031  0.08204642  0.13976386  1
  P  P229  1  0.94850124  0.08407891  0.38965743  1
  P  P230  1  0.94587393  0.08225657  0.64128677  1
  P  P231  1  0.94570616  0.08446846  0.88930944  1
  P  P232  1  0.94557453  0.41736942  0.13952794  1
  P  P233  1  0.94424413  0.41542653  0.38927683  1
  P  P234  1  0.94439117  0.41660291  0.63951672  1
  P  P235  1  0.94588364  0.41650248  0.88930728  1
  P  P236  1  0.94549433  0.75007020  0.14063937  1
  P  P237  1  0.94677862  0.75037874  0.38837778  1
  P  P238  1  0.94555399  0.75133080  0.64044429  1
  P  P239  1  0.94702719  0.74876822  0.88907841  1
  P  P240  1  0.19650674  0.08325881  0.23677966  1
  P  P241  1  0.19627409  0.08332097  0.48419903  1
  P  P242  1  0.19849489  0.08423891  0.73438076  1
  P  P243  1  0.19686455  0.08349061  0.98523836  1
  P  P244  1  0.19563916  0.41620285  0.23449299  1
  P  P245  1  0.19736074  0.41673720  0.48467291  1
  P  P246  1  0.19482699  0.41702089  0.73631761  1
  P  P247  1  0.19510303  0.41617117  0.98581470  1
  P  P248  1  0.19705225  0.75043877  0.23628139  1
  P  P249  1  0.19745476  0.75013629  0.48408313  1
  P  P250  1  0.19519547  0.74874713  0.73612810  1
  P  P251  1  0.19695085  0.75068052  0.98506950  1
  P  P252  1  0.69663796  0.08287481  0.23485090  1
  P  P253  1  0.69519038  0.08251251  0.48595054  1
  P  P254  1  0.69635487  0.08394018  0.73564731  1
  P  P255  1  0.69534422  0.08231758  0.98467315  1
  P  P256  1  0.69552457  0.41691169  0.23535879  1
  P  P257  1  0.69558656  0.41651829  0.48516597  1
  P  P258  1  0.69811426  0.41673291  0.73507878  1
  P  P259  1  0.69692862  0.41732222  0.98648268  1
  P  P260  1  0.69559745  0.74981018  0.23603980  1
  P  P261  1  0.69571126  0.75092864  0.48375800  1
  P  P262  1  0.69852650  0.74938083  0.73556615  1
  P  P263  1  0.69672221  0.74997635  0.98546126  1
  P  P264  1  0.30223797  0.25108359  0.01544381  1
  P  P265  1  0.30388789  0.24975395  0.26427130  1
  P  P266  1  0.30587328  0.25069329  0.51459611  1
  P  P267  1  0.30363531  0.24940684  0.76350789  1
  P  P268  1  0.30398742  0.58319611  0.01401239  1
  P  P269  1  0.30435447  0.58383878  0.26554089  1
  P  P270  1  0.30532376  0.58436340  0.51377262  1
  P  P271  1  0.30243310  0.58299848  0.76599809  1
  P  P272  1  0.30266279  0.91583748  0.01566489  1
  P  P273  1  0.30470493  0.91666316  0.26443799  1
  P  P274  1  0.30484041  0.91526511  0.51371233  1
  P  P275  1  0.30365627  0.91781001  0.76469394  1
  P  P276  1  0.80493225  0.25073134  0.01403323  1
  P  P277  1  0.80384665  0.25067425  0.26561214  1
  P  P278  1  0.80465759  0.25028045  0.51349969  1
  P  P279  1  0.80420359  0.25009425  0.76598343  1
  P  P280  1  0.80484369  0.58265045  0.01458511  1
  P  P281  1  0.80321397  0.58321296  0.26338234  1
  P  P282  1  0.80285360  0.58267937  0.51446127  1
  P  P283  1  0.80444107  0.58310766  0.76599432  1
  P  P284  1  0.80237895  0.91670504  0.01595493  1
  P  P285  1  0.80306598  0.91597130  0.26387598  1
  P  P286  1  0.80246891  0.91652594  0.51512082  1
  P  P287  1  0.80506447  0.91685856  0.76399471  1
  O  O288  1  0.05993332  0.24991659  0.18739221  1
  O  O289  1  0.05626491  0.25009841  0.43621218  1
  O  O290  1  0.05899907  0.24989167  0.68796262  1
  O  O291  1  0.05900916  0.25017540  0.93755795  1
  O  O292  1  0.05575893  0.58307673  0.18686515  1
  O  O293  1  0.05608986  0.58390421  0.43666693  1
  O  O294  1  0.05817607  0.58301633  0.68736730  1
  O  O295  1  0.05593882  0.58298341  0.93649376  1
  O  O296  1  0.05974161  0.91631019  0.18731180  1
  O  O297  1  0.05707416  0.91641211  0.43599051  1
  O  O298  1  0.05531026  0.91688965  0.68663134  1
  O  O299  1  0.05988434  0.91636398  0.93840350  1
  O  O300  1  0.55534980  0.25053546  0.18659235  1
  O  O301  1  0.55577881  0.24977692  0.43624664  1
  O  O302  1  0.55630806  0.24993620  0.68703558  1
  O  O303  1  0.55642373  0.25001487  0.93698193  1
  O  O304  1  0.55994676  0.58358892  0.18722189  1
  O  O305  1  0.55620980  0.58378557  0.43569469  1
  O  O306  1  0.55674702  0.58322022  0.68739784  1
  O  O307  1  0.55839075  0.58350157  0.93838162  1
  O  O308  1  0.55821672  0.91644101  0.18754986  1
  O  O309  1  0.55857004  0.91629177  0.43702495  1
  O  O310  1  0.55721561  0.91668852  0.68621227  1
  O  O311  1  0.55862426  0.91611061  0.93818225  1
  O  O312  1  0.44296568  0.08287484  0.06362759  1
  O  O313  1  0.44059342  0.08307087  0.31134009  1
  O  O314  1  0.44403517  0.08300752  0.56363211  1
  O  O315  1  0.44179008  0.08332613  0.81244574  1
  O  O316  1  0.44075255  0.41662475  0.06185894  1
  O  O317  1  0.44452480  0.41761665  0.31253504  1
  O  O318  1  0.44524648  0.41663141  0.56375403  1
  O  O319  1  0.44238806  0.41701205  0.81435774  1
  O  O320  1  0.43989792  0.75032613  0.06254824  1
  O  O321  1  0.44184037  0.75015548  0.31190219  1
  O  O322  1  0.44226885  0.75016374  0.56242297  1
  O  O323  1  0.44308884  0.74978211  0.81441540  1
  O  O324  1  0.94369060  0.08251176  0.06301132  1
  O  O325  1  0.94465348  0.08331134  0.31295965  1
  O  O326  1  0.94344778  0.08321087  0.56440442  1
  O  O327  1  0.94125333  0.08381694  0.81260302  1
  O  O328  1  0.94138749  0.41679017  0.06273741  1
  O  O329  1  0.94054349  0.41654376  0.31244718  1
  O  O330  1  0.94002574  0.41669943  0.56274685  1
  O  O331  1  0.94173223  0.41630881  0.81256792  1
  O  O332  1  0.94314372  0.75026872  0.06377616  1
  O  O333  1  0.94105312  0.75001679  0.31177943  1
  O  O334  1  0.94262849  0.75054134  0.56359363  1
  O  O335  1  0.94223957  0.74971375  0.81244428  1
  O  O336  1  0.19464278  0.08346822  0.06209374  1
  O  O337  1  0.19223359  0.08356830  0.31344313  1
  O  O338  1  0.19285030  0.08328583  0.56096480  1
  O  O339  1  0.19456310  0.08370195  0.81113516  1
  O  O340  1  0.19047987  0.41751436  0.06249216  1
  O  O341  1  0.19271662  0.41689708  0.31128047  1
  O  O342  1  0.19372367  0.41669599  0.56146493  1
  O  O343  1  0.19094829  0.41694668  0.81311122  1
  O  O344  1  0.19356011  0.74964484  0.06183416  1
  O  O345  1  0.19205421  0.74959792  0.31289306  1
  O  O346  1  0.19329966  0.75025316  0.56084351  1
  O  O347  1  0.19092120  0.74920005  0.81291473  1
  O  O348  1  0.69215837  0.08338887  0.06147463  1
  O  O349  1  0.69329026  0.08352077  0.31165586  1
  O  O350  1  0.69120392  0.08384720  0.56272420  1
  O  O351  1  0.69135625  0.08398448  0.81232993  1
  O  O352  1  0.69188741  0.41601256  0.06314029  1
  O  O353  1  0.69075442  0.41620463  0.31213973  1
  O  O354  1  0.69097511  0.41620700  0.56190019  1
  O  O355  1  0.69389118  0.41651930  0.81179132  1
  O  O356  1  0.69381319  0.74994048  0.06224789  1
  O  O357  1  0.69079736  0.74985838  0.31268423  1
  O  O358  1  0.69346008  0.74992068  0.56061111  1
  O  O359  1  0.69417334  0.74957263  0.81222686  1
  O  O360  1  0.30825715  0.25075209  0.18753935  1
  O  O361  1  0.31019343  0.25112520  0.43773066  1
  O  O362  1  0.30886021  0.25012947  0.68685250  1
  O  O363  1  0.30568700  0.25067981  0.93866800  1
  O  O364  1  0.30718972  0.58292879  0.18869909  1
  O  O365  1  0.31001242  0.58310020  0.43707478  1
  O  O366  1  0.30647255  0.58298903  0.68920500  1
  O  O367  1  0.30739653  0.58294108  0.93728845  1
  O  O368  1  0.30859400  0.91667183  0.18768742  1
  O  O369  1  0.30895214  0.91589752  0.43694595  1
  O  O370  1  0.30704431  0.91720372  0.68791324  1
  O  O371  1  0.30609261  0.91649874  0.93892777  1
  O  O372  1  0.80692040  0.24969585  0.18877932  1
  O  O373  1  0.80894263  0.24917930  0.43682178  1
  O  O374  1  0.80616028  0.24980540  0.68909233  1
  O  O375  1  0.80924143  0.25045569  0.93734127  1
  O  O376  1  0.80758581  0.58325698  0.18667491  1
  O  O377  1  0.80553274  0.58319765  0.43763635  1
  O  O378  1  0.80640984  0.58328328  0.68911438  1
  O  O379  1  0.80987692  0.58309812  0.93792868  1
  O  O380  1  0.80823296  0.91675194  0.18727816  1
  O  O381  1  0.80644058  0.91689901  0.43836900  1
  O  O382  1  0.80824407  0.91674615  0.68722082  1
  O  O383  1  0.80657284  0.91674414  0.93919166  1
  O  O384  1  0.23216830  0.25023358  0.03993797  1
  O  O385  1  0.23347207  0.25006702  0.28804832  1
  O  O386  1  0.23567912  0.25027612  0.53813805  1
  O  O387  1  0.23328258  0.25005970  0.78725744  1
  O  O388  1  0.23407479  0.58392692  0.03896271  1
  O  O389  1  0.23463018  0.58342647  0.29054856  1
  O  O390  1  0.23529699  0.58416139  0.53793532  1
  O  O391  1  0.23232743  0.58291975  0.79027029  1
  O  O392  1  0.23263528  0.91663570  0.04052017  1
  O  O393  1  0.23435355  0.91652150  0.28841918  1
  O  O394  1  0.23491497  0.91600066  0.53830053  1
  O  O395  1  0.23392380  0.91681111  0.78963379  1
  O  O396  1  0.73489941  0.25024676  0.03837078  1
  O  O397  1  0.73413700  0.25000865  0.29077546  1
  O  O398  1  0.73469278  0.25017290  0.53793667  1
  O  O399  1  0.73470789  0.25065355  0.79185940  1
  O  O400  1  0.73439546  0.58321320  0.03799474  1
  O  O401  1  0.73290012  0.58273207  0.28746946  1
  O  O402  1  0.73336222  0.58320700  0.54005213  1
  O  O403  1  0.73500074  0.58288486  0.79208447  1
  O  O404  1  0.73212769  0.91623376  0.03989870  1
  O  O405  1  0.73258455  0.91615023  0.28731929  1
  O  O406  1  0.73243446  0.91649686  0.53958850  1
  O  O407  1  0.73516500  0.91706245  0.78879422  1
  O  O408  1  0.26677971  0.08317277  0.21262477  1
  O  O409  1  0.26619572  0.08343587  0.45980665  1
  O  O410  1  0.26836952  0.08389949  0.70937536  1
  O  O411  1  0.26635486  0.08371343  0.95939416  1
  O  O412  1  0.26545090  0.41686475  0.20956278  1
  O  O413  1  0.26711440  0.41653131  0.45986098  1
  O  O414  1  0.26475960  0.41702409  0.71154013  1
  O  O415  1  0.26548095  0.41646767  0.96206063  1
  O  O416  1  0.26748454  0.75045460  0.21286255  1
  O  O417  1  0.26761694  0.75015535  0.45996417  1
  O  O418  1  0.26523870  0.74947521  0.71195295  1
  O  O419  1  0.26701327  0.74975282  0.96042725  1
  O  O420  1  0.76630643  0.08305056  0.20973598  1
  O  O421  1  0.76517148  0.08233657  0.46146641  1
  O  O422  1  0.76679427  0.08355587  0.71230550  1
  O  O423  1  0.76518669  0.08298240  0.95987526  1
  O  O424  1  0.76603914  0.41685417  0.21200722  1
  O  O425  1  0.76594543  0.41649604  0.46155413  1
  O  O426  1  0.76833323  0.41651939  0.71110730  1
  O  O427  1  0.76737576  0.41737199  0.96307158  1
  O  O428  1  0.76593114  0.74992950  0.21215591  1
  O  O429  1  0.76524586  0.74999118  0.45802054  1
  O  O430  1  0.76862778  0.74968412  0.71132895  1
  O  O431  1  0.76639970  0.75048929  0.96020027  1
  O  O432  1  0.01693039  0.08310049  0.16441525  1
  O  O433  1  0.01846697  0.08345742  0.41439684  1
  O  O434  1  0.01537046  0.08300784  0.66711380  1
  O  O435  1  0.01579471  0.08380451  0.91336102  1
  O  O436  1  0.01593963  0.41649737  0.16328865  1
  O  O437  1  0.01419634  0.41632979  0.41389006  1
  O  O438  1  0.01450974  0.41624088  0.66331833  1
  O  O439  1  0.01623458  0.41687982  0.91329821  1
  O  O440  1  0.01520148  0.74958897  0.16587313  1
  O  O441  1  0.01720558  0.75097214  0.41173439  1
  O  O442  1  0.01524376  0.75027083  0.66559352  1
  O  O443  1  0.01733051  0.74886350  0.91305578  1
  O  O444  1  0.51443772  0.08358221  0.16648141  1
  O  O445  1  0.51469471  0.08323549  0.41243388  1
  O  O446  1  0.51792698  0.08365721  0.66479636  1
  O  O447  1  0.51691598  0.08328381  0.91298415  1
  O  O448  1  0.51663849  0.41674966  0.16178400  1
  O  O449  1  0.51838961  0.41706431  0.41390275  1
  O  O450  1  0.51851121  0.41616572  0.66566327  1
  O  O451  1  0.51504627  0.41657678  0.91611761  1
  O  O452  1  0.51440159  0.75012155  0.16292647  1
  O  O453  1  0.51648680  0.74973294  0.41257711  1
  O  O454  1  0.51611937  0.75003498  0.66390824  1
  O  O455  1  0.51526728  0.74980608  0.91679803  1
  O  O456  1  0.48139215  0.24957125  0.08534921  1
  O  O457  1  0.48162940  0.25112455  0.33524007  1
  O  O458  1  0.48287007  0.24976398  0.58514978  1
  O  O459  1  0.48354661  0.25019596  0.83531909  1
  O  O460  1  0.48560371  0.58299119  0.08700414  1
  O  O461  1  0.48323232  0.58376794  0.33376741  1
  O  O462  1  0.48422293  0.58266884  0.58507026  1
  O  O463  1  0.48249585  0.58318331  0.83824163  1
  O  O464  1  0.48260862  0.91721695  0.08765933  1
  O  O465  1  0.48334724  0.91595167  0.33700713  1
  O  O466  1  0.48479549  0.91720711  0.58394000  1
  O  O467  1  0.48487252  0.91659335  0.83687746  1
  O  O468  1  0.98562994  0.25033576  0.08674916  1
  O  O469  1  0.98302408  0.24999366  0.33443910  1
  O  O470  1  0.98424390  0.24963019  0.58753296  1
  O  O471  1  0.98394943  0.25099554  0.83725356  1
  O  O472  1  0.98145366  0.58336152  0.08589400  1
  O  O473  1  0.98322470  0.58288958  0.33488166  1
  O  O474  1  0.98397954  0.58403603  0.58636264  1
  O  O475  1  0.98266525  0.58237464  0.83496565  1
  O  O476  1  0.98385450  0.91569967  0.08728064  1
  O  O477  1  0.98502786  0.91691148  0.33379190  1
  O  O478  1  0.98139713  0.91695143  0.58503538  1
  O  O479  1  0.98509978  0.91615738  0.83811304  1
  O  O480  1  0.08886237  0.31635414  0.07783364  1
  O  O481  1  0.08732076  0.31423839  0.32660582  1
  O  O482  1  0.08765968  0.31467510  0.57761961  1
  O  O483  1  0.08755827  0.31656638  0.82792501  1
  O  O484  1  0.08562110  0.64750531  0.07729464  1
  O  O485  1  0.08656555  0.64925017  0.32717466  1
  O  O486  1  0.08784466  0.64851386  0.57787547  1
  O  O487  1  0.08675706  0.64762536  0.82694930  1
  O  O488  1  0.08762180  0.98112154  0.07711455  1
  O  O489  1  0.08911320  0.98198647  0.32714782  1
  O  O490  1  0.08548199  0.98178694  0.57740010  1
  O  O491  1  0.08861095  0.98077163  0.82803739  1
  O  O492  1  0.58502446  0.31584381  0.07701240  1
  O  O493  1  0.58588837  0.31569069  0.32717934  1
  O  O494  1  0.58672054  0.31501693  0.57781340  1
  O  O495  1  0.58755265  0.31461340  0.82782911  1
  O  O496  1  0.58941703  0.64751107  0.07693060  1
  O  O497  1  0.58724196  0.64885170  0.32632391  1
  O  O498  1  0.58792442  0.64742380  0.57782115  1
  O  O499  1  0.58603002  0.64832886  0.82804912  1
  O  O500  1  0.58660382  0.98191191  0.07769463  1
  O  O501  1  0.58732075  0.98044516  0.32658526  1
  O  O502  1  0.58836316  0.98309334  0.57746059  1
  O  O503  1  0.58840749  0.98219187  0.82876452  1
  O  O504  1  0.41058022  0.01822544  0.17273755  1
  O  O505  1  0.41152115  0.01781056  0.42121846  1
  O  O506  1  0.41372098  0.01931290  0.67361869  1
  O  O507  1  0.41330750  0.01833987  0.92254839  1
  O  O508  1  0.41324635  0.35089757  0.17184943  1
  O  O509  1  0.41410363  0.35281230  0.42192477  1
  O  O510  1  0.41468517  0.35043788  0.67264646  1
  O  O511  1  0.41031075  0.35295103  0.92353930  1
  O  O512  1  0.41038046  0.68607676  0.17265869  1
  O  O513  1  0.41282741  0.68452758  0.42165200  1
  O  O514  1  0.41232457  0.68520503  0.67216667  1
  O  O515  1  0.41146875  0.68391396  0.92334002  1
  O  O516  1  0.91373045  0.01666967  0.17239832  1
  O  O517  1  0.91428809  0.01913365  0.42245781  1
  O  O518  1  0.91165914  0.01696566  0.67296608  1
  O  O519  1  0.91196405  0.01949107  0.92256927  1
  O  O520  1  0.91168795  0.35260452  0.17289010  1
  O  O521  1  0.91099607  0.34989570  0.42169254  1
  O  O522  1  0.91067754  0.35177528  0.67289980  1
  O  O523  1  0.91259390  0.35150333  0.92290283  1
  O  O524  1  0.91079715  0.68507033  0.17267700  1
  O  O525  1  0.91387782  0.68525517  0.42213885  1
  O  O526  1  0.91079448  0.68659642  0.67311649  1
  O  O527  1  0.91367634  0.68351229  0.92185890  1
  O  O528  1  0.16329583  0.01802209  0.20356001  1
  O  O529  1  0.16228030  0.01827623  0.45162298  1
  O  O530  1  0.16448448  0.01906471  0.70174658  1
  O  O531  1  0.16266391  0.01829912  0.95329544  1
  O  O532  1  0.16174253  0.35090751  0.20242879  1
  O  O533  1  0.16318289  0.35173464  0.45217576  1
  O  O534  1  0.16127942  0.35180534  0.70343360  1
  O  O535  1  0.16187203  0.35090850  0.95287708  1
  O  O536  1  0.16399487  0.68544816  0.20234277  1
  O  O537  1  0.16353252  0.68523043  0.45106378  1
  O  O538  1  0.16212176  0.68329029  0.70338083  1
  O  O539  1  0.16236575  0.68597668  0.95209437  1
  O  O540  1  0.66229822  0.01779019  0.20289771  1
  O  O541  1  0.66141282  0.01725956  0.45353172  1
  O  O542  1  0.66263938  0.01915648  0.70224621  1
  O  O543  1  0.66169438  0.01685671  0.95259433  1
  O  O544  1  0.66227819  0.35186431  0.20163735  1
  O  O545  1  0.66209279  0.35168393  0.45154663  1
  O  O546  1  0.66430227  0.35183307  0.70178850  1
  O  O547  1  0.66384326  0.35241766  0.95257169  1
  O  O548  1  0.66252824  0.68465075  0.20268920  1
  O  O549  1  0.66062809  0.68632516  0.45126064  1
  O  O550  1  0.66500565  0.68421696  0.70276136  1
  O  O551  1  0.66311115  0.68452157  0.95305436  1
  O  O552  1  0.33580575  0.31628095  0.04823709  1
  O  O553  1  0.33739938  0.31470951  0.29787635  1
  O  O554  1  0.33938981  0.31553456  0.54810425  1
  O  O555  1  0.33690923  0.31436356  0.79722678  1
  O  O556  1  0.33823206  0.64809760  0.04658258  1
  O  O557  1  0.33856460  0.64899907  0.29756567  1
  O  O558  1  0.33863768  0.64980278  0.54637357  1
  O  O559  1  0.33654652  0.64791812  0.79877448  1
  O  O560  1  0.33705354  0.98068318  0.04845630  1
  O  O561  1  0.33811221  0.98168611  0.29765191  1
  O  O562  1  0.33870552  0.98031928  0.54666603  1
  O  O563  1  0.33719005  0.98322946  0.79706497  1
  O  O564  1  0.83834655  0.31590607  0.04704199  1
  O  O565  1  0.83769374  0.31617185  0.29737980  1
  O  O566  1  0.83814768  0.31557257  0.54615456  1
  O  O567  1  0.83903111  0.31510721  0.79786045  1
  O  O568  1  0.83828022  0.64764136  0.04810966  1
  O  O569  1  0.83624658  0.64844901  0.29671482  1
  O  O570  1  0.83732181  0.64774627  0.54658295  1
  O  O571  1  0.83900840  0.64813924  0.79811262  1
  O  O572  1  0.83601057  0.98175449  0.04888251  1
  O  O573  1  0.83621042  0.98095583  0.29777924  1
  O  O574  1  0.83656113  0.98133610  0.54816500  1
  O  O575  1  0.83878843  0.98200279  0.79682468  1
  O  O576  1  0.41016414  0.14841381  0.17209525  1
  O  O577  1  0.41127040  0.14840103  0.42086041  1
  O  O578  1  0.41395449  0.14931727  0.67279019  1
  O  O579  1  0.41322117  0.14837796  0.92235655  1
  O  O580  1  0.41295480  0.48103021  0.17219753  1
  O  O581  1  0.41513071  0.48304387  0.42209869  1
  O  O582  1  0.41425906  0.48049442  0.67328766  1
  O  O583  1  0.41144557  0.48292372  0.92354105  1
  O  O584  1  0.41112913  0.81623747  0.17242344  1
  O  O585  1  0.41262223  0.81472132  0.42216182  1
  O  O586  1  0.41266472  0.81532917  0.67214416  1
  O  O587  1  0.41090227  0.81394702  0.92361892  1
  O  O588  1  0.91278840  0.14696053  0.17233771  1
  O  O589  1  0.91476370  0.14923394  0.42221062  1
  O  O590  1  0.91097572  0.14701378  0.67374689  1
  O  O591  1  0.91264377  0.14989312  0.92214383  1
  O  O592  1  0.91236450  0.48259599  0.17262871  1
  O  O593  1  0.90981148  0.48002163  0.42256839  1
  O  O594  1  0.91110279  0.48174151  0.67281786  1
  O  O595  1  0.91223569  0.48159140  0.92237161  1
  O  O596  1  0.91138808  0.81525403  0.17299062  1
  O  O597  1  0.91323945  0.81536764  0.42158475  1
  O  O598  1  0.91189192  0.81669908  0.67268142  1
  O  O599  1  0.91368846  0.81365744  0.92290795  1
  O  O600  1  0.08970115  0.18618212  0.07708244  1
  O  O601  1  0.08696627  0.18421824  0.32698127  1
  O  O602  1  0.08778782  0.18460207  0.57820496  1
  O  O603  1  0.08795561  0.18649882  0.82693400  1
  O  O604  1  0.08501250  0.51744041  0.07732799  1
  O  O605  1  0.08739296  0.51899266  0.32764274  1
  O  O606  1  0.08724425  0.51837595  0.57726062  1
  O  O607  1  0.08675238  0.51759064  0.82722028  1
  O  O608  1  0.08785898  0.85106833  0.07743455  1
  O  O609  1  0.08914787  0.85185082  0.32661051  1
  O  O610  1  0.08519922  0.85180141  0.57714095  1
  O  O611  1  0.08831348  0.85039784  0.82863857  1
  O  O612  1  0.58579410  0.18575580  0.07748885  1
  O  O613  1  0.58504708  0.18557446  0.32630734  1
  O  O614  1  0.58663540  0.18475527  0.57756772  1
  O  O615  1  0.58714632  0.18439124  0.82780289  1
  O  O616  1  0.58931383  0.51739391  0.07761450  1
  O  O617  1  0.58743756  0.51871326  0.32654920  1
  O  O618  1  0.58787919  0.51714715  0.57861648  1
  O  O619  1  0.58627955  0.51823073  0.82852443  1
  O  O620  1  0.58631351  0.85195660  0.07711188  1
  O  O621  1  0.58697035  0.85041051  0.32695674  1
  O  O622  1  0.58901948  0.85288247  0.57675278  1
  O  O623  1  0.58848664  0.85195654  0.82805637  1
  O  O624  1  0.33663208  0.18625202  0.04809966  1
  O  O625  1  0.33729531  0.18465184  0.29718746  1
  O  O626  1  0.33962200  0.18558849  0.54747131  1
  O  O627  1  0.33667429  0.18415746  0.79676029  1
  O  O628  1  0.33723918  0.51784854  0.04707377  1
  O  O629  1  0.33885373  0.51900342  0.29819295  1
  O  O630  1  0.33871664  0.51938630  0.54752379  1
  O  O631  1  0.33645931  0.51804517  0.79876138  1
  O  O632  1  0.33630791  0.85058318  0.04811075  1
  O  O633  1  0.33838467  0.85164820  0.29762185  1
  O  O634  1  0.33820534  0.85000881  0.54644280  1
  O  O635  1  0.33808051  0.85295225  0.79735506  1
  O  O636  1  0.83858453  0.18572101  0.04720441  1
  O  O637  1  0.83864930  0.18601408  0.29837843  1
  O  O638  1  0.83822175  0.18533500  0.54701943  1
  O  O639  1  0.83850722  0.18495453  0.79813698  1
  O  O640  1  0.83802498  0.51759850  0.04809043  1
  O  O641  1  0.83675517  0.51814832  0.29640538  1
  O  O642  1  0.83697034  0.51756864  0.54658562  1
  O  O643  1  0.83900330  0.51796397  0.79796845  1
  O  O644  1  0.83658277  0.85184555  0.04868923  1
  O  O645  1  0.83617046  0.85078270  0.29711952  1
  O  O646  1  0.83645087  0.85138873  0.54756232  1
  O  O647  1  0.83860642  0.85164393  0.79704392  1
  O  O648  1  0.16316078  0.14824106  0.20338400  1
  O  O649  1  0.16224128  0.14831516  0.45144248  1
  O  O650  1  0.16448411  0.14932403  0.70206364  1
  O  O651  1  0.16246687  0.14861458  0.95314130  1
  O  O652  1  0.16109390  0.48100229  0.20164817  1
  O  O653  1  0.16336310  0.48178817  0.45216637  1
  O  O654  1  0.16127629  0.48233575  0.70358542  1
  O  O655  1  0.16144964  0.48099669  0.95206685  1
  O  O656  1  0.16378709  0.81557657  0.20320037  1
  O  O657  1  0.16350288  0.81510919  0.45121307  1
  O  O658  1  0.16155440  0.81378822  0.70285686  1
  O  O659  1  0.16349193  0.81601452  0.95275656  1
  O  O660  1  0.66261311  0.14802573  0.20227758  1
  O  O661  1  0.66165727  0.14745303  0.45237926  1
  O  O662  1  0.66334133  0.14910643  0.70207122  1
  O  O663  1  0.66090457  0.14711008  0.95178572  1
  O  O664  1  0.66208285  0.48192223  0.20229891  1
  O  O665  1  0.66226223  0.48161220  0.45178856  1
  O  O666  1  0.66438471  0.48180091  0.70231823  1
  O  O667  1  0.66374611  0.48258231  0.95341396  1
  O  O668  1  0.66211514  0.81482650  0.20269212  1
  O  O669  1  0.66173536  0.81635681  0.45195230  1
  O  O670  1  0.66461829  0.81428424  0.70255280  1
  O  O671  1  0.66230980  0.81496075  0.95334827  1
