# generated using pymatgen
data_Na2MnFe(PO4)2
_symmetry_space_group_name_H-M   'P 1'
_cell_length_a   21.08392838
_cell_length_b   18.93576467
_cell_length_c   20.04296585
_cell_angle_alpha   90.00013147
_cell_angle_beta   90.00059125
_cell_angle_gamma   89.99777248
_symmetry_Int_Tables_number   1
_chemical_formula_structural   Na2MnFe(PO4)2
_chemical_formula_sum   'Na96 Mn48 Fe48 P96 O384'
_cell_volume   8001.95981780
_cell_formula_units_Z   48
loop_
 _symmetry_equiv_pos_site_id
 _symmetry_equiv_pos_as_xyz
  1  'x, y, z'
loop_
 _atom_site_type_symbol
 _atom_site_label
 _atom_site_symmetry_multiplicity
 _atom_site_fract_x
 _atom_site_fract_y
 _atom_site_fract_z
 _atom_site_occupancy
  Na  Na0  1  0.00133522  0.00011859  0.00086781  1
  Na  Na1  1  -0.00077481  -0.00071001  0.25028415  1
  Na  Na2  1  0.00030408  0.00012236  0.49848658  1
  Na  Na3  1  0.00133495  0.00014670  0.75061770  1
  Na  Na4  1  0.00030151  0.33330760  0.00117801  1
  Na  Na5  1  0.00260186  0.33464155  0.24899510  1
  Na  Na6  1  -0.00015640  0.33305710  0.50010565  1
  Na  Na7  1  0.00038313  0.33350817  0.74992548  1
  Na  Na8  1  -0.00120979  0.66619288  -0.00070054  1
  Na  Na9  1  -0.00263439  0.66567261  0.25121977  1
  Na  Na10  1  -0.00022382  0.66633124  0.50054077  1
  Na  Na11  1  0.00217153  0.66762097  0.74873903  1
  Na  Na12  1  0.50100788  -0.00028211  -0.00017102  1
  Na  Na13  1  0.49855089  -0.00039614  0.25094455  1
  Na  Na14  1  0.49899752  -0.00053929  0.49932148  1
  Na  Na15  1  0.50132345  0.00015645  0.74943405  1
  Na  Na16  1  0.49882179  0.33278862  0.00124345  1
  Na  Na17  1  0.49944179  0.33315022  0.24963134  1
  Na  Na18  1  0.49958534  0.33327335  0.49988041  1
  Na  Na19  1  0.50102090  0.33455166  0.74933376  1
  Na  Na20  1  0.50284263  0.66699612  0.00016342  1
  Na  Na21  1  0.50175772  0.66761523  0.25023211  1
  Na  Na22  1  0.49830714  0.66552489  0.49917737  1
  Na  Na23  1  0.50330282  0.66811232  0.75031648  1
  Na  Na24  1  0.24988952  -0.00058304  0.12407426  1
  Na  Na25  1  0.25291586  0.00071917  0.37643535  1
  Na  Na26  1  0.25165668  -0.00018171  0.62537300  1
  Na  Na27  1  0.24943756  -0.00062860  0.87384383  1
  Na  Na28  1  0.24942342  0.33297730  0.12619749  1
  Na  Na29  1  0.25047261  0.33337063  0.37436164  1
  Na  Na30  1  0.25247265  0.33427574  0.62501386  1
  Na  Na31  1  0.24912859  0.33278242  0.87367349  1
  Na  Na32  1  0.25115232  0.66731870  0.12464726  1
  Na  Na33  1  0.25233744  0.66756385  0.37599311  1
  Na  Na34  1  0.24879947  0.66553993  0.62496513  1
  Na  Na35  1  0.24850222  0.66596359  0.87433955  1
  Na  Na36  1  0.74944382  0.00004841  0.12502917  1
  Na  Na37  1  0.74988582  0.00024629  0.37524769  1
  Na  Na38  1  0.74876335  -0.00058323  0.62477281  1
  Na  Na39  1  0.74752174  -0.00128091  0.87493127  1
  Na  Na40  1  0.75042426  0.33408738  0.12579132  1
  Na  Na41  1  0.74796174  0.33282108  0.37532519  1
  Na  Na42  1  0.74786979  0.33336994  0.62543752  1
  Na  Na43  1  0.74934774  0.33385814  0.87421977  1
  Na  Na44  1  0.74835373  0.66603638  0.12491350  1
  Na  Na45  1  0.75055123  0.66699209  0.37548736  1
  Na  Na46  1  0.74853317  0.66658936  0.62436640  1
  Na  Na47  1  0.74643393  0.66581351  0.87553086  1
  Na  Na48  1  0.00194074  0.16655202  0.00090560  1
  Na  Na49  1  0.00026179  0.16702348  0.25005540  1
  Na  Na50  1  0.00122578  0.16574000  0.49866300  1
  Na  Na51  1  0.00141408  0.16605244  0.75078468  1
  Na  Na52  1  -0.00128153  0.50015687  0.00006845  1
  Na  Na53  1  -0.00155592  0.50032418  0.25037178  1
  Na  Na54  1  -0.00017280  0.50033452  0.50111872  1
  Na  Na55  1  0.00184939  0.49896109  0.74844901  1
  Na  Na56  1  -0.00003850  0.83391419  0.00025306  1
  Na  Na57  1  0.00041608  0.83341740  0.25000183  1
  Na  Na58  1  -0.00049500  0.83364858  0.49948137  1
  Na  Na59  1  0.00030121  0.83360732  0.75020852  1
  Na  Na60  1  0.49943899  0.16638003  0.00045801  1
  Na  Na61  1  0.49843776  0.16715732  0.25105345  1
  Na  Na62  1  0.49893059  0.16710210  0.49860503  1
  Na  Na63  1  0.50033349  0.16660532  0.74939014  1
  Na  Na64  1  0.50100701  0.50009181  0.00120329  1
  Na  Na65  1  0.50143528  0.49937609  0.24866955  1
  Na  Na66  1  0.50085844  0.49966226  0.50031524  1
  Na  Na67  1  0.50179461  0.49976995  0.75006127  1
  Na  Na68  1  0.50331994  0.83238206  0.00004010  1
  Na  Na69  1  0.49873961  0.83406112  0.25090430  1
  Na  Na70  1  0.49878750  0.83322707  0.49997123  1
  Na  Na71  1  0.50047712  0.83382953  0.74900873  1
  Na  Na72  1  0.25026999  0.16674673  0.12498401  1
  Na  Na73  1  0.25316629  0.16621064  0.37620548  1
  Na  Na74  1  0.25108140  0.16664749  0.62462209  1
  Na  Na75  1  0.24816822  0.16754769  0.87377710  1
  Na  Na76  1  0.25110453  0.49876044  0.12572981  1
  Na  Na77  1  0.24950822  0.50085020  0.37464720  1
  Na  Na78  1  0.25025832  0.50011213  0.62579177  1
  Na  Na79  1  0.24884046  0.50034821  0.87411137  1
  Na  Na80  1  0.24952194  0.83448090  0.12425039  1
  Na  Na81  1  0.25216006  0.83255701  0.37628521  1
  Na  Na82  1  0.25235500  0.83283720  0.62486235  1
  Na  Na83  1  0.25016161  0.83374258  0.87395705  1
  Na  Na84  1  0.74922054  0.16678144  0.12439818  1
  Na  Na85  1  0.74822181  0.16649850  0.37597830  1
  Na  Na86  1  0.74731275  0.16717972  0.62450690  1
  Na  Na87  1  0.74958370  0.16598656  0.87566796  1
  Na  Na88  1  0.74941320  0.50006226  0.12621363  1
  Na  Na89  1  0.74943633  0.49983378  0.37511888  1
  Na  Na90  1  0.74932657  0.49958138  0.62414409  1
  Na  Na91  1  0.74750849  0.50064322  0.87418835  1
  Na  Na92  1  0.74882840  0.83383569  0.12538042  1
  Na  Na93  1  0.75104702  0.83327785  0.37475108  1
  Na  Na94  1  0.74853363  0.83389477  0.62586297  1
  Na  Na95  1  0.74788093  0.83351548  0.87468896  1
  Mn  Mn96  1  0.35773209  0.41698567  0.25285869  1
  Mn  Mn97  1  0.85721442  0.41549540  0.25314322  1
  Mn  Mn98  1  0.39311734  0.58388764  0.87739722  1
  Mn  Mn99  1  0.14357378  0.25072285  0.49764121  1
  Mn  Mn100  1  0.89190951  0.91713487  0.87722817  1
  Mn  Mn101  1  0.89221474  0.91635404  0.37736234  1
  Mn  Mn102  1  0.14173526  0.58444075  0.24774649  1
  Mn  Mn103  1  0.64134586  0.24982674  0.74744616  1
  Mn  Mn104  1  0.64168174  0.25048292  0.99797467  1
  Mn  Mn105  1  0.64162451  0.91695340  0.24784479  1
  Mn  Mn106  1  0.89263372  0.58393318  0.62754227  1
  Mn  Mn107  1  0.10853255  0.08293173  0.12373962  1
  Mn  Mn108  1  0.85733281  0.75045047  0.25194983  1
  Mn  Mn109  1  0.10791494  0.74976946  0.12337273  1
  Mn  Mn110  1  0.89226376  0.24963878  0.12759247  1
  Mn  Mn111  1  0.39240697  0.58279841  0.37690008  1
  Mn  Mn112  1  0.39204507  0.25008462  0.87777682  1
  Mn  Mn113  1  0.35852462  0.41713445  0.75252951  1
  Mn  Mn114  1  0.85742799  0.08306333  0.75176861  1
  Mn  Mn115  1  0.14364518  0.91627018  0.49817442  1
  Mn  Mn116  1  0.60777726  0.08352914  0.87248772  1
  Mn  Mn117  1  0.14259670  0.91600899  0.74692763  1
  Mn  Mn118  1  0.60650720  0.08358994  0.37250719  1
  Mn  Mn119  1  0.89191140  0.25074799  0.37685758  1
  Mn  Mn120  1  0.85718883  0.08341869  0.50271287  1
  Mn  Mn121  1  0.85790266  0.08334561  0.00245071  1
  Mn  Mn122  1  0.10799733  0.74952248  0.87271273  1
  Mn  Mn123  1  0.10815359  0.74952067  0.37292211  1
  Mn  Mn124  1  0.35836134  0.74948344  0.75205547  1
  Mn  Mn125  1  0.10900133  0.08388172  0.37209734  1
  Mn  Mn126  1  0.14212138  0.25024199  0.74683499  1
  Mn  Mn127  1  0.35855839  0.74952040  0.00180437  1
  Mn  Mn128  1  0.89269102  0.25005922  0.87726802  1
  Mn  Mn129  1  0.89173531  0.58307519  0.87614670  1
  Mn  Mn130  1  0.35835241  0.08320270  0.75176344  1
  Mn  Mn131  1  0.85662450  0.74956376  0.00200908  1
  Mn  Mn132  1  0.60727621  0.74960989  0.37314583  1
  Mn  Mn133  1  0.39218669  0.91677011  0.12668358  1
  Mn  Mn134  1  0.39293900  0.58375839  0.12687317  1
  Mn  Mn135  1  0.10822077  0.41614740  0.62148493  1
  Mn  Mn136  1  0.14158288  0.58291604  0.99784324  1
  Mn  Mn137  1  0.60769024  0.41617058  0.12210764  1
  Mn  Mn138  1  0.64220928  0.58369018  0.49739780  1
  Mn  Mn139  1  0.35739310  0.08396775  0.00203075  1
  Mn  Mn140  1  0.10772633  0.41765903  0.12248809  1
  Mn  Mn141  1  0.85687435  0.41689368  0.75220563  1
  Mn  Mn142  1  0.89162027  0.24862598  0.62676936  1
  Mn  Mn143  1  0.85668219  0.74981761  0.75167178  1
  Fe  Fe144  1  0.85723968  0.75027865  0.50240660  1
  Fe  Fe145  1  0.35716537  0.41660757  0.00071996  1
  Fe  Fe146  1  0.35779511  0.08264326  0.25103985  1
  Fe  Fe147  1  0.35807039  0.08356804  0.50304233  1
  Fe  Fe148  1  0.85721386  0.41693167  0.00075556  1
  Fe  Fe149  1  0.14356258  0.58310310  0.49835887  1
  Fe  Fe150  1  0.10752407  0.41649112  0.87381624  1
  Fe  Fe151  1  0.89108724  0.58384781  0.12656437  1
  Fe  Fe152  1  0.14298416  0.25009689  0.99851612  1
  Fe  Fe153  1  0.60680739  0.08324804  0.62271510  1
  Fe  Fe154  1  0.60665161  0.41666214  0.62238808  1
  Fe  Fe155  1  0.39281754  0.25066388  0.37699540  1
  Fe  Fe156  1  0.85659554  0.08384782  0.25111718  1
  Fe  Fe157  1  0.64185374  0.91637905  0.74720990  1
  Fe  Fe158  1  0.14261896  0.58340465  0.74794641  1
  Fe  Fe159  1  0.60686171  0.08309776  0.12410712  1
  Fe  Fe160  1  0.64244168  0.91666331  0.99845622  1
  Fe  Fe161  1  0.64162111  0.58349106  0.74733068  1
  Fe  Fe162  1  0.39314086  0.58323032  0.62686031  1
  Fe  Fe163  1  0.39395294  0.25026520  0.62610777  1
  Fe  Fe164  1  0.60768132  0.75099435  0.12360278  1
  Fe  Fe165  1  0.89262124  0.91693541  0.62640150  1
  Fe  Fe166  1  0.14248156  0.91701094  0.99791344  1
  Fe  Fe167  1  0.10758336  0.08253895  0.62318372  1
  Fe  Fe168  1  0.10738495  0.75118138  0.62269178  1
  Fe  Fe169  1  0.64147673  0.24973664  0.49800674  1
  Fe  Fe170  1  0.39424988  0.91641042  0.62662990  1
  Fe  Fe171  1  0.85652096  0.41633403  0.50142401  1
  Fe  Fe172  1  0.89255770  0.91656620  0.12663435  1
  Fe  Fe173  1  0.64156595  0.24964467  0.24816199  1
  Fe  Fe174  1  0.60715320  0.41654116  0.37379553  1
  Fe  Fe175  1  0.39187920  0.91678377  0.37700540  1
  Fe  Fe176  1  0.89223827  0.58286745  0.37734867  1
  Fe  Fe177  1  0.39188025  0.24954173  0.12676608  1
  Fe  Fe178  1  0.35819962  0.75056273  0.25113124  1
  Fe  Fe179  1  0.60770611  0.74995121  0.87282877  1
  Fe  Fe180  1  0.60673475  0.75022209  0.62222455  1
  Fe  Fe181  1  0.64303031  0.58305694  0.24853713  1
  Fe  Fe182  1  0.14393517  0.24910671  0.24894144  1
  Fe  Fe183  1  0.14386179  0.91685597  0.24896665  1
  Fe  Fe184  1  0.60747116  0.41670361  0.87406228  1
  Fe  Fe185  1  0.64251837  0.91670482  0.49845421  1
  Fe  Fe186  1  0.10741900  0.41694976  0.37431806  1
  Fe  Fe187  1  0.39390014  0.91643596  0.87652220  1
  Fe  Fe188  1  0.35766031  0.74900553  0.50294557  1
  Fe  Fe189  1  0.10788499  0.08359964  0.87330400  1
  Fe  Fe190  1  0.35809081  0.41744369  0.50135712  1
  Fe  Fe191  1  0.64281462  0.58310370  0.99835189  1
  P  P192  1  0.05580743  0.24968067  0.11102272  1
  P  P193  1  0.05443478  0.25136857  0.35941980  1
  P  P194  1  0.05332386  0.24853369  0.60920429  1
  P  P195  1  0.05523391  0.25039773  0.86152660  1
  P  P196  1  0.05112269  0.58389996  0.11008545  1
  P  P197  1  0.05329489  0.58240658  0.36172236  1
  P  P198  1  0.05579887  0.58446334  0.61019058  1
  P  P199  1  0.05373875  0.58208030  0.85883296  1
  P  P200  1  0.05446320  0.91665818  0.11107723  1
  P  P201  1  0.05478346  0.91652677  0.35935681  1
  P  P202  1  0.05255792  0.91681208  0.60953137  1
  P  P203  1  0.05484969  0.91732907  0.86098676  1
  P  P204  1  0.55269966  0.24865340  0.11153784  1
  P  P205  1  0.55349107  0.25089051  0.36058680  1
  P  P206  1  0.55286839  0.24999272  0.60913294  1
  P  P207  1  0.55286562  0.25104157  0.86010190  1
  P  P208  1  0.55575962  0.58435472  0.11091361  1
  P  P209  1  0.55398895  0.58230261  0.35925002  1
  P  P210  1  0.55335106  0.58369447  0.61074289  1
  P  P211  1  0.55566380  0.58292937  0.86093807  1
  P  P212  1  0.55381322  0.91718120  0.11006906  1
  P  P213  1  0.55261797  0.91651079  0.36154881  1
  P  P214  1  0.55410282  0.91647718  0.61006420  1
  P  P215  1  0.55450221  0.91593043  0.86012457  1
  P  P216  1  0.44691168  0.08358187  0.14056073  1
  P  P217  1  0.44381064  0.08341289  0.38920239  1
  P  P218  1  0.44702358  0.08335034  0.63828655  1
  P  P219  1  0.44685871  0.08226580  0.88986173  1
  P  P220  1  0.44499302  0.41594548  0.13875541  1
  P  P221  1  0.44746373  0.41639409  0.39033546  1
  P  P222  1  0.44662117  0.41712733  0.63845453  1
  P  P223  1  0.44790142  0.41725682  0.89093701  1
  P  P224  1  0.44801757  0.75030094  0.14035867  1
  P  P225  1  0.44438215  0.75052412  0.38964076  1
  P  P226  1  0.44677979  0.74936771  0.63869229  1
  P  P227  1  0.44876615  0.75075104  0.88969669  1
  P  P228  1  0.94630764  0.08246637  0.14097008  1
  P  P229  1  0.94553000  0.08386257  0.38861730  1
  P  P230  1  0.94788509  0.08216713  0.63987924  1
  P  P231  1  0.94824598  0.08339832  0.89039451  1
  P  P232  1  0.94460089  0.41753917  0.13901602  1
  P  P233  1  0.94700149  0.41702540  0.39088281  1
  P  P234  1  0.94519220  0.41614018  0.63871278  1
  P  P235  1  0.94747171  0.41676481  0.89026563  1
  P  P236  1  0.94606877  0.75019916  0.13981614  1
  P  P237  1  0.94564068  0.74920786  0.39090772  1
  P  P238  1  0.94647377  0.75132751  0.63880248  1
  P  P239  1  0.94627935  0.74994795  0.88967819  1
  P  P240  1  0.19886279  0.08285875  0.23547932  1
  P  P241  1  0.19760085  0.08322787  0.48655329  1
  P  P242  1  0.19534778  0.08310411  0.73467982  1
  P  P243  1  0.19607281  0.08357028  0.98463329  1
  P  P244  1  0.19511318  0.41618602  0.23669195  1
  P  P245  1  0.19822336  0.41766657  0.48448250  1
  P  P246  1  0.19556741  0.41730901  0.73568167  1
  P  P247  1  0.19739647  0.41580359  0.98450835  1
  P  P248  1  0.19852236  0.75118266  0.23536221  1
  P  P249  1  0.19721757  0.74918136  0.48665035  1
  P  P250  1  0.19615915  0.74940286  0.73381248  1
  P  P251  1  0.19694474  0.75059593  0.98479019  1
  P  P252  1  0.69629150  0.08408815  0.23468875  1
  P  P253  1  0.69425866  0.08279912  0.48620215  1
  P  P254  1  0.69532327  0.08245411  0.73391776  1
  P  P255  1  0.69517111  0.08254616  0.98641117  1
  P  P256  1  0.69457277  0.41633756  0.23665407  1
  P  P257  1  0.69518429  0.41604705  0.48554032  1
  P  P258  1  0.69386738  0.41762307  0.73507133  1
  P  P259  1  0.69724002  0.41728181  0.98469507  1
  P  P260  1  0.69568737  0.74928580  0.23496359  1
  P  P261  1  0.69649736  0.75117288  0.48614281  1
  P  P262  1  0.69370746  0.74991146  0.73512378  1
  P  P263  1  0.69418386  0.75036757  0.98597385  1
  P  P264  1  0.30253374  0.25104528  0.01530718  1
  P  P265  1  0.30470052  0.24898344  0.26452862  1
  P  P266  1  0.30626048  0.25094916  0.51436731  1
  P  P267  1  0.30522780  0.24993668  0.76344948  1
  P  P268  1  0.30321923  0.58227307  0.01476902  1
  P  P269  1  0.30337654  0.58443013  0.26489492  1
  P  P270  1  0.30371639  0.58267739  0.51570656  1
  P  P271  1  0.30376824  0.58354257  0.76403189  1
  P  P272  1  0.30348496  0.91667921  0.01307635  1
  P  P273  1  0.30343820  0.91671313  0.26540233  1
  P  P274  1  0.30631081  0.91641858  0.51501104  1
  P  P275  1  0.30619864  0.91637582  0.76421739  1
  P  P276  1  0.80318405  0.25107849  0.01497353  1
  P  P277  1  0.80126978  0.24879644  0.26520314  1
  P  P278  1  0.80117301  0.25077182  0.51485059  1
  P  P279  1  0.80265211  0.24955488  0.76510095  1
  P  P280  1  0.80211238  0.58244220  0.01502454  1
  P  P281  1  0.80374850  0.58329773  0.26492004  1
  P  P282  1  0.80469711  0.58314679  0.51382163  1
  P  P283  1  0.80098586  0.58377693  0.76452541  1
  P  P284  1  0.80231361  0.91634004  0.01543414  1
  P  P285  1  0.80410849  0.91790086  0.26384687  1
  P  P286  1  0.80272220  0.91600851  0.51574473  1
  P  P287  1  0.80256488  0.91652703  0.76383610  1
  O  O288  1  0.06052584  0.24953721  0.18777915  1
  O  O289  1  0.05770265  0.25001755  0.43618589  1
  O  O290  1  0.05623042  0.24966093  0.68606521  1
  O  O291  1  0.05894138  0.25057779  0.93827660  1
  O  O292  1  0.05537251  0.58381263  0.18681003  1
  O  O293  1  0.05879519  0.58324057  0.43832613  1
  O  O294  1  0.05977559  0.58347763  0.68695564  1
  O  O295  1  0.05618071  0.58289897  0.93569247  1
  O  O296  1  0.05970079  0.91667450  0.18777042  1
  O  O297  1  0.05856286  0.91668981  0.43609899  1
  O  O298  1  0.05612035  0.91646462  0.68624696  1
  O  O299  1  0.05890308  0.91666745  0.93777456  1
  O  O300  1  0.55731218  0.24945960  0.18822791  1
  O  O301  1  0.55823317  0.25014353  0.43727810  1
  O  O302  1  0.55596166  0.24996152  0.68586159  1
  O  O303  1  0.55571272  0.25025471  0.93691383  1
  O  O304  1  0.55937504  0.58335023  0.18768653  1
  O  O305  1  0.55673194  0.58311326  0.43621937  1
  O  O306  1  0.55742441  0.58379781  0.68742010  1
  O  O307  1  0.55932530  0.58269481  0.93776962  1
  O  O308  1  0.55599318  0.91719142  0.18693209  1
  O  O309  1  0.55775683  0.91625590  0.43814046  1
  O  O310  1  0.55808105  0.91666330  0.68680734  1
  O  O311  1  0.55881423  0.91660359  0.93683682  1
  O  O312  1  0.44336821  0.08308441  0.06384227  1
  O  O313  1  0.44026701  0.08302695  0.31236801  1
  O  O314  1  0.44270015  0.08333559  0.56154737  1
  O  O315  1  0.44409506  0.08301527  0.81309052  1
  O  O316  1  0.44066483  0.41646235  0.06200692  1
  O  O317  1  0.44384256  0.41703788  0.31361953  1
  O  O318  1  0.44212517  0.41756527  0.56181356  1
  O  O319  1  0.44439391  0.41741313  0.81416513  1
  O  O320  1  0.44433856  0.74998539  0.06362009  1
  O  O321  1  0.44070731  0.75014589  0.31282308  1
  O  O322  1  0.44202745  0.74876880  0.56198344  1
  O  O323  1  0.44487993  0.75007454  0.81302264  1
  O  O324  1  0.94345342  0.08340712  0.06403479  1
  O  O325  1  0.94057102  0.08405795  0.31198397  1
  O  O326  1  0.94378296  0.08299460  0.56314552  1
  O  O327  1  0.94388512  0.08314638  0.81372175  1
  O  O328  1  0.94029490  0.41684759  0.06227746  1
  O  O329  1  0.94330774  0.41624722  0.31409035  1
  O  O330  1  0.94018589  0.41610577  0.56201586  1
  O  O331  1  0.94344101  0.41672254  0.81351369  1
  O  O332  1  0.94315098  0.75028003  0.06305226  1
  O  O333  1  0.94233393  0.75006323  0.31412654  1
  O  O334  1  0.94143878  0.75047320  0.56215427  1
  O  O335  1  0.94296465  0.75004925  0.81288220  1
  O  O336  1  0.19378764  0.08307129  0.06103619  1
  O  O337  1  0.19609268  0.08329104  0.31250325  1
  O  O338  1  0.19209150  0.08288521  0.56313501  1
  O  O339  1  0.19103784  0.08320923  0.81148557  1
  O  O340  1  0.19394873  0.41670760  0.06129331  1
  O  O341  1  0.19113575  0.41722381  0.31340715  1
  O  O342  1  0.19459454  0.41669371  0.56121423  1
  O  O343  1  0.19123098  0.41653373  0.81237285  1
  O  O344  1  0.19388397  0.75033939  0.06158026  1
  O  O345  1  0.19485282  0.75002445  0.31208059  1
  O  O346  1  0.19197927  0.75042393  0.56320647  1
  O  O347  1  0.19310122  0.75030459  0.81061367  1
  O  O348  1  0.69094192  0.08334107  0.06310859  1
  O  O349  1  0.69248239  0.08334834  0.31140183  1
  O  O350  1  0.68998877  0.08300173  0.56296215  1
  O  O351  1  0.69270921  0.08310867  0.81076667  1
  O  O352  1  0.69372903  0.41638283  0.06141553  1
  O  O353  1  0.69075289  0.41621306  0.31353067  1
  O  O354  1  0.69024149  0.41670513  0.56222083  1
  O  O355  1  0.69016088  0.41669404  0.81188741  1
  O  O356  1  0.69101393  0.75067633  0.06278567  1
  O  O357  1  0.69300158  0.75020869  0.31179000  1
  O  O358  1  0.69125873  0.75036168  0.56279289  1
  O  O359  1  0.69027474  0.75005552  0.81200697  1
  O  O360  1  0.30886853  0.24971652  0.18775447  1
  O  O361  1  0.30969315  0.25103212  0.43749702  1
  O  O362  1  0.31046178  0.24996717  0.68674617  1
  O  O363  1  0.30596088  0.25020611  0.93850457  1
  O  O364  1  0.30682739  0.58345818  0.18816717  1
  O  O365  1  0.30719384  0.58276657  0.43898690  1
  O  O366  1  0.30930047  0.58349478  0.68742220  1
  O  O367  1  0.30641485  0.58315032  0.93798082  1
  O  O368  1  0.30634032  0.91682354  0.18863114  1
  O  O369  1  0.30932773  0.91649897  0.43815761  1
  O  O370  1  0.31120870  0.91646257  0.68745073  1
  O  O371  1  0.30888465  0.91635394  0.93644656  1
  O  O372  1  0.80568763  0.24968766  0.18856267  1
  O  O373  1  0.80532293  0.25016755  0.43819547  1
  O  O374  1  0.80571891  0.24942646  0.68829909  1
  O  O375  1  0.80641405  0.25029693  0.93818864  1
  O  O376  1  0.80808670  0.58342188  0.18817164  1
  O  O377  1  0.80844685  0.58306905  0.43706515  1
  O  O378  1  0.80565730  0.58381629  0.68785575  1
  O  O379  1  0.80563019  0.58320544  0.93827930  1
  O  O380  1  0.80824937  0.91700988  0.18713658  1
  O  O381  1  0.80656616  0.91662574  0.43900034  1
  O  O382  1  0.80816057  0.91682650  0.68724813  1
  O  O383  1  0.80593829  0.91644350  0.93865404  1
  O  O384  1  0.23257302  0.25003988  0.04002392  1
  O  O385  1  0.23440450  0.24963935  0.28855804  1
  O  O386  1  0.23628340  0.25059916  0.53893790  1
  O  O387  1  0.23496432  0.24999698  0.78666619  1
  O  O388  1  0.23361270  0.58274073  0.04023138  1
  O  O389  1  0.23370839  0.58443631  0.29006845  1
  O  O390  1  0.23359846  0.58279066  0.54013045  1
  O  O391  1  0.23330888  0.58360217  0.78709593  1
  O  O392  1  0.23311611  0.91717022  0.03661312  1
  O  O393  1  0.23370233  0.91673720  0.29110332  1
  O  O394  1  0.23637384  0.91633144  0.53973729  1
  O  O395  1  0.23582464  0.91621183  0.78709821  1
  O  O396  1  0.73347855  0.25085625  0.04010377  1
  O  O397  1  0.73113582  0.24936123  0.28944425  1
  O  O398  1  0.73095400  0.25029267  0.53903401  1
  O  O399  1  0.73293035  0.24955910  0.79009945  1
  O  O400  1  0.73198141  0.58305423  0.03953458  1
  O  O401  1  0.73336824  0.58321226  0.28865669  1
  O  O402  1  0.73454963  0.58321999  0.53813787  1
  O  O403  1  0.73083215  0.58370210  0.78837555  1
  O  O404  1  0.73215830  0.91657660  0.03968072  1
  O  O405  1  0.73411641  0.91708413  0.28835384  1
  O  O406  1  0.73250531  0.91668511  0.53983485  1
  O  O407  1  0.73204036  0.91618918  0.78686581  1
  O  O408  1  0.26862781  0.08282184  0.20997596  1
  O  O409  1  0.26822985  0.08351503  0.46386038  1
  O  O410  1  0.26550800  0.08308514  0.71101570  1
  O  O411  1  0.26572372  0.08363787  0.95857346  1
  O  O412  1  0.26516568  0.41603706  0.21250470  1
  O  O413  1  0.26830266  0.41739545  0.45996942  1
  O  O414  1  0.26568429  0.41705762  0.71173523  1
  O  O415  1  0.26730916  0.41643893  0.95935501  1
  O  O416  1  0.26845483  0.75093405  0.21033841  1
  O  O417  1  0.26777832  0.74945490  0.46359384  1
  O  O418  1  0.26601725  0.74954067  0.70914033  1
  O  O419  1  0.26653733  0.74987636  0.95920544  1
  O  O420  1  0.76629357  0.08365155  0.21004069  1
  O  O421  1  0.76429567  0.08291077  0.46206525  1
  O  O422  1  0.76495552  0.08320258  0.70858745  1
  O  O423  1  0.76509746  0.08245789  0.96176925  1
  O  O424  1  0.76452694  0.41651967  0.21234075  1
  O  O425  1  0.76556731  0.41661167  0.46193285  1
  O  O426  1  0.76387567  0.41686546  0.71076838  1
  O  O427  1  0.76716871  0.41711761  0.95973780  1
  O  O428  1  0.76529439  0.75004721  0.20965333  1
  O  O429  1  0.76679606  0.75049286  0.46252231  1
  O  O430  1  0.76365809  0.74989961  0.71059387  1
  O  O431  1  0.76398474  0.74982720  0.96083364  1
  O  O432  1  0.01594412  0.08299819  0.16591139  1
  O  O433  1  0.01590409  0.08348785  0.41198133  1
  O  O434  1  0.01786998  0.08256685  0.66449332  1
  O  O435  1  0.01833923  0.08350469  0.91468092  1
  O  O436  1  0.01471846  0.41733158  0.16302406  1
  O  O437  1  0.01707292  0.41663770  0.41546654  1
  O  O438  1  0.01551738  0.41647917  0.66188989  1
  O  O439  1  0.01752501  0.41670065  0.91478448  1
  O  O440  1  0.01554822  0.74968567  0.16574300  1
  O  O441  1  0.01558855  0.74990425  0.41539938  1
  O  O442  1  0.01683809  0.75083050  0.66237538  1
  O  O443  1  0.01597266  0.74983081  0.91469490  1
  O  O444  1  0.51679490  0.08310330  0.16564333  1
  O  O445  1  0.51389376  0.08351771  0.41332615  1
  O  O446  1  0.51729871  0.08338876  0.66239649  1
  O  O447  1  0.51641572  0.08293482  0.91525575  1
  O  O448  1  0.51509449  0.41623079  0.16264606  1
  O  O449  1  0.51753216  0.41651135  0.41485026  1
  O  O450  1  0.51699272  0.41702823  0.66227021  1
  O  O451  1  0.51785637  0.41677216  0.91572814  1
  O  O452  1  0.51808944  0.75113108  0.16478129  1
  O  O453  1  0.51445423  0.74939176  0.41389775  1
  O  O454  1  0.51709920  0.75046510  0.66240876  1
  O  O455  1  0.51887704  0.74975401  0.91399729  1
  O  O456  1  0.48241034  0.24918051  0.08755583  1
  O  O457  1  0.48294388  0.25025498  0.33736826  1
  O  O458  1  0.48279492  0.25011361  0.58441283  1
  O  O459  1  0.48339887  0.25072161  0.83439720  1
  O  O460  1  0.48579559  0.58356321  0.08637575  1
  O  O461  1  0.48438617  0.58317880  0.33410545  1
  O  O462  1  0.48322075  0.58308233  0.58632363  1
  O  O463  1  0.48575047  0.58385350  0.83615984  1
  O  O464  1  0.48428284  0.91635610  0.08433764  1
  O  O465  1  0.48221795  0.91694039  0.33809688  1
  O  O466  1  0.48371311  0.91605969  0.58622597  1
  O  O467  1  0.48430183  0.91677196  0.83587307  1
  O  O468  1  0.98548608  0.24960195  0.08760726  1
  O  O469  1  0.98467975  0.25092552  0.33435006  1
  O  O470  1  0.98375629  0.24889229  0.58379220  1
  O  O471  1  0.98543486  0.25013979  0.83646792  1
  O  O472  1  0.98107489  0.58360636  0.08571715  1
  O  O473  1  0.98281433  0.58281058  0.33832267  1
  O  O474  1  0.98554659  0.58362834  0.58661087  1
  O  O475  1  0.98422424  0.58308160  0.83295129  1
  O  O476  1  0.98395518  0.91698872  0.08764536  1
  O  O477  1  0.98475191  0.91634940  0.33538002  1
  O  O478  1  0.98268234  0.91689751  0.58440850  1
  O  O479  1  0.98489299  0.91685590  0.83653810  1
  O  O480  1  0.08909264  0.31477465  0.07760499  1
  O  O481  1  0.08837989  0.31680714  0.32779572  1
  O  O482  1  0.08776751  0.31351155  0.57672302  1
  O  O483  1  0.08872878  0.31563451  0.82849065  1
  O  O484  1  0.08491977  0.64889215  0.07733495  1
  O  O485  1  0.08643581  0.64744009  0.32781692  1
  O  O486  1  0.08885351  0.64989857  0.57738024  1
  O  O487  1  0.08890989  0.64673251  0.82652530  1
  O  O488  1  0.08805167  0.98151977  0.07778789  1
  O  O489  1  0.08874659  0.98153523  0.32650129  1
  O  O490  1  0.08671860  0.98190489  0.57710006  1
  O  O491  1  0.08836705  0.98257825  0.82828739  1
  O  O492  1  0.58628904  0.31352106  0.07798703  1
  O  O493  1  0.58650161  0.31604426  0.32740000  1
  O  O494  1  0.58675866  0.31509655  0.57652614  1
  O  O495  1  0.58698351  0.31629514  0.82825015  1
  O  O496  1  0.58902685  0.64981667  0.07849172  1
  O  O497  1  0.58890355  0.64701976  0.32711812  1
  O  O498  1  0.58654138  0.64888427  0.57735325  1
  O  O499  1  0.58996044  0.64777392  0.82814858  1
  O  O500  1  0.58765283  0.98257083  0.07789203  1
  O  O501  1  0.58595096  0.98142724  0.32806731  1
  O  O502  1  0.58718161  0.98155841  0.57667575  1
  O  O503  1  0.58848769  0.98062128  0.82665542  1
  O  O504  1  0.41262937  0.01856757  0.17317093  1
  O  O505  1  0.41024999  0.01847138  0.42246542  1
  O  O506  1  0.41391156  0.01816640  0.67148300  1
  O  O507  1  0.41308595  0.01694528  0.92201103  1
  O  O508  1  0.41169085  0.35077781  0.17178025  1
  O  O509  1  0.41338464  0.35146599  0.42282782  1
  O  O510  1  0.41353451  0.35181851  0.67151585  1
  O  O511  1  0.41334795  0.35240890  0.92337385  1
  O  O512  1  0.41446688  0.68523295  0.17334627  1
  O  O513  1  0.41028486  0.68564404  0.42270177  1
  O  O514  1  0.41419683  0.68412495  0.67246267  1
  O  O515  1  0.41473361  0.68596650  0.92277738  1
  O  O516  1  0.91212994  0.01716269  0.17275044  1
  O  O517  1  0.91211705  0.01884585  0.42195830  1
  O  O518  1  0.91419650  0.01685773  0.67239539  1
  O  O519  1  0.91450393  0.01835276  0.92331286  1
  O  O520  1  0.91132357  0.35238322  0.17256170  1
  O  O521  1  0.91270282  0.35208991  0.42361076  1
  O  O522  1  0.91219082  0.35099317  0.67211131  1
  O  O523  1  0.91343727  0.35197067  0.92331693  1
  O  O524  1  0.91139652  0.68526132  0.17193104  1
  O  O525  1  0.91182278  0.68401106  0.42325381  1
  O  O526  1  0.91304727  0.68638209  0.67247062  1
  O  O527  1  0.91212062  0.68474424  0.92183006  1
  O  O528  1  0.16484225  0.01769152  0.20343958  1
  O  O529  1  0.16477511  0.01823127  0.45268345  1
  O  O530  1  0.16188206  0.01800028  0.70152102  1
  O  O531  1  0.16162096  0.01865274  0.95188888  1
  O  O532  1  0.16167291  0.35089818  0.20413664  1
  O  O533  1  0.16405095  0.35285644  0.45154261  1
  O  O534  1  0.16216474  0.35238503  0.70195372  1
  O  O535  1  0.16366138  0.35044185  0.95227682  1
  O  O536  1  0.16429627  0.68637496  0.20231106  1
  O  O537  1  0.16440147  0.68378467  0.45337018  1
  O  O538  1  0.16187991  0.68438106  0.70183086  1
  O  O539  1  0.16246159  0.68545721  0.95277682  1
  O  O540  1  0.66203534  0.01920105  0.20188094  1
  O  O541  1  0.66095125  0.01752608  0.45316432  1
  O  O542  1  0.66123643  0.01721017  0.70181586  1
  O  O543  1  0.66150035  0.01731763  0.95375245  1
  O  O544  1  0.66103833  0.35124885  0.20355175  1
  O  O545  1  0.66177071  0.35099212  0.45240933  1
  O  O546  1  0.65967971  0.35289336  0.70184039  1
  O  O547  1  0.66291602  0.35249261  0.95175965  1
  O  O548  1  0.66189607  0.68391602  0.20302054  1
  O  O549  1  0.66295161  0.68616996  0.45270889  1
  O  O550  1  0.65985035  0.68487961  0.70220394  1
  O  O551  1  0.66002674  0.68529485  0.95350376  1
  O  O552  1  0.33616369  0.31633798  0.04767473  1
  O  O553  1  0.33855653  0.31376559  0.29806967  1
  O  O554  1  0.33975819  0.31625421  0.54705573  1
  O  O555  1  0.33836328  0.31497438  0.79693337  1
  O  O556  1  0.33778868  0.64721241  0.04718819  1
  O  O557  1  0.33763283  0.64949341  0.29687081  1
  O  O558  1  0.33779347  0.64759297  0.54867815  1
  O  O559  1  0.33686962  0.64857882  0.79761539  1
  O  O560  1  0.33680400  0.98166796  0.04655170  1
  O  O561  1  0.33773994  0.98174510  0.29782881  1
  O  O562  1  0.34015787  0.98149099  0.54778973  1
  O  O563  1  0.33940165  0.98138458  0.79766125  1
  O  O564  1  0.83711854  0.31627084  0.04714172  1
  O  O565  1  0.83511702  0.31376324  0.29839128  1
  O  O566  1  0.83466053  0.31590418  0.54753592  1
  O  O567  1  0.83668953  0.31475876  0.79727765  1
  O  O568  1  0.83607250  0.64736629  0.04814992  1
  O  O569  1  0.83726038  0.64829718  0.29807017  1
  O  O570  1  0.83805169  0.64837182  0.54687600  1
  O  O571  1  0.83442313  0.64877025  0.79767477  1
  O  O572  1  0.83658252  0.98112640  0.04822511  1
  O  O573  1  0.83719719  0.98331192  0.29665381  1
  O  O574  1  0.83686645  0.98087807  0.54874229  1
  O  O575  1  0.83543165  0.98165193  0.79763680  1
  O  O576  1  0.41273222  0.14852102  0.17309078  1
  O  O577  1  0.41029939  0.14870273  0.42190359  1
  O  O578  1  0.41367783  0.14846602  0.67132323  1
  O  O579  1  0.41241505  0.14717180  0.92238328  1
  O  O580  1  0.41165112  0.48100031  0.17214109  1
  O  O581  1  0.41360116  0.48134459  0.42341955  1
  O  O582  1  0.41349228  0.48209494  0.67223396  1
  O  O583  1  0.41408329  0.48233109  0.92361711  1
  O  O584  1  0.41352059  0.81511126  0.17287192  1
  O  O585  1  0.41120052  0.81572856  0.42260927  1
  O  O586  1  0.41315659  0.81442143  0.67157935  1
  O  O587  1  0.41557601  0.81612606  0.92238862  1
  O  O588  1  0.91163121  0.14725671  0.17362282  1
  O  O589  1  0.91246964  0.14894860  0.42222082  1
  O  O590  1  0.91390180  0.14709171  0.67286211  1
  O  O591  1  0.91451160  0.14846047  0.92322580  1
  O  O592  1  0.91107335  0.48265103  0.17184785  1
  O  O593  1  0.91297098  0.48204396  0.42334835  1
  O  O594  1  0.91193635  0.48129379  0.67210101  1
  O  O595  1  0.91342565  0.48193225  0.92274260  1
  O  O596  1  0.91224748  0.81566203  0.17208351  1
  O  O597  1  0.91119395  0.81405177  0.42365829  1
  O  O598  1  0.91332023  0.81661547  0.67181811  1
  O  O599  1  0.91221568  0.81490015  0.92229566  1
  O  O600  1  0.08933765  0.18480847  0.07789372  1
  O  O601  1  0.08910466  0.18657752  0.32652098  1
  O  O602  1  0.08754647  0.18333608  0.57736610  1
  O  O603  1  0.08916008  0.18524444  0.82879999  1
  O  O604  1  0.08516529  0.51899208  0.07721216  1
  O  O605  1  0.08619888  0.51716592  0.32846425  1
  O  O606  1  0.08979261  0.51980344  0.57659995  1
  O  O607  1  0.08776539  0.51661179  0.82711499  1
  O  O608  1  0.08756038  0.85154859  0.07749422  1
  O  O609  1  0.08876933  0.85149000  0.32674888  1
  O  O610  1  0.08664468  0.85174337  0.57683593  1
  O  O611  1  0.08862635  0.85243080  0.82768812  1
  O  O612  1  0.58585916  0.18342425  0.07859709  1
  O  O613  1  0.58689957  0.18600580  0.32691550  1
  O  O614  1  0.58666658  0.18499282  0.57630075  1
  O  O615  1  0.58718588  0.18608324  0.82757821  1
  O  O616  1  0.58988916  0.51965163  0.07752349  1
  O  O617  1  0.58783126  0.51694907  0.32737469  1
  O  O618  1  0.58729835  0.51881409  0.57779644  1
  O  O619  1  0.58879437  0.51752344  0.82797908  1
  O  O620  1  0.58882332  0.85244172  0.07801085  1
  O  O621  1  0.58568276  0.85148761  0.32804574  1
  O  O622  1  0.58768987  0.85148129  0.57684720  1
  O  O623  1  0.58756076  0.85058660  0.82706210  1
  O  O624  1  0.33709991  0.18628466  0.04813358  1
  O  O625  1  0.33794123  0.18375308  0.29727574  1
  O  O626  1  0.34027634  0.18596099  0.54721977  1
  O  O627  1  0.33821345  0.18483075  0.79693812  1
  O  O628  1  0.33715664  0.51694484  0.04678351  1
  O  O629  1  0.33726150  0.51932431  0.29781878  1
  O  O630  1  0.33758537  0.51754155  0.54837181  1
  O  O631  1  0.33693698  0.51860822  0.79762470  1
  O  O632  1  0.33651547  0.85165792  0.04681881  1
  O  O633  1  0.33784890  0.85170558  0.29775937  1
  O  O634  1  0.34022691  0.85129051  0.54760046  1
  O  O635  1  0.33964829  0.85142338  0.79764406  1
  O  O636  1  0.83728970  0.18598109  0.04757943  1
  O  O637  1  0.83483321  0.18364961  0.29784205  1
  O  O638  1  0.83492436  0.18564303  0.54781697  1
  O  O639  1  0.83676132  0.18452444  0.79754428  1
  O  O640  1  0.83574113  0.51729452  0.04760911  1
  O  O641  1  0.83727929  0.51832252  0.29824663  1
  O  O642  1  0.83798889  0.51790965  0.54670367  1
  O  O643  1  0.83462040  0.51869365  0.79743818  1
  O  O644  1  0.83604961  0.85122316  0.04814911  1
  O  O645  1  0.83799506  0.85305215  0.29710366  1
  O  O646  1  0.83627450  0.85086833  0.54859617  1
  O  O647  1  0.83569889  0.85148710  0.79732824  1
  O  O648  1  0.16467346  0.14776010  0.20321179  1
  O  O649  1  0.16462447  0.14827435  0.45283645  1
  O  O650  1  0.16172473  0.14798236  0.70138468  1
  O  O651  1  0.16187395  0.14895298  0.95248537  1
  O  O652  1  0.16175760  0.48122547  0.20308363  1
  O  O653  1  0.16411928  0.48284159  0.45223921  1
  O  O654  1  0.16218564  0.48251606  0.70286437  1
  O  O655  1  0.16276627  0.48050147  0.95178518  1
  O  O656  1  0.16477399  0.81651909  0.20321519  1
  O  O657  1  0.16412057  0.81397473  0.45263590  1
  O  O658  1  0.16213619  0.81442302  0.70082590  1
  O  O659  1  0.16306229  0.81576484  0.95242501  1
  O  O660  1  0.66230747  0.14915744  0.20212946  1
  O  O661  1  0.66062975  0.14790704  0.45323108  1
  O  O662  1  0.66043194  0.14720967  0.70153283  1
  O  O663  1  0.66165909  0.14761611  0.95313927  1
  O  O664  1  0.66106918  0.48153170  0.20387655  1
  O  O665  1  0.66160638  0.48099552  0.45199139  1
  O  O666  1  0.66054782  0.48298268  0.70225897  1
  O  O667  1  0.66309382  0.48238048  0.95246347  1
  O  O668  1  0.66091257  0.81402093  0.20242349  1
  O  O669  1  0.66338463  0.81635165  0.45292703  1
  O  O670  1  0.65990104  0.81500678  0.70225153  1
  O  O671  1  0.66058435  0.81554974  0.95299767  1
