# generated using pymatgen
data_Na2MnFe(PO4)2
_symmetry_space_group_name_H-M   'P 1'
_cell_length_a   21.08133063
_cell_length_b   18.93306808
_cell_length_c   20.04080173
_cell_angle_alpha   89.99934066
_cell_angle_beta   89.99812524
_cell_angle_gamma   90.00187757
_symmetry_Int_Tables_number   1
_chemical_formula_structural   Na2MnFe(PO4)2
_chemical_formula_sum   'Na96 Mn48 Fe48 P96 O384'
_cell_volume   7998.97071814
_cell_formula_units_Z   48
loop_
 _symmetry_equiv_pos_site_id
 _symmetry_equiv_pos_as_xyz
  1  'x, y, z'
loop_
 _atom_site_type_symbol
 _atom_site_label
 _atom_site_symmetry_multiplicity
 _atom_site_fract_x
 _atom_site_fract_y
 _atom_site_fract_z
 _atom_site_occupancy
  Na  Na0  1  -0.00060128  -0.00069494  -0.00063125  1
  Na  Na1  1  -0.00161950  -0.00098466  0.25080035  1
  Na  Na2  1  -0.00087582  -0.00109608  0.50056995  1
  Na  Na3  1  0.00198882  0.00025380  0.74926345  1
  Na  Na4  1  0.00180998  0.33410512  -0.00080413  1
  Na  Na5  1  -0.00021600  0.33306046  0.25075819  1
  Na  Na6  1  0.00131822  0.33417035  0.50066796  1
  Na  Na7  1  0.00097847  0.33354958  0.74926313  1
  Na  Na8  1  0.00333169  0.66797853  -0.00009437  1
  Na  Na9  1  -0.00083557  0.66658832  0.25053226  1
  Na  Na10  1  -0.00166351  0.66634493  0.50061896  1
  Na  Na11  1  -0.00051301  0.66590994  0.74974469  1
  Na  Na12  1  0.49863861  -0.00028451  -0.00002201  1
  Na  Na13  1  0.49986614  -0.00065119  0.25026337  1
  Na  Na14  1  0.50068699  -0.00052089  0.49990521  1
  Na  Na15  1  0.49876953  -0.00033011  0.75024914  1
  Na  Na16  1  0.49852491  0.33333210  0.00161567  1
  Na  Na17  1  0.50099296  0.33380996  0.24986901  1
  Na  Na18  1  0.50113368  0.33335214  0.49883594  1
  Na  Na19  1  0.49872611  0.33317839  0.74974834  1
  Na  Na20  1  0.50106331  0.66723687  -0.00056811  1
  Na  Na21  1  0.50133953  0.66726399  0.25090412  1
  Na  Na22  1  0.49997597  0.66721058  0.49940367  1
  Na  Na23  1  0.49906352  0.66644983  0.74987531  1
  Na  Na24  1  0.25100928  -0.00031256  0.12629546  1
  Na  Na25  1  0.25098029  -0.00047448  0.37439414  1
  Na  Na26  1  0.24998046  -0.00112653  0.62422323  1
  Na  Na27  1  0.25021324  -0.00053152  0.87399160  1
  Na  Na28  1  0.25086379  0.33404246  0.12387435  1
  Na  Na29  1  0.25004894  0.33416147  0.37628452  1
  Na  Na30  1  0.24846172  0.33307172  0.62545194  1
  Na  Na31  1  0.24909776  0.33296425  0.87465449  1
  Na  Na32  1  0.24942983  0.66634656  0.12467741  1
  Na  Na33  1  0.25022329  0.66684998  0.37480555  1
  Na  Na34  1  0.25222613  0.66772563  0.62573434  1
  Na  Na35  1  0.25026829  0.66649983  0.87431047  1
  Na  Na36  1  0.75134573  0.00029592  0.12594804  1
  Na  Na37  1  0.75022124  -0.00028705  0.37402384  1
  Na  Na38  1  0.74980334  -0.00050450  0.62468535  1
  Na  Na39  1  0.75143492  0.00050420  0.87579388  1
  Na  Na40  1  0.74936426  0.33322322  0.12410201  1
  Na  Na41  1  0.74771925  0.33249126  0.37534827  1
  Na  Na42  1  0.74947292  0.33315379  0.62485418  1
  Na  Na43  1  0.75078664  0.33404104  0.87526240  1
  Na  Na44  1  0.74783006  0.66640566  0.12543029  1
  Na  Na45  1  0.74944759  0.66721627  0.37540077  1
  Na  Na46  1  0.74916951  0.66657250  0.62523314  1
  Na  Na47  1  0.74822133  0.66655059  0.87423603  1
  Na  Na48  1  -0.00141467  0.16740400  0.00010915  1
  Na  Na49  1  -0.00157119  0.16672028  0.25023655  1
  Na  Na50  1  -0.00145804  0.16737651  0.50084377  1
  Na  Na51  1  0.00012200  0.16654253  0.74856283  1
  Na  Na52  1  0.00298015  0.49922812  -0.00123999  1
  Na  Na53  1  -0.00020753  0.50091827  0.25106940  1
  Na  Na54  1  -0.00053120  0.50052886  0.49970618  1
  Na  Na55  1  0.00130913  0.49983658  0.75084707  1
  Na  Na56  1  0.00175807  0.83353290  -0.00068083  1
  Na  Na57  1  -0.00094392  0.83405933  0.25075175  1
  Na  Na58  1  0.00011744  0.83320625  0.50110935  1
  Na  Na59  1  0.00192352  0.83278709  0.74913226  1
  Na  Na60  1  0.49829555  0.16755267  0.00091266  1
  Na  Na61  1  0.50374942  0.16531869  0.24969379  1
  Na  Na62  1  0.50151501  0.16656614  0.49952221  1
  Na  Na63  1  0.49817658  0.16762595  0.75008314  1
  Na  Na64  1  0.49933608  0.49996400  0.00069094  1
  Na  Na65  1  0.49931471  0.50052324  0.25018587  1
  Na  Na66  1  0.50156785  0.49915819  0.49909952  1
  Na  Na67  1  0.49791566  0.50078556  0.75034789  1
  Na  Na68  1  0.50048334  0.83210907  -0.00069693  1
  Na  Na69  1  0.49863760  0.83372803  0.25109855  1
  Na  Na70  1  0.49976993  0.83262354  0.49960223  1
  Na  Na71  1  0.49998029  0.83255394  0.74923398  1
  Na  Na72  1  0.25035031  0.16708419  0.12460203  1
  Na  Na73  1  0.24940880  0.16754517  0.37514536  1
  Na  Na74  1  0.24967345  0.16756339  0.62515840  1
  Na  Na75  1  0.25135939  0.16652796  0.87471918  1
  Na  Na76  1  0.24937533  0.50017271  0.12395686  1
  Na  Na77  1  0.24945209  0.49978110  0.37591208  1
  Na  Na78  1  0.24943588  0.50048179  0.62610198  1
  Na  Na79  1  0.25029212  0.49975057  0.87398493  1
  Na  Na80  1  0.25154838  0.83282024  0.12627277  1
  Na  Na81  1  0.25152784  0.83314814  0.37461741  1
  Na  Na82  1  0.25081475  0.83310646  0.62430509  1
  Na  Na83  1  0.24795992  0.83462723  0.87444144  1
  Na  Na84  1  0.74904199  0.16713025  0.12464823  1
  Na  Na85  1  0.74857319  0.16662597  0.37471102  1
  Na  Na86  1  0.74947713  0.16709944  0.62476649  1
  Na  Na87  1  0.75278300  0.16592300  0.87603865  1
  Na  Na88  1  0.74883024  0.50039701  0.12550905  1
  Na  Na89  1  0.74991453  0.50045674  0.37542576  1
  Na  Na90  1  0.75072134  0.49986216  0.62515656  1
  Na  Na91  1  0.74856620  0.50075006  0.87403127  1
  Na  Na92  1  0.75074385  0.83235967  0.12525737  1
  Na  Na93  1  0.74893245  0.83323861  0.37486310  1
  Na  Na94  1  0.74828890  0.83299066  0.62465092  1
  Na  Na95  1  0.74774802  0.83343467  0.87563641  1
  Mn  Mn96  1  0.35871613  0.08413356  0.25281844  1
  Mn  Mn97  1  0.85774157  0.74984759  0.00166224  1
  Mn  Mn98  1  0.64231296  0.25046084  0.99692407  1
  Mn  Mn99  1  0.64132594  0.91723540  0.74792794  1
  Mn  Mn100  1  0.89313286  0.91659791  0.87699632  1
  Mn  Mn101  1  0.10784861  0.08345799  0.12261314  1
  Mn  Mn102  1  0.64219786  0.91636866  0.99821352  1
  Mn  Mn103  1  0.64195596  0.91703598  0.24724090  1
  Mn  Mn104  1  0.35757827  0.41685743  0.75215740  1
  Mn  Mn105  1  0.35758275  0.75034489  0.00223664  1
  Mn  Mn106  1  0.64143845  0.58280314  0.74736342  1
  Mn  Mn107  1  0.10675424  0.08272624  0.37334153  1
  Mn  Mn108  1  0.60764314  0.08297017  0.62268900  1
  Mn  Mn109  1  0.10734045  0.41707039  0.37279286  1
  Mn  Mn110  1  0.14268533  0.24926050  0.99720755  1
  Mn  Mn111  1  0.89270093  0.58374028  0.12606313  1
  Mn  Mn112  1  0.39226868  0.58326804  0.37774936  1
  Mn  Mn113  1  0.10821804  0.74886087  0.62202453  1
  Mn  Mn114  1  0.85703184  0.41670837  0.50245646  1
  Mn  Mn115  1  0.60761480  0.41697026  0.62307535  1
  Mn  Mn116  1  0.39336962  0.24938006  0.37691192  1
  Mn  Mn117  1  0.85833899  0.08360231  0.75233267  1
  Mn  Mn118  1  0.64204296  0.24998901  0.74881129  1
  Mn  Mn119  1  0.14172092  0.25043112  0.24838946  1
  Mn  Mn120  1  0.39189191  0.58427610  0.12709910  1
  Mn  Mn121  1  0.85726741  0.08367920  0.25241901  1
  Mn  Mn122  1  0.89199606  0.91594907  0.62712557  1
  Mn  Mn123  1  0.89212354  0.25104566  0.62719907  1
  Mn  Mn124  1  0.35830879  0.08350713  0.50214553  1
  Mn  Mn125  1  0.10861947  0.75009100  0.12323323  1
  Mn  Mn126  1  0.89284658  0.58332908  0.87792121  1
  Mn  Mn127  1  0.14296895  0.58367417  0.74718085  1
  Mn  Mn128  1  0.35757761  0.41709197  0.50252737  1
  Mn  Mn129  1  0.14274516  0.91682775  0.24833709  1
  Mn  Mn130  1  0.89237166  0.25044033  0.12735105  1
  Mn  Mn131  1  0.39239889  0.24946807  0.12808226  1
  Mn  Mn132  1  0.60739318  0.41718573  0.12235153  1
  Mn  Mn133  1  0.64215129  0.58292103  0.24803265  1
  Mn  Mn134  1  0.85826111  0.41736602  0.00204463  1
  Mn  Mn135  1  0.85784606  0.74967665  0.25245770  1
  Mn  Mn136  1  0.39159227  0.91675920  0.87781597  1
  Mn  Mn137  1  0.60740939  0.08396632  0.87322697  1
  Mn  Mn138  1  0.10830178  0.08351668  0.87318079  1
  Mn  Mn139  1  0.14199148  0.58308166  0.24829813  1
  Mn  Mn140  1  0.35776317  0.08318538  0.75179628  1
  Mn  Mn141  1  0.10827153  0.08381719  0.62158871  1
  Mn  Mn142  1  0.85716791  0.74991874  0.75252886  1
  Mn  Mn143  1  0.85798802  0.41650782  0.25180171  1
  Fe  Fe144  1  0.89213355  0.91613021  0.37776435  1
  Fe  Fe145  1  0.10836954  0.41657602  0.12327937  1
  Fe  Fe146  1  0.60686698  0.75066725  0.12352638  1
  Fe  Fe147  1  0.39225405  0.25008968  0.62596766  1
  Fe  Fe148  1  0.39346432  0.91687476  0.37699414  1
  Fe  Fe149  1  0.39179743  0.25087606  0.87657304  1
  Fe  Fe150  1  0.89357700  0.25031319  0.87604942  1
  Fe  Fe151  1  0.85786889  0.41667450  0.75214395  1
  Fe  Fe152  1  0.10787845  0.41639688  0.87276041  1
  Fe  Fe153  1  0.85792783  0.08294416  0.00223620  1
  Fe  Fe154  1  0.89227951  0.58401221  0.37773078  1
  Fe  Fe155  1  0.10697275  0.75025076  0.37434446  1
  Fe  Fe156  1  0.10699470  0.41724658  0.62351180  1
  Fe  Fe157  1  0.39278566  0.91641321  0.62583907  1
  Fe  Fe158  1  0.85609617  0.08269351  0.50094874  1
  Fe  Fe159  1  0.64156989  0.58304821  0.99798528  1
  Fe  Fe160  1  0.39301308  0.58269365  0.87720200  1
  Fe  Fe161  1  0.60769081  0.41672339  0.37279692  1
  Fe  Fe162  1  0.60620565  0.74975961  0.62287474  1
  Fe  Fe163  1  0.35812172  0.74904048  0.25221971  1
  Fe  Fe164  1  0.35755515  0.08315266  0.00208641  1
  Fe  Fe165  1  0.14346314  0.91695764  0.74778416  1
  Fe  Fe166  1  0.35771847  0.75029781  0.75148330  1
  Fe  Fe167  1  0.89143677  0.24982417  0.37764272  1
  Fe  Fe168  1  0.14243883  0.58411030  0.49873070  1
  Fe  Fe169  1  0.35735020  0.74964323  0.50142476  1
  Fe  Fe170  1  0.60685610  0.75007806  0.37358411  1
  Fe  Fe171  1  0.14291808  0.91676295  0.99894996  1
  Fe  Fe172  1  0.14344340  0.91622793  0.49776252  1
  Fe  Fe173  1  0.89237784  0.58303293  0.62646610  1
  Fe  Fe174  1  0.64199426  0.24977067  0.49813511  1
  Fe  Fe175  1  0.14258902  0.24973150  0.49803673  1
  Fe  Fe176  1  0.10845426  0.74990177  0.87277279  1
  Fe  Fe177  1  0.89300661  0.91621694  0.12612873  1
  Fe  Fe178  1  0.64248123  0.58355868  0.49863557  1
  Fe  Fe179  1  0.60712493  0.08231147  0.12236828  1
  Fe  Fe180  1  0.60816610  0.08280727  0.37338391  1
  Fe  Fe181  1  0.64215214  0.91640056  0.49810904  1
  Fe  Fe182  1  0.35724858  0.41698225  0.25150345  1
  Fe  Fe183  1  0.60639444  0.41659031  0.87364607  1
  Fe  Fe184  1  0.85627814  0.75037225  0.50162221  1
  Fe  Fe185  1  0.35668640  0.41657061  0.00123213  1
  Fe  Fe186  1  0.39258566  0.91641951  0.12623110  1
  Fe  Fe187  1  0.14265983  0.24924021  0.74826978  1
  Fe  Fe188  1  0.60655828  0.74946717  0.87303519  1
  Fe  Fe189  1  0.39255694  0.58326944  0.62565457  1
  Fe  Fe190  1  0.14322196  0.58373498  0.99780300  1
  Fe  Fe191  1  0.64299369  0.25016926  0.24827022  1
  P  P192  1  0.05360961  0.25079539  0.10995063  1
  P  P193  1  0.05236444  0.24948429  0.36157634  1
  P  P194  1  0.05512324  0.25111151  0.61048269  1
  P  P195  1  0.05337684  0.25012013  0.85905118  1
  P  P196  1  0.05464875  0.58255520  0.10935216  1
  P  P197  1  0.05314688  0.58501992  0.36197319  1
  P  P198  1  0.05270693  0.58252698  0.60956297  1
  P  P199  1  0.05571347  0.58368276  0.86094361  1
  P  P200  1  0.05312631  0.91684573  0.10965707  1
  P  P201  1  0.05333958  0.91551031  0.36187562  1
  P  P202  1  0.05574489  0.91633212  0.61008236  1
  P  P203  1  0.05608282  0.91611058  0.86010520  1
  P  P204  1  0.55496459  0.24927662  0.11119139  1
  P  P205  1  0.55600867  0.24989719  0.36035949  1
  P  P206  1  0.55250701  0.25013444  0.60959880  1
  P  P207  1  0.55133184  0.25121015  0.86052588  1
  P  P208  1  0.55359572  0.58450776  0.10963659  1
  P  P209  1  0.55483788  0.58346198  0.36159927  1
  P  P210  1  0.55228026  0.58398549  0.60932375  1
  P  P211  1  0.55314286  0.58255703  0.86116385  1
  P  P212  1  0.55191051  0.91619480  0.11009400  1
  P  P213  1  0.55412837  0.91624744  0.36140023  1
  P  P214  1  0.55249616  0.91561929  0.60941487  1
  P  P215  1  0.55271508  0.91617821  0.86011440  1
  P  P216  1  0.44678836  0.08233925  0.13914398  1
  P  P217  1  0.44875257  0.08273100  0.38991655  1
  P  P218  1  0.44657841  0.08325751  0.63948326  1
  P  P219  1  0.44553442  0.08446445  0.89082249  1
  P  P220  1  0.44457639  0.41711000  0.13973371  1
  P  P221  1  0.44691564  0.41637689  0.38874494  1
  P  P222  1  0.44638206  0.41669944  0.63945150  1
  P  P223  1  0.44647972  0.41673626  0.89068916  1
  P  P224  1  0.44709936  0.75054853  0.14056935  1
  P  P225  1  0.44581017  0.75044241  0.38956689  1
  P  P226  1  0.44538322  0.74973635  0.63864606  1
  P  P227  1  0.44616493  0.74899786  0.88851780  1
  P  P228  1  0.94554484  0.08231460  0.13915899  1
  P  P229  1  0.94503737  0.08296892  0.39106630  1
  P  P230  1  0.94529629  0.08306087  0.63834582  1
  P  P231  1  0.94654651  0.08415020  0.89024380  1
  P  P232  1  0.94875294  0.41733354  0.13993691  1
  P  P233  1  0.94590279  0.41671738  0.39027713  1
  P  P234  1  0.94683521  0.41788339  0.64047078  1
  P  P235  1  0.94736531  0.41594188  0.88856272  1
  P  P236  1  0.94710707  0.75070827  0.13984975  1
  P  P237  1  0.94648847  0.75035813  0.39112463  1
  P  P238  1  0.94519701  0.74910342  0.63885531  1
  P  P239  1  0.94867170  0.75004658  0.88971559  1
  P  P240  1  0.19695966  0.08352688  0.23521906  1
  P  P241  1  0.19710624  0.08319604  0.48457420  1
  P  P242  1  0.19657749  0.08343231  0.73467829  1
  P  P243  1  0.19857338  0.08223173  0.98513148  1
  P  P244  1  0.19729884  0.41675759  0.23442019  1
  P  P245  1  0.19484273  0.41729949  0.48690623  1
  P  P246  1  0.19460697  0.41577049  0.73555261  1
  P  P247  1  0.19607616  0.41720393  0.98499421  1
  P  P248  1  0.19719234  0.75001734  0.23679663  1
  P  P249  1  0.19750345  0.74976120  0.48449680  1
  P  P250  1  0.19713305  0.75060786  0.73556338  1
  P  P251  1  0.19640224  0.75047630  0.98456244  1
  P  P252  1  0.69449925  0.08398781  0.23523244  1
  P  P253  1  0.69658640  0.08269904  0.48454333  1
  P  P254  1  0.69691845  0.08378363  0.73505107  1
  P  P255  1  0.69699161  0.08286354  0.98616008  1
  P  P256  1  0.69565738  0.41596339  0.23585722  1
  P  P257  1  0.69541956  0.41715979  0.48488139  1
  P  P258  1  0.69670129  0.41633904  0.73607865  1
  P  P259  1  0.69587329  0.41775696  0.98392539  1
  P  P260  1  0.69462981  0.75016440  0.23558888  1
  P  P261  1  0.69503130  0.74977302  0.48596426  1
  P  P262  1  0.69384086  0.74982384  0.73500267  1
  P  P263  1  0.69431540  0.74911775  0.98547611  1
  P  P264  1  0.30500336  0.25026071  0.01356391  1
  P  P265  1  0.30323862  0.25141668  0.26545720  1
  P  P266  1  0.30274056  0.25036792  0.51537520  1
  P  P267  1  0.30380453  0.25029458  0.76419525  1
  P  P268  1  0.30338825  0.58270840  0.01326440  1
  P  P269  1  0.30348152  0.58286793  0.26507073  1
  P  P270  1  0.30241812  0.58412429  0.51558069  1
  P  P271  1  0.30592145  0.58417198  0.76419229  1
  P  P272  1  0.30265112  0.91714526  0.01576541  1
  P  P273  1  0.30633968  0.91584504  0.26474483  1
  P  P274  1  0.30451804  0.91576475  0.51370039  1
  P  P275  1  0.30406353  0.91572826  0.76319684  1
  P  P276  1  0.80510934  0.24983217  0.01374503  1
  P  P277  1  0.80265167  0.25019724  0.26563645  1
  P  P278  1  0.80258139  0.24910018  0.51378061  1
  P  P279  1  0.80420140  0.25111375  0.76582871  1
  P  P280  1  0.80134989  0.58356543  0.01493634  1
  P  P281  1  0.80416059  0.58343838  0.26582591  1
  P  P282  1  0.80356390  0.58453374  0.51457785  1
  P  P283  1  0.80460013  0.58263321  0.76398413  1
  P  P284  1  0.80419023  0.91678288  0.01574476  1
  P  P285  1  0.80497976  0.91626935  0.26464012  1
  P  P286  1  0.80270487  0.91619479  0.51354912  1
  P  P287  1  0.80281615  0.91616581  0.76544006  1
  O  O288  1  0.05622825  0.24983709  0.18677642  1
  O  O289  1  0.05791718  0.24957379  0.43822112  1
  O  O290  1  0.05919204  0.24958912  0.68720490  1
  O  O291  1  0.05701342  0.24952457  0.93583257  1
  O  O292  1  0.05678725  0.58343986  0.18625212  1
  O  O293  1  0.05818251  0.58439751  0.43858420  1
  O  O294  1  0.05685597  0.58366990  0.68624492  1
  O  O295  1  0.05992320  0.58380061  0.93770661  1
  O  O296  1  0.05687037  0.91703163  0.18643776  1
  O  O297  1  0.05887996  0.91611962  0.43850151  1
  O  O298  1  0.06042449  0.91644101  0.68687227  1
  O  O299  1  0.05999840  0.91703891  0.93690357  1
  O  O300  1  0.55910150  0.25004683  0.18794044  1
  O  O301  1  0.55940581  0.24983844  0.43725827  1
  O  O302  1  0.55621778  0.25017799  0.68631809  1
  O  O303  1  0.55535110  0.25054530  0.93721235  1
  O  O304  1  0.55656245  0.58323432  0.18644536  1
  O  O305  1  0.55866156  0.58343900  0.43833409  1
  O  O306  1  0.55546615  0.58328088  0.68609931  1
  O  O307  1  0.55737575  0.58280985  0.93781974  1
  O  O308  1  0.55531567  0.91647770  0.18682257  1
  O  O309  1  0.55866395  0.91631548  0.43809625  1
  O  O310  1  0.55572936  0.91646152  0.68612152  1
  O  O311  1  0.55597369  0.91663821  0.93686068  1
  O  O312  1  0.44155127  0.08318574  0.06250076  1
  O  O313  1  0.44506442  0.08351924  0.31321040  1
  O  O314  1  0.44429761  0.08320740  0.56267549  1
  O  O315  1  0.44257336  0.08352971  0.81397941  1
  O  O316  1  0.43998838  0.41716135  0.06301897  1
  O  O317  1  0.44181647  0.41672740  0.31210952  1
  O  O318  1  0.44398856  0.41660176  0.56267906  1
  O  O319  1  0.44316425  0.41651461  0.81385568  1
  O  O320  1  0.44345275  0.74957778  0.06379019  1
  O  O321  1  0.44144634  0.74932550  0.31286758  1
  O  O322  1  0.44102012  0.74971690  0.56189060  1
  O  O323  1  0.44166361  0.74990493  0.81183128  1
  O  O324  1  0.94172380  0.08303060  0.06236106  1
  O  O325  1  0.94268968  0.08324120  0.31420720  1
  O  O326  1  0.94004540  0.08277525  0.56168196  1
  O  O327  1  0.94412177  0.08315230  0.81336760  1
  O  O328  1  0.94505624  0.41731183  0.06317774  1
  O  O329  1  0.94330033  0.41652509  0.31349588  1
  O  O330  1  0.94276399  0.41712735  0.56374954  1
  O  O331  1  0.94248630  0.41674942  0.81194589  1
  O  O332  1  0.94408852  0.75010231  0.06309800  1
  O  O333  1  0.94341542  0.75033125  0.31437297  1
  O  O334  1  0.94032960  0.75018606  0.56217956  1
  O  O335  1  0.94424063  0.74986307  0.81302859  1
  O  O336  1  0.19477047  0.08304257  0.06181831  1
  O  O337  1  0.19306482  0.08331083  0.31196626  1
  O  O338  1  0.19449549  0.08309804  0.56136626  1
  O  O339  1  0.19402851  0.08364628  0.81145625  1
  O  O340  1  0.19194598  0.41660135  0.06172635  1
  O  O341  1  0.19310608  0.41672848  0.31121690  1
  O  O342  1  0.19113800  0.41754861  0.56365801  1
  O  O343  1  0.19090241  0.41640726  0.81237637  1
  O  O344  1  0.19404591  0.75022456  0.06144566  1
  O  O345  1  0.19175359  0.75023949  0.31335852  1
  O  O346  1  0.19422649  0.74973420  0.56126348  1
  O  O347  1  0.19252181  0.74985246  0.81220831  1
  O  O348  1  0.69157380  0.08263328  0.06283947  1
  O  O349  1  0.69059707  0.08248537  0.31205765  1
  O  O350  1  0.69344155  0.08262563  0.56131970  1
  O  O351  1  0.69361277  0.08380058  0.81184837  1
  O  O352  1  0.69270698  0.41694554  0.06076618  1
  O  O353  1  0.69179686  0.41689350  0.31261185  1
  O  O354  1  0.69297406  0.41716603  0.56175813  1
  O  O355  1  0.69110741  0.41654901  0.81264567  1
  O  O356  1  0.69042609  0.75015033  0.06228346  1
  O  O357  1  0.69027045  0.75048500  0.31236387  1
  O  O358  1  0.69038528  0.74974999  0.56268878  1
  O  O359  1  0.68929411  0.74959348  0.81182055  1
  O  O360  1  0.30636112  0.25026144  0.18865074  1
  O  O361  1  0.30739903  0.25046647  0.43871260  1
  O  O362  1  0.30873667  0.25059997  0.68752440  1
  O  O363  1  0.30844762  0.25050963  0.93673329  1
  O  O364  1  0.30603058  0.58345169  0.18826593  1
  O  O365  1  0.30622007  0.58319156  0.43886542  1
  O  O366  1  0.30995564  0.58338460  0.68741679  1
  O  O367  1  0.30824382  0.58309767  0.93659034  1
  O  O368  1  0.31027868  0.91645581  0.18794074  1
  O  O369  1  0.30953621  0.91680279  0.43701474  1
  O  O370  1  0.30898667  0.91606807  0.68652897  1
  O  O371  1  0.30589203  0.91649689  0.93895513  1
  O  O372  1  0.80663867  0.25033961  0.18886382  1
  O  O373  1  0.80731365  0.24994911  0.43712063  1
  O  O374  1  0.80674796  0.25072288  0.68892239  1
  O  O375  1  0.80974088  0.25053331  0.93706927  1
  O  O376  1  0.80742895  0.58365422  0.18903138  1
  O  O377  1  0.80839967  0.58403737  0.43786652  1
  O  O378  1  0.80885093  0.58307881  0.68721728  1
  O  O379  1  0.80584190  0.58371489  0.93820822  1
  O  O380  1  0.80947288  0.91589753  0.18794388  1
  O  O381  1  0.80729334  0.91586650  0.43684699  1
  O  O382  1  0.80596570  0.91557955  0.68861248  1
  O  O383  1  0.80725536  0.91616646  0.93893754  1
  O  O384  1  0.23510422  0.25027848  0.03827461  1
  O  O385  1  0.23365008  0.25105652  0.29082837  1
  O  O386  1  0.23240432  0.25031952  0.53896761  1
  O  O387  1  0.23342111  0.24989756  0.78778005  1
  O  O388  1  0.23308764  0.58346742  0.03713259  1
  O  O389  1  0.23395878  0.58294830  0.29078392  1
  O  O390  1  0.23238001  0.58419566  0.54025047  1
  O  O391  1  0.23575424  0.58307336  0.78789992  1
  O  O392  1  0.23275228  0.91622626  0.04081019  1
  O  O393  1  0.23617133  0.91651311  0.28868390  1
  O  O394  1  0.23401128  0.91589068  0.53703033  1
  O  O395  1  0.23371863  0.91664854  0.78687972  1
  O  O396  1  0.73497137  0.25006987  0.03767571  1
  O  O397  1  0.73248880  0.24957904  0.28962805  1
  O  O398  1  0.73216028  0.24992631  0.53752778  1
  O  O399  1  0.73462799  0.25003406  0.79138180  1
  O  O400  1  0.73130435  0.58321921  0.03924441  1
  O  O401  1  0.73428409  0.58371524  0.29040474  1
  O  O402  1  0.73307335  0.58359320  0.53809338  1
  O  O403  1  0.73441874  0.58346914  0.78774490  1
  O  O404  1  0.73442712  0.91641783  0.04086761  1
  O  O405  1  0.73468781  0.91653627  0.28809049  1
  O  O406  1  0.73231647  0.91608207  0.53746219  1
  O  O407  1  0.73321071  0.91672890  0.79067019  1
  O  O408  1  0.26685162  0.08344578  0.21076815  1
  O  O409  1  0.26674311  0.08344639  0.45905707  1
  O  O410  1  0.26611525  0.08322489  0.70899922  1
  O  O411  1  0.26847595  0.08283028  0.96015898  1
  O  O412  1  0.26731750  0.41709532  0.21003434  1
  O  O413  1  0.26480266  0.41702438  0.46224645  1
  O  O414  1  0.26474704  0.41692274  0.71154550  1
  O  O415  1  0.26637461  0.41638401  0.96086107  1
  O  O416  1  0.26758952  0.74978627  0.21315054  1
  O  O417  1  0.26766285  0.74986578  0.46000808  1
  O  O418  1  0.26740950  0.75028095  0.71165649  1
  O  O419  1  0.26604139  0.75056600  0.95899162  1
  O  O420  1  0.76463684  0.08367721  0.21137523  1
  O  O421  1  0.76651713  0.08276823  0.45943243  1
  O  O422  1  0.76652385  0.08373203  0.70980922  1
  O  O423  1  0.76746168  0.08293493  0.96299128  1
  O  O424  1  0.76545344  0.41661306  0.21092321  1
  O  O425  1  0.76514556  0.41676717  0.45966561  1
  O  O426  1  0.76698769  0.41642363  0.71232772  1
  O  O427  1  0.76570222  0.41750849  0.95920503  1
  O  O428  1  0.76478134  0.74955747  0.21191013  1
  O  O429  1  0.76543352  0.75012131  0.46211515  1
  O  O430  1  0.76401487  0.74952657  0.71140954  1
  O  O431  1  0.76431858  0.74999481  0.96094604  1
  O  O432  1  0.01533912  0.08283508  0.16410140  1
  O  O433  1  0.01463816  0.08286979  0.41666983  1
  O  O434  1  0.01555182  0.08326276  0.66171342  1
  O  O435  1  0.01622209  0.08357645  0.91562398  1
  O  O436  1  0.01857551  0.41707185  0.16511276  1
  O  O437  1  0.01557047  0.41717790  0.41561532  1
  O  O438  1  0.01703785  0.41716987  0.66451910  1
  O  O439  1  0.01784658  0.41643782  0.91200812  1
  O  O440  1  0.01671826  0.75033905  0.16536048  1
  O  O441  1  0.01648739  0.75017954  0.41611751  1
  O  O442  1  0.01545668  0.74925883  0.66244714  1
  O  O443  1  0.01884902  0.75028090  0.91369266  1
  O  O444  1  0.51715664  0.08243786  0.16271077  1
  O  O445  1  0.51881255  0.08289901  0.41442159  1
  O  O446  1  0.51597295  0.08336318  0.66561507  1
  O  O447  1  0.51525334  0.08381387  0.91596969  1
  O  O448  1  0.51482613  0.41728975  0.16320677  1
  O  O449  1  0.51733364  0.41622555  0.41213922  1
  O  O450  1  0.51583293  0.41701119  0.66542634  1
  O  O451  1  0.51639757  0.41676615  0.91567130  1
  O  O452  1  0.51710800  0.75031026  0.16527539  1
  O  O453  1  0.51622157  0.74992559  0.41313627  1
  O  O454  1  0.51578634  0.74972240  0.66249160  1
  O  O455  1  0.51646993  0.74913293  0.91237944  1
  O  O456  1  0.48483427  0.24992053  0.08734611  1
  O  O457  1  0.48610277  0.24970964  0.33556877  1
  O  O458  1  0.48239618  0.25012136  0.58498039  1
  O  O459  1  0.48126685  0.25092956  0.83598863  1
  O  O460  1  0.48381165  0.58392892  0.08470357  1
  O  O461  1  0.48492146  0.58381036  0.33700082  1
  O  O462  1  0.48225780  0.58343053  0.58447644  1
  O  O463  1  0.48292035  0.58283396  0.83692040  1
  O  O464  1  0.48201667  0.91592731  0.08491008  1
  O  O465  1  0.48383009  0.91634508  0.33749628  1
  O  O466  1  0.48237983  0.91591686  0.58483238  1
  O  O467  1  0.48298432  0.91620934  0.83502532  1
  O  O468  1  0.98407700  0.25083472  0.08442027  1
  O  O469  1  0.98191082  0.24957848  0.33825392  1
  O  O470  1  0.98491343  0.25096642  0.58659150  1
  O  O471  1  0.98337861  0.24986679  0.83437504  1
  O  O472  1  0.98522158  0.58353543  0.08326112  1
  O  O473  1  0.98276414  0.58436952  0.33832895  1
  O  O474  1  0.98251025  0.58304426  0.58549023  1
  O  O475  1  0.98569196  0.58325056  0.83672605  1
  O  O476  1  0.98311892  0.91639517  0.08509178  1
  O  O477  1  0.98285084  0.91609345  0.33871522  1
  O  O478  1  0.98539947  0.91616502  0.58692606  1
  O  O479  1  0.98605683  0.91669096  0.83565458  1
  O  O480  1  0.08799708  0.31596405  0.07813472  1
  O  O481  1  0.08566583  0.31461637  0.32821546  1
  O  O482  1  0.08842792  0.31658822  0.57807597  1
  O  O483  1  0.08753805  0.31510837  0.82664922  1
  O  O484  1  0.08991055  0.64724336  0.07725135  1
  O  O485  1  0.08615327  0.65031087  0.32876563  1
  O  O486  1  0.08682496  0.64726048  0.57618758  1
  O  O487  1  0.08900468  0.64889964  0.82766218  1
  O  O488  1  0.08691209  0.98180157  0.07652301  1
  O  O489  1  0.08656562  0.98039792  0.32798385  1
  O  O490  1  0.08917693  0.98119714  0.57652163  1
  O  O491  1  0.09009332  0.98099202  0.82690881  1
  O  O492  1  0.58850687  0.31425057  0.07786204  1
  O  O493  1  0.58972081  0.31512264  0.32762704  1
  O  O494  1  0.58660616  0.31503331  0.57682944  1
  O  O495  1  0.58498926  0.31641757  0.82789342  1
  O  O496  1  0.58731387  0.64997472  0.07771702  1
  O  O497  1  0.58852276  0.64865155  0.32888930  1
  O  O498  1  0.58615453  0.64913961  0.57684844  1
  O  O499  1  0.58673677  0.64741504  0.82774977  1
  O  O500  1  0.58590783  0.98112560  0.07725298  1
  O  O501  1  0.58748437  0.98123311  0.32802568  1
  O  O502  1  0.58680478  0.98044018  0.57657216  1
  O  O503  1  0.58651195  0.98149642  0.82763876  1
  O  O504  1  0.41360682  0.01714713  0.17207151  1
  O  O505  1  0.41485533  0.01765636  0.42234600  1
  O  O506  1  0.41235722  0.01792164  0.67138420  1
  O  O507  1  0.41094129  0.01957634  0.92342075  1
  O  O508  1  0.41128138  0.35207913  0.17318635  1
  O  O509  1  0.41363957  0.35139841  0.42215441  1
  O  O510  1  0.41216125  0.35154884  0.67169573  1
  O  O511  1  0.41221172  0.35189317  0.92334238  1
  O  O512  1  0.41308231  0.68561873  0.17370916  1
  O  O513  1  0.41203718  0.68580613  0.42334080  1
  O  O514  1  0.41206193  0.68464540  0.67188763  1
  O  O515  1  0.41293943  0.68388952  0.92172460  1
  O  O516  1  0.91195169  0.01703094  0.17168092  1
  O  O517  1  0.91064153  0.01771642  0.42306259  1
  O  O518  1  0.91229078  0.01802154  0.67198776  1
  O  O519  1  0.91183627  0.01939219  0.92281893  1
  O  O520  1  0.91444185  0.35238188  0.17253381  1
  O  O521  1  0.91202099  0.35153354  0.42285418  1
  O  O522  1  0.91269509  0.35301561  0.67345124  1
  O  O523  1  0.91450239  0.35063772  0.92171801  1
  O  O524  1  0.91282551  0.68564788  0.17228977  1
  O  O525  1  0.91201635  0.68545876  0.42364095  1
  O  O526  1  0.91201195  0.68371459  0.67162020  1
  O  O527  1  0.91507110  0.68505492  0.92294216  1
  O  O528  1  0.16310505  0.01838401  0.20260742  1
  O  O529  1  0.16317090  0.01788766  0.45231647  1
  O  O530  1  0.16228193  0.01841507  0.70245106  1
  O  O531  1  0.16490307  0.01693969  0.95282778  1
  O  O532  1  0.16347144  0.35175106  0.20153241  1
  O  O533  1  0.16111904  0.35216148  0.45397983  1
  O  O534  1  0.16145751  0.35044398  0.70288387  1
  O  O535  1  0.16209927  0.35236597  0.95167860  1
  O  O536  1  0.16388646  0.68500938  0.20340812  1
  O  O537  1  0.16346893  0.68463096  0.45202704  1
  O  O538  1  0.16386213  0.68549686  0.70201216  1
  O  O539  1  0.16216248  0.68546981  0.95204845  1
  O  O540  1  0.66077349  0.01911215  0.20164458  1
  O  O541  1  0.66259664  0.01763491  0.45181119  1
  O  O542  1  0.66275648  0.01873577  0.70254852  1
  O  O543  1  0.66383972  0.01784736  0.95269093  1
  O  O544  1  0.66225847  0.35061433  0.20324686  1
  O  O545  1  0.66091020  0.35219781  0.45272357  1
  O  O546  1  0.66338185  0.35124450  0.70279468  1
  O  O547  1  0.66153944  0.35285295  0.95110521  1
  O  O548  1  0.66060583  0.68540722  0.20259300  1
  O  O549  1  0.66186948  0.68454866  0.45268786  1
  O  O550  1  0.66007253  0.68494643  0.70166146  1
  O  O551  1  0.66097191  0.68369732  0.95268031  1
  O  O552  1  0.33864696  0.31537366  0.04635547  1
  O  O553  1  0.33725870  0.31672274  0.29736832  1
  O  O554  1  0.33636303  0.31527002  0.54869211  1
  O  O555  1  0.33691940  0.31540946  0.79786723  1
  O  O556  1  0.33682956  0.64769262  0.04676991  1
  O  O557  1  0.33792515  0.64782403  0.29746229  1
  O  O558  1  0.33666181  0.64924969  0.54771098  1
  O  O559  1  0.33893730  0.64951009  0.79714011  1
  O  O560  1  0.33662315  0.98230179  0.04811632  1
  O  O561  1  0.34035554  0.98064182  0.29810781  1
  O  O562  1  0.33792143  0.98055963  0.54756045  1
  O  O563  1  0.33754036  0.98064863  0.79663596  1
  O  O564  1  0.83830203  0.31507396  0.04716839  1
  O  O565  1  0.83616513  0.31527398  0.29865306  1
  O  O566  1  0.83617192  0.31398377  0.54738083  1
  O  O567  1  0.83818916  0.31647115  0.79792266  1
  O  O568  1  0.83494259  0.64872900  0.04777651  1
  O  O569  1  0.83829056  0.64834026  0.29871776  1
  O  O570  1  0.83649368  0.64979740  0.54781368  1
  O  O571  1  0.83828450  0.64748466  0.79743497  1
  O  O572  1  0.83837110  0.98187887  0.04804062  1
  O  O573  1  0.83852561  0.98128467  0.29780587  1
  O  O574  1  0.83595903  0.98141991  0.54658542  1
  O  O575  1  0.83739817  0.98122260  0.79727149  1
  O  O576  1  0.41376887  0.14738466  0.17305986  1
  O  O577  1  0.41490197  0.14771075  0.42279634  1
  O  O578  1  0.41210454  0.14842875  0.67130255  1
  O  O579  1  0.41160681  0.14974468  0.92283354  1
  O  O580  1  0.41104523  0.48210544  0.17297699  1
  O  O581  1  0.41372267  0.48136692  0.42245549  1
  O  O582  1  0.41195543  0.48182300  0.67143673  1
  O  O583  1  0.41231692  0.48190173  0.92308252  1
  O  O584  1  0.41308590  0.81562990  0.17279345  1
  O  O585  1  0.41269720  0.81571770  0.42254161  1
  O  O586  1  0.41206604  0.81490347  0.67195270  1
  O  O587  1  0.41289482  0.81393794  0.92217505  1
  O  O588  1  0.91154518  0.14730738  0.17216898  1
  O  O589  1  0.91052152  0.14792957  0.42333699  1
  O  O590  1  0.91211879  0.14837434  0.67135862  1
  O  O591  1  0.91254673  0.14953584  0.92205134  1
  O  O592  1  0.91469638  0.48245178  0.17228977  1
  O  O593  1  0.91161730  0.48188951  0.42238457  1
  O  O594  1  0.91332510  0.48309902  0.67315958  1
  O  O595  1  0.91406821  0.48079121  0.92250427  1
  O  O596  1  0.91306191  0.81586309  0.17214414  1
  O  O597  1  0.91233775  0.81537682  0.42385693  1
  O  O598  1  0.91193878  0.81406544  0.67254517  1
  O  O599  1  0.91490259  0.81507477  0.92247243  1
  O  O600  1  0.08772973  0.18575375  0.07722332  1
  O  O601  1  0.08544136  0.18445357  0.32799547  1
  O  O602  1  0.08881244  0.18645750  0.57654473  1
  O  O603  1  0.08748664  0.18511681  0.82626702  1
  O  O604  1  0.08873885  0.51713714  0.07758855  1
  O  O605  1  0.08664621  0.52010629  0.32835628  1
  O  O606  1  0.08633262  0.51732222  0.57709400  1
  O  O607  1  0.08945408  0.51861101  0.82812493  1
  O  O608  1  0.08752218  0.85197451  0.07713802  1
  O  O609  1  0.08628473  0.85020719  0.32856085  1
  O  O610  1  0.08921668  0.85126589  0.57685718  1
  O  O611  1  0.08961729  0.85080857  0.82733910  1
  O  O612  1  0.58809396  0.18397277  0.07819496  1
  O  O613  1  0.58994684  0.18477460  0.32786478  1
  O  O614  1  0.58664100  0.18516202  0.57686924  1
  O  O615  1  0.58516977  0.18617963  0.82761430  1
  O  O616  1  0.58811460  0.51986972  0.07662260  1
  O  O617  1  0.58822214  0.51825175  0.32848380  1
  O  O618  1  0.58689984  0.51927949  0.57676995  1
  O  O619  1  0.58623690  0.51717313  0.82797079  1
  O  O620  1  0.58592737  0.85099619  0.07787479  1
  O  O621  1  0.58721039  0.85101977  0.32817885  1
  O  O622  1  0.58632320  0.85050790  0.57682515  1
  O  O623  1  0.58669928  0.85106274  0.82778698  1
  O  O624  1  0.33862761  0.18502224  0.04638236  1
  O  O625  1  0.33760252  0.18640262  0.29804941  1
  O  O626  1  0.33649051  0.18531636  0.54830429  1
  O  O627  1  0.33753865  0.18547153  0.79740747  1
  O  O628  1  0.33634382  0.51751704  0.04646341  1
  O  O629  1  0.33758649  0.51759949  0.29724618  1
  O  O630  1  0.33646401  0.51926986  0.54865505  1
  O  O631  1  0.33988174  0.51936896  0.79759472  1
  O  O632  1  0.33729622  0.85233113  0.04832641  1
  O  O633  1  0.33967943  0.85057816  0.29758915  1
  O  O634  1  0.33765557  0.85048926  0.54677339  1
  O  O635  1  0.33677172  0.85052766  0.79684187  1
  O  O636  1  0.83840925  0.18460647  0.04678627  1
  O  O637  1  0.83670006  0.18529893  0.29846961  1
  O  O638  1  0.83551191  0.18380460  0.54675763  1
  O  O639  1  0.83931210  0.18646502  0.79800065  1
  O  O640  1  0.83541246  0.51858264  0.04765024  1
  O  O641  1  0.83811959  0.51836505  0.29836178  1
  O  O642  1  0.83738235  0.51969002  0.54803868  1
  O  O643  1  0.83770881  0.51730531  0.79705897  1
  O  O644  1  0.83848681  0.85177544  0.04831261  1
  O  O645  1  0.83828093  0.85136037  0.29835582  1
  O  O646  1  0.83604063  0.85120391  0.54708341  1
  O  O647  1  0.83662259  0.85111010  0.79826061  1
  O  O648  1  0.16316465  0.14864926  0.20261005  1
  O  O649  1  0.16267294  0.14837010  0.45268553  1
  O  O650  1  0.16245937  0.14866244  0.70245960  1
  O  O651  1  0.16444076  0.14710398  0.95210926  1
  O  O652  1  0.16317965  0.48171352  0.20176489  1
  O  O653  1  0.16154930  0.48265369  0.45389180  1
  O  O654  1  0.16046557  0.48049641  0.70232173  1
  O  O655  1  0.16293030  0.48245380  0.95195082  1
  O  O656  1  0.16415422  0.81508324  0.20314756  1
  O  O657  1  0.16348261  0.81470324  0.45163716  1
  O  O658  1  0.16374621  0.81553311  0.70238295  1
  O  O659  1  0.16208704  0.81568388  0.95264044  1
  O  O660  1  0.66114421  0.14928801  0.20273824  1
  O  O661  1  0.66245656  0.14780820  0.45222353  1
  O  O662  1  0.66277880  0.14886261  0.70269448  1
  O  O663  1  0.66385278  0.14793558  0.95258282  1
  O  O664  1  0.66156604  0.48080226  0.20280923  1
  O  O665  1  0.66145706  0.48243072  0.45261697  1
  O  O666  1  0.66336648  0.48133811  0.70243860  1
  O  O667  1  0.66164087  0.48284201  0.95171465  1
  O  O668  1  0.66139190  0.81523978  0.20204717  1
  O  O669  1  0.66141394  0.81466366  0.45248833  1
  O  O670  1  0.66035955  0.81487651  0.70183482  1
  O  O671  1  0.65999303  0.81378972  0.95224408  1
