# generated using pymatgen
data_Na2MnFe(PO4)2
_symmetry_space_group_name_H-M   'P 1'
_cell_length_a   21.08822682
_cell_length_b   18.94160140
_cell_length_c   20.04706642
_cell_angle_alpha   89.99952841
_cell_angle_beta   89.99595186
_cell_angle_gamma   90.00095529
_symmetry_Int_Tables_number   1
_chemical_formula_structural   Na2MnFe(PO4)2
_chemical_formula_sum   'Na96 Mn48 Fe48 P96 O384'
_cell_volume   8007.69614727
_cell_formula_units_Z   48
loop_
 _symmetry_equiv_pos_site_id
 _symmetry_equiv_pos_as_xyz
  1  'x, y, z'
loop_
 _atom_site_type_symbol
 _atom_site_label
 _atom_site_symmetry_multiplicity
 _atom_site_fract_x
 _atom_site_fract_y
 _atom_site_fract_z
 _atom_site_occupancy
  Na  Na0  1  0.00093204  -0.00025407  0.00078484  1
  Na  Na1  1  0.00194780  0.00037332  0.24896597  1
  Na  Na2  1  0.00090060  -0.00073912  0.50038475  1
  Na  Na3  1  0.00235465  0.00027189  0.75073048  1
  Na  Na4  1  -0.00054966  0.33424891  0.00011619  1
  Na  Na5  1  -0.00042988  0.33338383  0.24999924  1
  Na  Na6  1  0.00257335  0.33462415  0.49922921  1
  Na  Na7  1  0.00026397  0.33400905  0.75006916  1
  Na  Na8  1  -0.00181841  0.66637768  -0.00034419  1
  Na  Na9  1  0.00034184  0.66686907  0.25040916  1
  Na  Na10  1  -0.00039400  0.66637413  0.49968688  1
  Na  Na11  1  -0.00187717  0.66651923  0.74975750  1
  Na  Na12  1  0.49983388  -0.00057772  -0.00093488  1
  Na  Na13  1  0.50173766  0.00128201  0.25024584  1
  Na  Na14  1  0.49934335  -0.00038096  0.50157655  1
  Na  Na15  1  0.50044711  -0.00021104  0.74899535  1
  Na  Na16  1  0.50076223  0.33331890  0.00053897  1
  Na  Na17  1  0.49769931  0.33235298  0.24997233  1
  Na  Na18  1  0.49824551  0.33351916  0.49952402  1
  Na  Na19  1  0.50080937  0.33408752  0.74956722  1
  Na  Na20  1  0.49922931  0.66690168  -0.00127709  1
  Na  Na21  1  0.49955763  0.66659176  0.25011407  1
  Na  Na22  1  0.50150126  0.66679505  0.50121874  1
  Na  Na23  1  0.50110325  0.66705305  0.75058689  1
  Na  Na24  1  0.24690861  -0.00171769  0.12324149  1
  Na  Na25  1  0.25015279  0.00074977  0.37555384  1
  Na  Na26  1  0.24935126  0.00040452  0.62607113  1
  Na  Na27  1  0.24791918  -0.00082416  0.87533146  1
  Na  Na28  1  0.25288383  0.33406012  0.12482578  1
  Na  Na29  1  0.25133073  0.33390804  0.37501796  1
  Na  Na30  1  0.24825184  0.33369445  0.62488511  1
  Na  Na31  1  0.24952552  0.33373484  0.87497741  1
  Na  Na32  1  0.25183290  0.66697864  0.12518161  1
  Na  Na33  1  0.25093246  0.66638733  0.37544787  1
  Na  Na34  1  0.25003800  0.66648340  0.62536408  1
  Na  Na35  1  0.25087103  0.66727289  0.87364629  1
  Na  Na36  1  0.74944070  0.00021618  0.12484148  1
  Na  Na37  1  0.74857809  0.00002762  0.37422093  1
  Na  Na38  1  0.74893741  -0.00135093  0.62470699  1
  Na  Na39  1  0.75172134  0.00035356  0.87600812  1
  Na  Na40  1  0.74893054  0.33290026  0.12480951  1
  Na  Na41  1  0.74912768  0.33393968  0.37617146  1
  Na  Na42  1  0.75001873  0.33413471  0.62534735  1
  Na  Na43  1  0.75051023  0.33392775  0.87422529  1
  Na  Na44  1  0.74841746  0.66600775  0.12450055  1
  Na  Na45  1  0.74955049  0.66711002  0.37496068  1
  Na  Na46  1  0.74999135  0.66682895  0.62625153  1
  Na  Na47  1  0.75059683  0.66738417  0.87434570  1
  Na  Na48  1  0.00093998  0.16587071  0.00021557  1
  Na  Na49  1  0.00208884  0.16615332  0.25029660  1
  Na  Na50  1  0.00235004  0.16652342  0.49932483  1
  Na  Na51  1  0.00194926  0.16613489  0.75019677  1
  Na  Na52  1  -0.00141967  0.49958421  0.00016378  1
  Na  Na53  1  -0.00086639  0.49992093  0.25002418  1
  Na  Na54  1  0.00128425  0.49946067  0.49904526  1
  Na  Na55  1  -0.00096819  0.50022471  0.75034330  1
  Na  Na56  1  -0.00016715  0.83298767  0.00017384  1
  Na  Na57  1  0.00055968  0.83292709  0.24904295  1
  Na  Na58  1  -0.00018827  0.83296787  0.50097490  1
  Na  Na59  1  0.00014972  0.83259179  0.74994665  1
  Na  Na60  1  0.49946573  0.16743184  -0.00013599  1
  Na  Na61  1  0.50055605  0.16665705  0.24967003  1
  Na  Na62  1  0.49981990  0.16670425  0.50062762  1
  Na  Na63  1  0.49897477  0.16722762  0.75012672  1
  Na  Na64  1  0.50034495  0.50006763  -0.00038680  1
  Na  Na65  1  0.49682241  0.50123061  0.25133386  1
  Na  Na66  1  0.49919674  0.50063752  0.50032403  1
  Na  Na67  1  0.50265756  0.49971239  0.74909861  1
  Na  Na68  1  0.50064288  0.83236580  -0.00094162  1
  Na  Na69  1  0.50151453  0.83229323  0.24923742  1
  Na  Na70  1  0.50076316  0.83271007  0.50155233  1
  Na  Na71  1  0.50061603  0.83256026  0.74986328  1
  Na  Na72  1  0.25058382  0.16716691  0.12394130  1
  Na  Na73  1  0.25152426  0.16667464  0.37441342  1
  Na  Na74  1  0.24870576  0.16752035  0.62579633  1
  Na  Na75  1  0.24994337  0.16631273  0.87583102  1
  Na  Na76  1  0.25289676  0.49962169  0.12536394  1
  Na  Na77  1  0.25168172  0.49987288  0.37541173  1
  Na  Na78  1  0.24980539  0.49989483  0.62530693  1
  Na  Na79  1  0.24870162  0.50123961  0.87369655  1
  Na  Na80  1  0.24895983  0.83339150  0.12379320  1
  Na  Na81  1  0.24844161  0.83355630  0.37626239  1
  Na  Na82  1  0.24800125  0.83344840  0.62519389  1
  Na  Na83  1  0.24899867  0.83305114  0.87450569  1
  Na  Na84  1  0.74745644  0.16730747  0.12557119  1
  Na  Na85  1  0.74780711  0.16699248  0.37449492  1
  Na  Na86  1  0.75006744  0.16622019  0.62490297  1
  Na  Na87  1  0.75041610  0.16652699  0.87485190  1
  Na  Na88  1  0.75205855  0.49850170  0.12370822  1
  Na  Na89  1  0.74924093  0.50032699  0.37606713  1
  Na  Na90  1  0.74976901  0.50036361  0.62556138  1
  Na  Na91  1  0.75011239  0.50036009  0.87400510  1
  Na  Na92  1  0.74951778  0.83266516  0.12428608  1
  Na  Na93  1  0.74892595  0.83262830  0.37505937  1
  Na  Na94  1  0.75039875  0.83203307  0.62551857  1
  Na  Na95  1  0.75076924  0.83276950  0.87596682  1
  Mn  Mn96  1  0.60736359  0.41715113  0.12317297  1
  Mn  Mn97  1  0.64235183  0.24976039  0.74760166  1
  Mn  Mn98  1  0.39209417  0.91669619  0.37724911  1
  Mn  Mn99  1  0.14359638  0.24994732  0.24722385  1
  Mn  Mn100  1  0.14117278  0.58408268  0.74729704  1
  Mn  Mn101  1  0.89214288  0.91675834  0.37671811  1
  Mn  Mn102  1  0.85795052  0.08289584  0.50209863  1
  Mn  Mn103  1  0.35689212  0.08268368  0.75284109  1
  Mn  Mn104  1  0.39154130  0.25096171  0.62752720  1
  Mn  Mn105  1  0.39307706  0.58313857  0.87656684  1
  Mn  Mn106  1  0.60784885  0.08354769  0.62289645  1
  Mn  Mn107  1  0.64161339  0.25023374  0.49764998  1
  Mn  Mn108  1  0.89289559  0.91692958  0.12731745  1
  Mn  Mn109  1  0.39208432  0.91552698  0.62806276  1
  Mn  Mn110  1  0.35741661  0.08248549  0.00192494  1
  Mn  Mn111  1  0.85791105  0.41724180  0.50247832  1
  Mn  Mn112  1  0.89205183  0.58324784  0.37746281  1
  Mn  Mn113  1  0.14175397  0.24990026  0.74824622  1
  Mn  Mn114  1  0.35783334  0.41711268  0.75241759  1
  Mn  Mn115  1  0.89146900  0.24955664  0.12741230  1
  Mn  Mn116  1  0.89342935  0.25025427  0.62648138  1
  Mn  Mn117  1  0.10920228  0.08343254  0.37230648  1
  Mn  Mn118  1  0.64116279  0.58230715  0.24782810  1
  Mn  Mn119  1  0.10827789  0.74960070  0.12215346  1
  Mn  Mn120  1  0.14263457  0.25043071  0.99774144  1
  Mn  Mn121  1  0.85685413  0.74943180  0.25214694  1
  Mn  Mn122  1  0.10777616  0.74955815  0.37294219  1
  Mn  Mn123  1  0.14225026  0.91682331  0.49769120  1
  Mn  Mn124  1  0.35798420  0.74992414  0.50296532  1
  Mn  Mn125  1  0.89231775  0.24963656  0.37710313  1
  Mn  Mn126  1  0.14238043  0.58383656  0.99775783  1
  Mn  Mn127  1  0.60802029  0.08283955  0.87247252  1
  Mn  Mn128  1  0.89147404  0.58313866  0.12731767  1
  Mn  Mn129  1  0.10817054  0.41656277  0.12295353  1
  Mn  Mn130  1  0.35850055  0.75059827  0.25255928  1
  Mn  Mn131  1  0.85710675  0.08403036  0.25239005  1
  Mn  Mn132  1  0.64190452  0.91600968  0.49751467  1
  Mn  Mn133  1  0.39196766  0.91692294  0.12724579  1
  Mn  Mn134  1  0.35869998  0.41771962  0.00127022  1
  Mn  Mn135  1  0.14353880  0.58356914  0.24763062  1
  Mn  Mn136  1  0.89260671  0.91678068  0.62775617  1
  Mn  Mn137  1  0.89226961  0.24954222  0.87779026  1
  Mn  Mn138  1  0.64233563  0.58253681  0.99752685  1
  Mn  Mn139  1  0.64119052  0.91703297  0.24736154  1
  Mn  Mn140  1  0.64252580  0.91709319  0.99716918  1
  Mn  Mn141  1  0.60636002  0.41644601  0.37253577  1
  Mn  Mn142  1  0.85878936  0.08287884  0.75202275  1
  Mn  Mn143  1  0.35809857  0.08290463  0.25157946  1
  Fe  Fe144  1  0.60727521  0.08310675  0.12257518  1
  Fe  Fe145  1  0.60788332  0.74945784  0.62388031  1
  Fe  Fe146  1  0.64277141  0.58348162  0.49884010  1
  Fe  Fe147  1  0.60655071  0.08317241  0.37396237  1
  Fe  Fe148  1  0.10658484  0.74944023  0.87302030  1
  Fe  Fe149  1  0.14249034  0.91645110  0.24836164  1
  Fe  Fe150  1  0.89327369  0.91633281  0.87661233  1
  Fe  Fe151  1  0.39243019  0.91667511  0.87593696  1
  Fe  Fe152  1  0.14242499  0.91553053  0.99710411  1
  Fe  Fe153  1  0.60745962  0.74995871  0.87292803  1
  Fe  Fe154  1  0.60751679  0.41731504  0.62307522  1
  Fe  Fe155  1  0.60721485  0.75003778  0.37381298  1
  Fe  Fe156  1  0.85771582  0.08372349  0.00224305  1
  Fe  Fe157  1  0.35751175  0.08395005  0.50181304  1
  Fe  Fe158  1  0.64246256  0.25010233  0.99813777  1
  Fe  Fe159  1  0.39278902  0.58366518  0.37814796  1
  Fe  Fe160  1  0.39303936  0.25002455  0.87655260  1
  Fe  Fe161  1  0.10708285  0.41721147  0.62301032  1
  Fe  Fe162  1  0.85690611  0.41605763  0.00132645  1
  Fe  Fe163  1  0.85681140  0.74976904  0.50182811  1
  Fe  Fe164  1  0.39288330  0.58350721  0.12640504  1
  Fe  Fe165  1  0.10684958  0.08324341  0.87384151  1
  Fe  Fe166  1  0.64315992  0.91620142  0.74952108  1
  Fe  Fe167  1  0.60836602  0.41671930  0.87296482  1
  Fe  Fe168  1  0.10653222  0.41718083  0.87372768  1
  Fe  Fe169  1  0.89252896  0.58310817  0.62610079  1
  Fe  Fe170  1  0.10644954  0.74891159  0.62334406  1
  Fe  Fe171  1  0.10774142  0.08387032  0.12290418  1
  Fe  Fe172  1  0.14285177  0.58263201  0.49862589  1
  Fe  Fe173  1  0.35739930  0.75025952  0.00074180  1
  Fe  Fe174  1  0.14351285  0.25092633  0.49791611  1
  Fe  Fe175  1  0.60675149  0.75015507  0.12269060  1
  Fe  Fe176  1  0.89223584  0.58365722  0.87642603  1
  Fe  Fe177  1  0.39350377  0.58364049  0.62667731  1
  Fe  Fe178  1  0.85747517  0.41704439  0.75139667  1
  Fe  Fe179  1  0.10807511  0.08363336  0.62258024  1
  Fe  Fe180  1  0.39270527  0.24977649  0.37716477  1
  Fe  Fe181  1  0.64365659  0.58398209  0.74807654  1
  Fe  Fe182  1  0.64150501  0.25071341  0.24869942  1
  Fe  Fe183  1  0.85696294  0.75015620  0.00166681  1
  Fe  Fe184  1  0.35816435  0.41668936  0.25214475  1
  Fe  Fe185  1  0.35640460  0.41682834  0.50233582  1
  Fe  Fe186  1  0.85688553  0.41614592  0.25189033  1
  Fe  Fe187  1  0.85730820  0.75005065  0.75206844  1
  Fe  Fe188  1  0.10817964  0.41688404  0.37240285  1
  Fe  Fe189  1  0.35694697  0.75039425  0.75159145  1
  Fe  Fe190  1  0.14213213  0.91607233  0.74904178  1
  Fe  Fe191  1  0.39373494  0.25020805  0.12651465  1
  P  P192  1  0.05344056  0.24981760  0.10991334  1
  P  P193  1  0.05556649  0.25123165  0.36063536  1
  P  P194  1  0.05483684  0.25053923  0.60927412  1
  P  P195  1  0.05323392  0.25033085  0.86057113  1
  P  P196  1  0.05312683  0.58297999  0.10975537  1
  P  P197  1  0.05492483  0.58231192  0.36088490  1
  P  P198  1  0.05241573  0.58336422  0.60951070  1
  P  P199  1  0.05184771  0.58367155  0.86028835  1
  P  P200  1  0.05593149  0.91715762  0.11014506  1
  P  P201  1  0.05404399  0.91626891  0.35900873  1
  P  P202  1  0.05511231  0.91597171  0.61184143  1
  P  P203  1  0.05399556  0.91577753  0.86110886  1
  P  P204  1  0.55434645  0.24975971  0.11066868  1
  P  P205  1  0.55207870  0.24953642  0.35979537  1
  P  P206  1  0.55312539  0.25118722  0.61002243  1
  P  P207  1  0.55374552  0.25059148  0.86105555  1
  P  P208  1  0.55188317  0.58383054  0.10981568  1
  P  P209  1  0.55300429  0.58393172  0.36185388  1
  P  P210  1  0.55495950  0.58376360  0.61126425  1
  P  P211  1  0.55493864  0.58340503  0.85930758  1
  P  P212  1  0.55321216  0.91670835  0.10929572  1
  P  P213  1  0.55288777  0.91646962  0.36044191  1
  P  P214  1  0.55502581  0.91530640  0.61195907  1
  P  P215  1  0.55277095  0.91576397  0.85924310  1
  P  P216  1  0.44798138  0.08370395  0.13937283  1
  P  P217  1  0.44696282  0.08401082  0.39062285  1
  P  P218  1  0.44500557  0.08354904  0.63942253  1
  P  P219  1  0.44650268  0.08287826  0.88953749  1
  P  P220  1  0.44606833  0.41703763  0.14034811  1
  P  P221  1  0.44408079  0.41662554  0.38983100  1
  P  P222  1  0.44648219  0.41807495  0.63872507  1
  P  P223  1  0.44882932  0.41626396  0.88940361  1
  P  P224  1  0.44646705  0.74959114  0.13823752  1
  P  P225  1  0.44802246  0.74965545  0.39068276  1
  P  P226  1  0.44728514  0.74853213  0.64097323  1
  P  P227  1  0.44594380  0.75090490  0.88851960  1
  P  P228  1  0.94684351  0.08356304  0.13927272  1
  P  P229  1  0.94757700  0.08319758  0.39003251  1
  P  P230  1  0.94905220  0.08345249  0.63986743  1
  P  P231  1  0.94734491  0.08202049  0.89063125  1
  P  P232  1  0.94447094  0.41621216  0.13982967  1
  P  P233  1  0.94677690  0.41637629  0.38892831  1
  P  P234  1  0.94737807  0.41762165  0.64002214  1
  P  P235  1  0.94542524  0.41763615  0.88909523  1
  P  P236  1  0.94556015  0.74987055  0.13902946  1
  P  P237  1  0.94577254  0.75008441  0.39080121  1
  P  P238  1  0.94541148  0.74889659  0.63928987  1
  P  P239  1  0.94546237  0.75009084  0.88896700  1
  P  P240  1  0.19674398  0.08272425  0.23360575  1
  P  P241  1  0.19713791  0.08462918  0.48624744  1
  P  P242  1  0.19410881  0.08244869  0.73628311  1
  P  P243  1  0.19458874  0.08265541  0.98542541  1
  P  P244  1  0.19811848  0.41682913  0.23585378  1
  P  P245  1  0.19572657  0.41735438  0.48580377  1
  P  P246  1  0.19436636  0.41711537  0.73548659  1
  P  P247  1  0.19665320  0.41737113  0.98408388  1
  P  P248  1  0.19718658  0.75047624  0.23496666  1
  P  P249  1  0.19538512  0.74836212  0.48671800  1
  P  P250  1  0.19522331  0.75059623  0.73555746  1
  P  P251  1  0.19711422  0.74990356  0.98365972  1
  P  P252  1  0.69383258  0.08443109  0.23545049  1
  P  P253  1  0.69591591  0.08309819  0.48408488  1
  P  P254  1  0.69729443  0.08192212  0.73518968  1
  P  P255  1  0.69682409  0.08415330  0.98607206  1
  P  P256  1  0.69720584  0.41622328  0.23510971  1
  P  P257  1  0.69497197  0.41798943  0.48637101  1
  P  P258  1  0.69608042  0.41772578  0.73561003  1
  P  P259  1  0.69714296  0.41584899  0.98433817  1
  P  P260  1  0.69394139  0.74954517  0.23501957  1
  P  P261  1  0.69585270  0.74856197  0.48611251  1
  P  P262  1  0.69609739  0.75025439  0.73650444  1
  P  P263  1  0.69569754  0.74973425  0.98526809  1
  P  P264  1  0.30586704  0.25034295  0.01418213  1
  P  P265  1  0.30624076  0.25038800  0.26421207  1
  P  P266  1  0.30351458  0.25052548  0.51390086  1
  P  P267  1  0.30359065  0.25035364  0.76613419  1
  P  P268  1  0.30443336  0.58461956  0.01484347  1
  P  P269  1  0.30626026  0.58298899  0.26492736  1
  P  P270  1  0.30420884  0.58257219  0.51508763  1
  P  P271  1  0.30446113  0.58435802  0.76327724  1
  P  P272  1  0.30334750  0.91544699  0.01300799  1
  P  P273  1  0.30167890  0.91676626  0.26507665  1
  P  P274  1  0.30347522  0.91747202  0.51556478  1
  P  P275  1  0.30220517  0.91556112  0.76557510  1
  P  P276  1  0.80215094  0.24988073  0.01482064  1
  P  P277  1  0.80140051  0.25087703  0.26524210  1
  P  P278  1  0.80303868  0.25008003  0.51526459  1
  P  P279  1  0.80393699  0.25075379  0.76458581  1
  P  P280  1  0.80462660  0.58356158  0.01300492  1
  P  P281  1  0.80261722  0.58220148  0.26516302  1
  P  P282  1  0.80270390  0.58427423  0.51590256  1
  P  P283  1  0.80473084  0.58346650  0.76376759  1
  P  P284  1  0.80528317  0.91665807  0.01370685  1
  P  P285  1  0.80257400  0.91658530  0.26474031  1
  P  P286  1  0.80325791  0.91545607  0.51500410  1
  P  P287  1  0.80329079  0.91557842  0.76584456  1
  O  O288  1  0.05700351  0.25038342  0.18666614  1
  O  O289  1  0.06008247  0.25079532  0.43737140  1
  O  O290  1  0.05679216  0.25037997  0.68601498  1
  O  O291  1  0.05602575  0.25060957  0.93731111  1
  O  O292  1  0.05701779  0.58319767  0.18650249  1
  O  O293  1  0.05914766  0.58274139  0.43760117  1
  O  O294  1  0.05547817  0.58363711  0.68626093  1
  O  O295  1  0.05554663  0.58371584  0.93689214  1
  O  O296  1  0.05981010  0.91615165  0.18691164  1
  O  O297  1  0.05714417  0.91615114  0.43586752  1
  O  O298  1  0.05851649  0.91599084  0.68861128  1
  O  O299  1  0.05820981  0.91542319  0.93784740  1
  O  O300  1  0.55848808  0.25060525  0.18737121  1
  O  O301  1  0.55576495  0.25060735  0.43648880  1
  O  O302  1  0.55647008  0.25052719  0.68682366  1
  O  O303  1  0.55855577  0.25012603  0.93775314  1
  O  O304  1  0.55504439  0.58305576  0.18655833  1
  O  O305  1  0.55803437  0.58332256  0.43844113  1
  O  O306  1  0.55970928  0.58370279  0.68794012  1
  O  O307  1  0.55727414  0.58346284  0.93609076  1
  O  O308  1  0.55584816  0.91687573  0.18607475  1
  O  O309  1  0.55535539  0.91636249  0.43724981  1
  O  O310  1  0.55943452  0.91597405  0.68862403  1
  O  O311  1  0.55667190  0.91625606  0.93593581  1
  O  O312  1  0.44381236  0.08287376  0.06273852  1
  O  O313  1  0.44371580  0.08331261  0.31389540  1
  O  O314  1  0.44055997  0.08363993  0.56265989  1
  O  O315  1  0.44351820  0.08279010  0.81276163  1
  O  O316  1  0.44402190  0.41708793  0.06357159  1
  O  O317  1  0.44088360  0.41669073  0.31300478  1
  O  O318  1  0.44119297  0.41728033  0.56212781  1
  O  O319  1  0.44493983  0.41693355  0.81272099  1
  O  O320  1  0.44177592  0.75031407  0.06161130  1
  O  O321  1  0.44447252  0.75021151  0.31395149  1
  O  O322  1  0.44351567  0.74934206  0.56428199  1
  O  O323  1  0.44105299  0.75049921  0.81190375  1
  O  O324  1  0.94138544  0.08379625  0.06260774  1
  O  O325  1  0.94377135  0.08349239  0.31325015  1
  O  O326  1  0.94479024  0.08308964  0.56323268  1
  O  O327  1  0.94399986  0.08277235  0.81389318  1
  O  O328  1  0.93971995  0.41599871  0.06303404  1
  O  O329  1  0.94124185  0.41630332  0.31231727  1
  O  O330  1  0.94394395  0.41711153  0.56328503  1
  O  O331  1  0.94083205  0.41684547  0.81239813  1
  O  O332  1  0.94095757  0.74983272  0.06227422  1
  O  O333  1  0.94251759  0.74986448  0.31399134  1
  O  O334  1  0.94074495  0.74965112  0.56266322  1
  O  O335  1  0.94105697  0.75027330  0.81221133  1
  O  O336  1  0.19100125  0.08381439  0.06216777  1
  O  O337  1  0.19446024  0.08388281  0.31048309  1
  O  O338  1  0.19230421  0.08405818  0.56295505  1
  O  O339  1  0.18988593  0.08324516  0.81308067  1
  O  O340  1  0.19395152  0.41717023  0.06089976  1
  O  O341  1  0.19316559  0.41687232  0.31249259  1
  O  O342  1  0.19101999  0.41755255  0.56252878  1
  O  O343  1  0.18951491  0.41755085  0.81220448  1
  O  O344  1  0.19370408  0.74914105  0.06037200  1
  O  O345  1  0.19394737  0.74957798  0.31173007  1
  O  O346  1  0.19095450  0.74857266  0.56343762  1
  O  O347  1  0.19030737  0.74930163  0.81221755  1
  O  O348  1  0.69150017  0.08330602  0.06270997  1
  O  O349  1  0.68936707  0.08343542  0.31218741  1
  O  O350  1  0.69289433  0.08307201  0.56089822  1
  O  O351  1  0.69428580  0.08273579  0.81199246  1
  O  O352  1  0.69313982  0.41667729  0.06100431  1
  O  O353  1  0.69304028  0.41713639  0.31179743  1
  O  O354  1  0.69089237  0.41723953  0.56313450  1
  O  O355  1  0.69158513  0.41688905  0.81233149  1
  O  O356  1  0.69047214  0.74963391  0.06194786  1
  O  O357  1  0.68971910  0.74962233  0.31185177  1
  O  O358  1  0.69157517  0.74929064  0.56283511  1
  O  O359  1  0.69149465  0.75030343  0.81319258  1
  O  O360  1  0.31049922  0.24971951  0.18741739  1
  O  O361  1  0.30814064  0.25007551  0.43722828  1
  O  O362  1  0.30635736  0.25076812  0.68926871  1
  O  O363  1  0.31012053  0.25032271  0.93740235  1
  O  O364  1  0.31026448  0.58378223  0.18811967  1
  O  O365  1  0.30902757  0.58377545  0.43835791  1
  O  O366  1  0.30900406  0.58335719  0.68662772  1
  O  O367  1  0.30731038  0.58366946  0.93802873  1
  O  O368  1  0.30554510  0.91653141  0.18831954  1
  O  O369  1  0.30655134  0.91675938  0.43876129  1
  O  O370  1  0.30599152  0.91615634  0.68888567  1
  O  O371  1  0.30846346  0.91640229  0.93642220  1
  O  O372  1  0.80518947  0.24996066  0.18854923  1
  O  O373  1  0.80617516  0.25016100  0.43848681  1
  O  O374  1  0.80724099  0.25024630  0.68785951  1
  O  O375  1  0.80608041  0.24963824  0.93812787  1
  O  O376  1  0.80560794  0.58294661  0.18836486  1
  O  O377  1  0.80625733  0.58356759  0.43919419  1
  O  O378  1  0.80915581  0.58321429  0.68711440  1
  O  O379  1  0.80818530  0.58393285  0.93620869  1
  O  O380  1  0.80619599  0.91658608  0.18795558  1
  O  O381  1  0.80612517  0.91623025  0.43826476  1
  O  O382  1  0.80682006  0.91602994  0.68909926  1
  O  O383  1  0.80951411  0.91670963  0.93697654  1
  O  O384  1  0.23573862  0.25059827  0.03806047  1
  O  O385  1  0.23616049  0.25002558  0.28818998  1
  O  O386  1  0.23327220  0.25118557  0.53801593  1
  O  O387  1  0.23387575  0.25006299  0.79098836  1
  O  O388  1  0.23488717  0.58335602  0.04036420  1
  O  O389  1  0.23621753  0.58349198  0.28907169  1
  O  O390  1  0.23379688  0.58265652  0.53859177  1
  O  O391  1  0.23431962  0.58427329  0.78716558  1
  O  O392  1  0.23287528  0.91556184  0.03625109  1
  O  O393  1  0.23183223  0.91703002  0.28999078  1
  O  O394  1  0.23377453  0.91702472  0.54058927  1
  O  O395  1  0.23206053  0.91587690  0.78981075  1
  O  O396  1  0.73211741  0.25001444  0.03941701  1
  O  O397  1  0.73136624  0.25073217  0.28986227  1
  O  O398  1  0.73336515  0.25021910  0.54037799  1
  O  O399  1  0.73419400  0.25038226  0.78963642  1
  O  O400  1  0.73477552  0.58280266  0.03792983  1
  O  O401  1  0.73302211  0.58311864  0.29049398  1
  O  O402  1  0.73273837  0.58366141  0.54062444  1
  O  O403  1  0.73425444  0.58407758  0.78738425  1
  O  O404  1  0.73522886  0.91649143  0.03790920  1
  O  O405  1  0.73277770  0.91657119  0.28945111  1
  O  O406  1  0.73360791  0.91531827  0.54022973  1
  O  O407  1  0.73327969  0.91603988  0.79063677  1
  O  O408  1  0.26624066  0.08285509  0.20781060  1
  O  O409  1  0.26736877  0.08399645  0.46218491  1
  O  O410  1  0.26424178  0.08344140  0.71237380  1
  O  O411  1  0.26460920  0.08278840  0.96114502  1
  O  O412  1  0.26849584  0.41665470  0.21234370  1
  O  O413  1  0.26620261  0.41718153  0.46234841  1
  O  O414  1  0.26461766  0.41696530  0.71199447  1
  O  O415  1  0.26636167  0.41766811  0.95890080  1
  O  O416  1  0.26685274  0.75026433  0.20980601  1
  O  O417  1  0.26541683  0.74935882  0.46252755  1
  O  O418  1  0.26566060  0.75026437  0.71203126  1
  O  O419  1  0.26712772  0.75009518  0.95902736  1
  O  O420  1  0.76397595  0.08374318  0.21148011  1
  O  O421  1  0.76555542  0.08342726  0.45892060  1
  O  O422  1  0.76689772  0.08224262  0.70976751  1
  O  O423  1  0.76726691  0.08378326  0.96267161  1
  O  O424  1  0.76709051  0.41594216  0.21031015  1
  O  O425  1  0.76496722  0.41755463  0.46219297  1
  O  O426  1  0.76655963  0.41743629  0.71206927  1
  O  O427  1  0.76733799  0.41669291  0.96011040  1
  O  O428  1  0.76400353  0.74928432  0.21102907  1
  O  O429  1  0.76607416  0.74939495  0.46202433  1
  O  O430  1  0.76659744  0.74954813  0.71301550  1
  O  O431  1  0.76622907  0.75017151  0.96219577  1
  O  O432  1  0.01729624  0.08336661  0.16235014  1
  O  O433  1  0.01742071  0.08294096  0.41456660  1
  O  O434  1  0.01918474  0.08341720  0.66403289  1
  O  O435  1  0.01753920  0.08249718  0.91491876  1
  O  O436  1  0.01467254  0.41665473  0.16337947  1
  O  O437  1  0.01718253  0.41684431  0.41219133  1
  O  O438  1  0.01751131  0.41740490  0.66441385  1
  O  O439  1  0.01584492  0.41722122  0.91281780  1
  O  O440  1  0.01564423  0.74996785  0.16281480  1
  O  O441  1  0.01558369  0.74977511  0.41548604  1
  O  O442  1  0.01586056  0.74919492  0.66287773  1
  O  O443  1  0.01587475  0.74989120  0.91279529  1
  O  O444  1  0.51803214  0.08377227  0.16372469  1
  O  O445  1  0.51699856  0.08348803  0.41541244  1
  O  O446  1  0.51508156  0.08356805  0.66330946  1
  O  O447  1  0.51615383  0.08299547  0.91486639  1
  O  O448  1  0.51553513  0.41702263  0.16641710  1
  O  O449  1  0.51406358  0.41687437  0.41429455  1
  O  O450  1  0.51691863  0.41775814  0.66214153  1
  O  O451  1  0.51882584  0.41697701  0.91416276  1
  O  O452  1  0.51670675  0.74983305  0.16230472  1
  O  O453  1  0.51795794  0.74984843  0.41556918  1
  O  O454  1  0.51749114  0.74906683  0.66500491  1
  O  O455  1  0.51652540  0.74971004  0.91176026  1
  O  O456  1  0.48394539  0.25041322  0.08695240  1
  O  O457  1  0.48195184  0.24983907  0.33553091  1
  O  O458  1  0.48340827  0.25070597  0.58511627  1
  O  O459  1  0.48348429  0.25023946  0.83703842  1
  O  O460  1  0.48205368  0.58336244  0.08462868  1
  O  O461  1  0.48261465  0.58347958  0.33833863  1
  O  O462  1  0.48457294  0.58388873  0.58753312  1
  O  O463  1  0.48525890  0.58341501  0.83401338  1
  O  O464  1  0.48367277  0.91636564  0.08371902  1
  O  O465  1  0.48349917  0.91659675  0.33427423  1
  O  O466  1  0.48494151  0.91557584  0.58792700  1
  O  O467  1  0.48265557  0.91626785  0.83485319  1
  O  O468  1  0.98374164  0.24995870  0.08490796  1
  O  O469  1  0.98557102  0.25033682  0.33644314  1
  O  O470  1  0.98536289  0.25066749  0.58322694  1
  O  O471  1  0.98367937  0.25003466  0.83494756  1
  O  O472  1  0.98333682  0.58286682  0.08521901  1
  O  O473  1  0.98489939  0.58300691  0.33669459  1
  O  O474  1  0.98240864  0.58311950  0.58465224  1
  O  O475  1  0.98179522  0.58370806  0.83561420  1
  O  O476  1  0.98582197  0.91649755  0.08615946  1
  O  O477  1  0.98446036  0.91650422  0.33375369  1
  O  O478  1  0.98525875  0.91599981  0.58698477  1
  O  O479  1  0.98368274  0.91597485  0.83702189  1
  O  O480  1  0.08750915  0.31486051  0.07732553  1
  O  O481  1  0.08877189  0.31654703  0.32761358  1
  O  O482  1  0.08925966  0.31579140  0.57734423  1
  O  O483  1  0.08721297  0.31543026  0.82814100  1
  O  O484  1  0.08689931  0.64802743  0.07688001  1
  O  O485  1  0.08866031  0.64729023  0.32778460  1
  O  O486  1  0.08651164  0.64835245  0.57693515  1
  O  O487  1  0.08550790  0.64877697  0.82726416  1
  O  O488  1  0.08922569  0.98249209  0.07751979  1
  O  O489  1  0.08867439  0.98115647  0.32681374  1
  O  O490  1  0.08890051  0.98105030  0.57894296  1
  O  O491  1  0.08769444  0.98084506  0.82830829  1
  O  O492  1  0.58803199  0.31460937  0.07720272  1
  O  O493  1  0.58590880  0.31445303  0.32648014  1
  O  O494  1  0.58682269  0.31645811  0.57777293  1
  O  O495  1  0.58706966  0.31570517  0.82798742  1
  O  O496  1  0.58582261  0.64876315  0.07725438  1
  O  O497  1  0.58605823  0.64902815  0.32859546  1
  O  O498  1  0.58837711  0.64893199  0.57819397  1
  O  O499  1  0.58922442  0.64852180  0.82706081  1
  O  O500  1  0.58732488  0.98191595  0.07701788  1
  O  O501  1  0.58717805  0.98167627  0.32850913  1
  O  O502  1  0.58850370  0.98014176  0.57845311  1
  O  O503  1  0.58706161  0.98057071  0.82647344  1
  O  O504  1  0.41442100  0.01865414  0.17258457  1
  O  O505  1  0.41261304  0.01927095  0.42348490  1
  O  O506  1  0.41159902  0.01839309  0.67246602  1
  O  O507  1  0.41249155  0.01752457  0.92171860  1
  O  O508  1  0.41165548  0.35189430  0.17235240  1
  O  O509  1  0.41043000  0.35137804  0.42249157  1
  O  O510  1  0.41313397  0.35323513  0.67246994  1
  O  O511  1  0.41511279  0.35130552  0.92208119  1
  O  O512  1  0.41331699  0.68438637  0.17132557  1
  O  O513  1  0.41417304  0.68462181  0.42335266  1
  O  O514  1  0.41357922  0.68340014  0.67346850  1
  O  O515  1  0.41215518  0.68617118  0.92201589  1
  O  O516  1  0.91366365  0.01854729  0.17261785  1
  O  O517  1  0.91361732  0.01811161  0.42252844  1
  O  O518  1  0.91537263  0.01849994  0.67304364  1
  O  O519  1  0.91374497  0.01685039  0.92310789  1
  O  O520  1  0.91116556  0.35115591  0.17323184  1
  O  O521  1  0.91383416  0.35136569  0.42263222  1
  O  O522  1  0.91336222  0.35274255  0.67294229  1
  O  O523  1  0.91192601  0.35278596  0.92284689  1
  O  O524  1  0.91217297  0.68482054  0.17223938  1
  O  O525  1  0.91144108  0.68519223  0.42344961  1
  O  O526  1  0.91219717  0.68367268  0.67232072  1
  O  O527  1  0.91179825  0.68503711  0.92191733  1
  O  O528  1  0.16211319  0.01760459  0.20219072  1
  O  O529  1  0.16354111  0.01962545  0.45305087  1
  O  O530  1  0.16123425  0.01692943  0.70354773  1
  O  O531  1  0.16089265  0.01742396  0.95293475  1
  O  O532  1  0.16489192  0.35188002  0.20231585  1
  O  O533  1  0.16249288  0.35236398  0.45228146  1
  O  O534  1  0.16099826  0.35206272  0.70235577  1
  O  O535  1  0.16236173  0.35237333  0.95170879  1
  O  O536  1  0.16318608  0.68550287  0.20207214  1
  O  O537  1  0.16251606  0.68299551  0.45359777  1
  O  O538  1  0.16159150  0.68588170  0.70165257  1
  O  O539  1  0.16325880  0.68489727  0.95065132  1
  O  O540  1  0.65995187  0.01974417  0.20170377  1
  O  O541  1  0.66175584  0.01798516  0.45178874  1
  O  O542  1  0.66324298  0.01661130  0.70344908  1
  O  O543  1  0.66364422  0.01917739  0.95233850  1
  O  O544  1  0.66299290  0.35124925  0.20283711  1
  O  O545  1  0.66112039  0.35327170  0.45297386  1
  O  O546  1  0.66238607  0.35301758  0.70205239  1
  O  O547  1  0.66372687  0.35053611  0.95174573  1
  O  O548  1  0.66012054  0.68462535  0.20194544  1
  O  O549  1  0.66273797  0.68318040  0.45314367  1
  O  O550  1  0.66249806  0.68538121  0.70302157  1
  O  O551  1  0.66273863  0.68466923  0.95169703  1
  O  O552  1  0.33962911  0.31530904  0.04709636  1
  O  O553  1  0.33963242  0.31543396  0.29734911  1
  O  O554  1  0.33691359  0.31576647  0.54702512  1
  O  O555  1  0.33784541  0.31534614  0.79852773  1
  O  O556  1  0.33794609  0.65032566  0.04670797  1
  O  O557  1  0.34011678  0.64783220  0.29836575  1
  O  O558  1  0.33785867  0.64729872  0.54879442  1
  O  O559  1  0.33786731  0.64960228  0.79599195  1
  O  O560  1  0.33632502  0.98034067  0.04712063  1
  O  O561  1  0.33575104  0.98188303  0.29736057  1
  O  O562  1  0.33736945  0.98261197  0.54770946  1
  O  O563  1  0.33611617  0.98040043  0.79871868  1
  O  O564  1  0.83584523  0.31516791  0.04717946  1
  O  O565  1  0.83535081  0.31595986  0.29767722  1
  O  O566  1  0.83716087  0.31521247  0.54754125  1
  O  O567  1  0.83763781  0.31607792  0.79683310  1
  O  O568  1  0.83778222  0.64885876  0.04607470  1
  O  O569  1  0.83720672  0.64697711  0.29764569  1
  O  O570  1  0.83652959  0.64940038  0.54842808  1
  O  O571  1  0.83839010  0.64835102  0.79710849  1
  O  O572  1  0.83862845  0.98187477  0.04677122  1
  O  O573  1  0.83645366  0.98171481  0.29718590  1
  O  O574  1  0.83729505  0.98052660  0.54774546  1
  O  O575  1  0.83781568  0.98035161  0.79845764  1
  O  O576  1  0.41425464  0.14876942  0.17190970  1
  O  O577  1  0.41316504  0.14930554  0.42308098  1
  O  O578  1  0.41145727  0.14855337  0.67243002  1
  O  O579  1  0.41238581  0.14793047  0.92181934  1
  O  O580  1  0.41157391  0.48205658  0.17241533  1
  O  O581  1  0.41018254  0.48153522  0.42283531  1
  O  O582  1  0.41357511  0.48328879  0.67207528  1
  O  O583  1  0.41474257  0.48130951  0.92201162  1
  O  O584  1  0.41316410  0.81453324  0.17200440  1
  O  O585  1  0.41405040  0.81468130  0.42332537  1
  O  O586  1  0.41299515  0.81324277  0.67403222  1
  O  O587  1  0.41322558  0.81616648  0.92204635  1
  O  O588  1  0.91378971  0.14856091  0.17294951  1
  O  O589  1  0.91386617  0.14831539  0.42272690  1
  O  O590  1  0.91551001  0.14861261  0.67258769  1
  O  O591  1  0.91324805  0.14688627  0.92364541  1
  O  O592  1  0.91060375  0.48103043  0.17300598  1
  O  O593  1  0.91337787  0.48134574  0.42244633  1
  O  O594  1  0.91338979  0.48270207  0.67250280  1
  O  O595  1  0.91220658  0.48285761  0.92200250  1
  O  O596  1  0.91208118  0.81486338  0.17215604  1
  O  O597  1  0.91183866  0.81512655  0.42335111  1
  O  O598  1  0.91194350  0.81365376  0.67324454  1
  O  O599  1  0.91223622  0.81512631  0.92239456  1
  O  O600  1  0.08760402  0.18473486  0.07770464  1
  O  O601  1  0.08956399  0.18633138  0.32767341  1
  O  O602  1  0.08943761  0.18557083  0.57709012  1
  O  O603  1  0.08740746  0.18509002  0.82860726  1
  O  O604  1  0.08704176  0.51793500  0.07721911  1
  O  O605  1  0.08828672  0.51711635  0.32779708  1
  O  O606  1  0.08675545  0.51840556  0.57709703  1
  O  O607  1  0.08575561  0.51873945  0.82747484  1
  O  O608  1  0.08983418  0.85243365  0.07651529  1
  O  O609  1  0.08823604  0.85121845  0.32663268  1
  O  O610  1  0.08859571  0.85065177  0.57917100  1
  O  O611  1  0.08735943  0.85076376  0.82768090  1
  O  O612  1  0.58747776  0.18461068  0.07740760  1
  O  O613  1  0.58590489  0.18442200  0.32750106  1
  O  O614  1  0.58728553  0.18615271  0.57762461  1
  O  O615  1  0.58711962  0.18553708  0.82769138  1
  O  O616  1  0.58611750  0.51879388  0.07734590  1
  O  O617  1  0.58605551  0.51891278  0.32794905  1
  O  O618  1  0.58820594  0.51884951  0.57762354  1
  O  O619  1  0.58936651  0.51845058  0.82710375  1
  O  O620  1  0.58765409  0.85168287  0.07719014  1
  O  O621  1  0.58719469  0.85135933  0.32837423  1
  O  O622  1  0.58818003  0.84980142  0.57922845  1
  O  O623  1  0.58671146  0.85066588  0.82675680  1
  O  O624  1  0.33928202  0.18525039  0.04738414  1
  O  O625  1  0.33981301  0.18537230  0.29753696  1
  O  O626  1  0.33655000  0.18549138  0.54742433  1
  O  O627  1  0.33800685  0.18540525  0.79830311  1
  O  O628  1  0.33963099  0.52018386  0.04738413  1
  O  O629  1  0.33960486  0.51773257  0.29772215  1
  O  O630  1  0.33758711  0.51735373  0.54795857  1
  O  O631  1  0.33783041  0.51952771  0.79704775  1
  O  O632  1  0.33643270  0.85023559  0.04615915  1
  O  O633  1  0.33555747  0.85183559  0.29801393  1
  O  O634  1  0.33751294  0.85230086  0.54809253  1
  O  O635  1  0.33613053  0.85046105  0.79801377  1
  O  O636  1  0.83594413  0.18493650  0.04788862  1
  O  O637  1  0.83533406  0.18585441  0.29804642  1
  O  O638  1  0.83718180  0.18500459  0.54755110  1
  O  O639  1  0.83803285  0.18573062  0.79723009  1
  O  O640  1  0.83857562  0.51842821  0.04536698  1
  O  O641  1  0.83634521  0.51680941  0.29733379  1
  O  O642  1  0.83714077  0.51950672  0.54877700  1
  O  O643  1  0.83776194  0.51831936  0.79723465  1
  O  O644  1  0.83867702  0.85134734  0.04649483  1
  O  O645  1  0.83634606  0.85147804  0.29726074  1
  O  O646  1  0.83740732  0.85035152  0.54724613  1
  O  O647  1  0.83711213  0.85037972  0.79830709  1
  O  O648  1  0.16226012  0.14764829  0.20108551  1
  O  O649  1  0.16418591  0.14977367  0.45294181  1
  O  O650  1  0.16024469  0.14718552  0.70284934  1
  O  O651  1  0.16083679  0.14750950  0.95208592  1
  O  O652  1  0.16500998  0.48184824  0.20238256  1
  O  O653  1  0.16264782  0.48250082  0.45235193  1
  O  O654  1  0.16094363  0.48204412  0.70189531  1
  O  O655  1  0.16211906  0.48220855  0.95164557  1
  O  O656  1  0.16321065  0.81564353  0.20283140  1
  O  O657  1  0.16149465  0.81330658  0.45378815  1
  O  O658  1  0.16190588  0.81581111  0.70285424  1
  O  O659  1  0.16262969  0.81474695  0.95128659  1
  O  O660  1  0.66067160  0.14990851  0.20284926  1
  O  O661  1  0.66122798  0.14792229  0.45178816  1
  O  O662  1  0.66294681  0.14691757  0.70278175  1
  O  O663  1  0.66364823  0.14925543  0.95290283  1
  O  O664  1  0.66368925  0.48130618  0.20183405  1
  O  O665  1  0.66167933  0.48335955  0.45371019  1
  O  O666  1  0.66292191  0.48307529  0.70273780  1
  O  O667  1  0.66302657  0.48059852  0.95120476  1
  O  O668  1  0.66043713  0.81461499  0.20182335  1
  O  O669  1  0.66178356  0.81310535  0.45249890  1
  O  O670  1  0.66320561  0.81540440  0.70305729  1
  O  O671  1  0.66222107  0.81456914  0.95171020  1
