# generated using pymatgen
data_Na2MnFe(PO4)2
_symmetry_space_group_name_H-M   'P 1'
_cell_length_a   21.09226986
_cell_length_b   18.94598125
_cell_length_c   20.05027086
_cell_angle_alpha   90.00051301
_cell_angle_beta   90.00141482
_cell_angle_gamma   90.00213763
_symmetry_Int_Tables_number   1
_chemical_formula_structural   Na2MnFe(PO4)2
_chemical_formula_sum   'Na96 Mn48 Fe48 P96 O384'
_cell_volume   8012.36390369
_cell_formula_units_Z   48
loop_
 _symmetry_equiv_pos_site_id
 _symmetry_equiv_pos_as_xyz
  1  'x, y, z'
loop_
 _atom_site_type_symbol
 _atom_site_label
 _atom_site_symmetry_multiplicity
 _atom_site_fract_x
 _atom_site_fract_y
 _atom_site_fract_z
 _atom_site_occupancy
  Na  Na0  1  -0.00012579  0.00044259  -0.00102608  1
  Na  Na1  1  -0.00125481  0.00066661  0.25010139  1
  Na  Na2  1  -0.00128246  0.00072145  0.49962773  1
  Na  Na3  1  0.00035961  0.00088280  0.75040940  1
  Na  Na4  1  -0.00132855  0.33385313  -0.00051880  1
  Na  Na5  1  -0.00089657  0.33372354  0.24943085  1
  Na  Na6  1  0.00104331  0.33436975  0.49999002  1
  Na  Na7  1  -0.00003487  0.33379949  0.75073414  1
  Na  Na8  1  -0.00064053  0.66670294  0.00067210  1
  Na  Na9  1  0.00004219  0.66742978  0.24932796  1
  Na  Na10  1  -0.00235690  0.66570559  0.50044914  1
  Na  Na11  1  -0.00124167  0.66657248  0.74951371  1
  Na  Na12  1  0.50151183  0.00059525  -0.00094068  1
  Na  Na13  1  0.50220404  0.00044735  0.24980908  1
  Na  Na14  1  0.50034328  0.00007444  0.50013281  1
  Na  Na15  1  0.49861551  -0.00042774  0.75175421  1
  Na  Na16  1  0.49975036  0.33373686  0.00090023  1
  Na  Na17  1  0.49946717  0.33321582  0.25038008  1
  Na  Na18  1  0.49984011  0.33309336  0.50021088  1
  Na  Na19  1  0.49879883  0.33320964  0.74917327  1
  Na  Na20  1  0.50042772  0.66612293  -0.00040174  1
  Na  Na21  1  0.50335120  0.66734050  0.24952385  1
  Na  Na22  1  0.50172543  0.66663381  0.50090357  1
  Na  Na23  1  0.50165156  0.66704888  0.75013658  1
  Na  Na24  1  0.24757721  -0.00074900  0.12377228  1
  Na  Na25  1  0.24962477  0.00019050  0.37521395  1
  Na  Na26  1  0.25119038  0.00085258  0.62579785  1
  Na  Na27  1  0.25000499  0.00006991  0.87469934  1
  Na  Na28  1  0.25059400  0.33384104  0.12484767  1
  Na  Na29  1  0.25035277  0.33422975  0.37512808  1
  Na  Na30  1  0.25051481  0.33404292  0.62495875  1
  Na  Na31  1  0.25260910  0.33469109  0.87550673  1
  Na  Na32  1  0.24970771  0.66665651  0.12439961  1
  Na  Na33  1  0.24861983  0.66553772  0.37413432  1
  Na  Na34  1  0.25071276  0.66716834  0.62519029  1
  Na  Na35  1  0.24879759  0.66609403  0.87550537  1
  Na  Na36  1  0.75075503  0.00057523  0.12562721  1
  Na  Na37  1  0.75016232  0.00061918  0.37448343  1
  Na  Na38  1  0.75011638  0.00046818  0.62493941  1
  Na  Na39  1  0.75140541  0.00085881  0.87538803  1
  Na  Na40  1  0.75036742  0.33362123  0.12468202  1
  Na  Na41  1  0.74992219  0.33332401  0.37508586  1
  Na  Na42  1  0.74856936  0.33245741  0.62512799  1
  Na  Na43  1  0.75026876  0.33379105  0.87464072  1
  Na  Na44  1  0.75007760  0.66668095  0.12408927  1
  Na  Na45  1  0.75038331  0.66665235  0.37514998  1
  Na  Na46  1  0.75159779  0.66700304  0.62602451  1
  Na  Na47  1  0.75066387  0.66702934  0.87508091  1
  Na  Na48  1  0.00053934  0.16525285  -0.00029247  1
  Na  Na49  1  -0.00155868  0.16636700  0.24952053  1
  Na  Na50  1  -0.00185846  0.16679442  0.50025140  1
  Na  Na51  1  0.00000941  0.16598675  0.74969199  1
  Na  Na52  1  -0.00170617  0.50069012  0.00004855  1
  Na  Na53  1  0.00167626  0.49867940  0.24933134  1
  Na  Na54  1  0.00030069  0.49974127  0.49978464  1
  Na  Na55  1  -0.00100147  0.50053299  0.75082084  1
  Na  Na56  1  -0.00057484  0.83274319  -0.00044965  1
  Na  Na57  1  -0.00338091  0.83429866  0.24972380  1
  Na  Na58  1  -0.00066078  0.83269291  0.50014777  1
  Na  Na59  1  -0.00077065  0.83317678  0.75006704  1
  Na  Na60  1  0.49935294  0.16773519  0.00002668  1
  Na  Na61  1  0.50381351  0.16589595  0.25019309  1
  Na  Na62  1  0.50363162  0.16583098  0.50045886  1
  Na  Na63  1  0.50035781  0.16718550  0.75010972  1
  Na  Na64  1  0.49902439  0.50004666  0.00021075  1
  Na  Na65  1  0.49874095  0.50018119  0.25000158  1
  Na  Na66  1  0.49872203  0.50037611  0.50038328  1
  Na  Na67  1  0.50093385  0.49883831  0.74954715  1
  Na  Na68  1  0.50312916  0.83183323  -0.00075957  1
  Na  Na69  1  0.50226123  0.83281320  0.24938712  1
  Na  Na70  1  0.49986243  0.83332373  0.50064038  1
  Na  Na71  1  0.49701944  0.83477868  0.75130795  1
  Na  Na72  1  0.24789076  0.16698861  0.12340195  1
  Na  Na73  1  0.24954253  0.16619670  0.37502494  1
  Na  Na74  1  0.25036899  0.16629923  0.62534282  1
  Na  Na75  1  0.25034138  0.16606959  0.87570682  1
  Na  Na76  1  0.25077911  0.49950119  0.12551931  1
  Na  Na77  1  0.24911126  0.49955735  0.37439938  1
  Na  Na78  1  0.24966199  0.49953445  0.62445396  1
  Na  Na79  1  0.25100240  0.49958992  0.87604023  1
  Na  Na80  1  0.24840499  0.83408193  0.12432291  1
  Na  Na81  1  0.25060771  0.83338629  0.37488860  1
  Na  Na82  1  0.25225463  0.83278857  0.62635808  1
  Na  Na83  1  0.25008893  0.83354910  0.87396184  1
  Na  Na84  1  0.75017576  0.16651566  0.12533666  1
  Na  Na85  1  0.74984192  0.16662743  0.37563518  1
  Na  Na86  1  0.74830748  0.16669037  0.62387292  1
  Na  Na87  1  0.75015481  0.16601671  0.87546801  1
  Na  Na88  1  0.75084719  0.49957731  0.12356726  1
  Na  Na89  1  0.74977856  0.50044898  0.37554639  1
  Na  Na90  1  0.75160198  0.49947033  0.62607602  1
  Na  Na91  1  0.75115307  0.49984733  0.87441750  1
  Na  Na92  1  0.75065996  0.83239752  0.12536016  1
  Na  Na93  1  0.75042047  0.83280800  0.37373475  1
  Na  Na94  1  0.75215585  0.83160984  0.62587421  1
  Na  Na95  1  0.74991928  0.83327208  0.87554953  1
  Mn  Mn96  1  0.14216796  0.25001034  0.99732321  1
  Mn  Mn97  1  0.35883017  0.74955742  0.50171542  1
  Mn  Mn98  1  0.35772033  0.74984237  0.00201931  1
  Mn  Mn99  1  0.60788718  0.41693278  0.37258977  1
  Mn  Mn100  1  0.89201802  0.58355005  0.12776067  1
  Mn  Mn101  1  0.89109259  0.91723256  0.37786063  1
  Mn  Mn102  1  0.60782292  0.08383717  0.87247304  1
  Mn  Mn103  1  0.14112239  0.91628123  0.24748861  1
  Mn  Mn104  1  0.10683945  0.75056593  0.12269144  1
  Mn  Mn105  1  0.10675252  0.08379201  0.37269802  1
  Mn  Mn106  1  0.35851929  0.74986749  0.25190082  1
  Mn  Mn107  1  0.60787809  0.41631962  0.62305797  1
  Mn  Mn108  1  0.64299403  0.58318798  0.49835759  1
  Mn  Mn109  1  0.39271453  0.24911336  0.62713198  1
  Mn  Mn110  1  0.39191243  0.58391722  0.62800357  1
  Mn  Mn111  1  0.39294944  0.91669737  0.37666136  1
  Mn  Mn112  1  0.35805124  0.08360853  0.25143357  1
  Mn  Mn113  1  0.14314774  0.91638698  0.74763146  1
  Mn  Mn114  1  0.89227065  0.91620018  0.87755873  1
  Mn  Mn115  1  0.89184088  0.91668015  0.62754718  1
  Mn  Mn116  1  0.39296342  0.91633244  0.12654709  1
  Mn  Mn117  1  0.10727370  0.74998969  0.37263668  1
  Mn  Mn118  1  0.89168878  0.25032017  0.87688646  1
  Mn  Mn119  1  0.14165171  0.24990733  0.49766362  1
  Mn  Mn120  1  0.14128521  0.25001663  0.24781816  1
  Mn  Mn121  1  0.64227015  0.91686621  0.74767977  1
  Mn  Mn122  1  0.89173493  0.25061991  0.62765735  1
  Mn  Mn123  1  0.64295991  0.91655918  0.24693141  1
  Mn  Mn124  1  0.60794648  0.75087649  0.62362227  1
  Mn  Mn125  1  0.64255125  0.58329365  0.99722674  1
  Mn  Mn126  1  0.35718508  0.08312412  0.00259065  1
  Mn  Mn127  1  0.39256184  0.58391671  0.37672820  1
  Mn  Mn128  1  0.39258729  0.24946210  0.12806213  1
  Mn  Mn129  1  0.64210845  0.91633774  0.49831687  1
  Mn  Mn130  1  0.14300213  0.25074464  0.74798989  1
  Mn  Mn131  1  0.35884342  0.08390174  0.50231714  1
  Mn  Mn132  1  0.89212444  0.58265749  0.37649062  1
  Mn  Mn133  1  0.14256003  0.91646780  0.49828592  1
  Mn  Mn134  1  0.10748638  0.75008791  0.62283862  1
  Mn  Mn135  1  0.10757206  0.41709427  0.87280288  1
  Mn  Mn136  1  0.14157497  0.58367961  0.49797050  1
  Mn  Mn137  1  0.14245812  0.58380426  0.99769880  1
  Mn  Mn138  1  0.39277717  0.58306956  0.87655486  1
  Mn  Mn139  1  0.64241794  0.24993597  0.99729200  1
  Mn  Mn140  1  0.85831436  0.41674405  0.50288272  1
  Mn  Mn141  1  0.39296723  0.24928380  0.37696671  1
  Mn  Mn142  1  0.60770620  0.41684850  0.12327522  1
  Mn  Mn143  1  0.89194205  0.24959332  0.12730400  1
  Fe  Fe144  1  0.39255598  0.91702161  0.62672263  1
  Fe  Fe145  1  0.89256860  0.58360592  0.87620700  1
  Fe  Fe146  1  0.10664162  0.74995592  0.87303674  1
  Fe  Fe147  1  0.85730327  0.41622743  0.75181966  1
  Fe  Fe148  1  0.64363201  0.91676820  0.99876789  1
  Fe  Fe149  1  0.60779161  0.74941109  0.87292891  1
  Fe  Fe150  1  0.85696573  0.41651989  0.00159936  1
  Fe  Fe151  1  0.60853385  0.08275085  0.37309843  1
  Fe  Fe152  1  0.85712546  0.08355527  0.75096543  1
  Fe  Fe153  1  0.64289522  0.58233759  0.24828908  1
  Fe  Fe154  1  0.89213566  0.91679331  0.12578029  1
  Fe  Fe155  1  0.35635192  0.41649324  0.25194213  1
  Fe  Fe156  1  0.60887438  0.74998326  0.37344546  1
  Fe  Fe157  1  0.39315992  0.91680432  0.87775561  1
  Fe  Fe158  1  0.14273001  0.58328877  0.24802290  1
  Fe  Fe159  1  0.35805844  0.41691002  0.00215902  1
  Fe  Fe160  1  0.35730074  0.74932451  0.75262456  1
  Fe  Fe161  1  0.10737717  0.08381737  0.62327041  1
  Fe  Fe162  1  0.10674547  0.08318654  0.87263084  1
  Fe  Fe163  1  0.14233461  0.58322864  0.74875555  1
  Fe  Fe164  1  0.85744482  0.74999209  0.75264465  1
  Fe  Fe165  1  0.85697739  0.75036671  0.00164141  1
  Fe  Fe166  1  0.89264947  0.58283166  0.62753354  1
  Fe  Fe167  1  0.85676363  0.08396289  0.25186051  1
  Fe  Fe168  1  0.60864081  0.08292066  0.12287810  1
  Fe  Fe169  1  0.10701368  0.41611136  0.12291143  1
  Fe  Fe170  1  0.39319601  0.58397891  0.12712842  1
  Fe  Fe171  1  0.60742309  0.08268831  0.62421119  1
  Fe  Fe172  1  0.35729858  0.41692219  0.75181441  1
  Fe  Fe173  1  0.10714929  0.41645970  0.37273013  1
  Fe  Fe174  1  0.64310573  0.25015765  0.49783801  1
  Fe  Fe175  1  0.85757343  0.08311389  0.00198373  1
  Fe  Fe176  1  0.89179773  0.25064806  0.37659630  1
  Fe  Fe177  1  0.35659036  0.41669879  0.50124280  1
  Fe  Fe178  1  0.10614776  0.08332092  0.12337886  1
  Fe  Fe179  1  0.64240737  0.25046416  0.74891840  1
  Fe  Fe180  1  0.10733822  0.41653896  0.62408207  1
  Fe  Fe181  1  0.39303886  0.25004843  0.87623300  1
  Fe  Fe182  1  0.85753241  0.41671660  0.25145212  1
  Fe  Fe183  1  0.60741096  0.41689458  0.87302495  1
  Fe  Fe184  1  0.35785188  0.08378446  0.75207175  1
  Fe  Fe185  1  0.85734824  0.75032802  0.50150385  1
  Fe  Fe186  1  0.14131491  0.91639089  0.99783919  1
  Fe  Fe187  1  0.64399654  0.58290302  0.74878183  1
  Fe  Fe188  1  0.85615571  0.08314544  0.50220284  1
  Fe  Fe189  1  0.64372917  0.25102114  0.24876480  1
  Fe  Fe190  1  0.85632194  0.74925153  0.25183571  1
  Fe  Fe191  1  0.60827322  0.75007577  0.12274865  1
  P  P192  1  0.05297016  0.25015380  0.10970566  1
  P  P193  1  0.05123016  0.25051709  0.35983846  1
  P  P194  1  0.05331869  0.25031907  0.61054831  1
  P  P195  1  0.05313918  0.24932567  0.85993680  1
  P  P196  1  0.05451736  0.58248076  0.11109154  1
  P  P197  1  0.05382793  0.58272459  0.35903984  1
  P  P198  1  0.05317857  0.58244091  0.61166985  1
  P  P199  1  0.05263492  0.58438869  0.85976856  1
  P  P200  1  0.05181278  0.91742515  0.10913245  1
  P  P201  1  0.05233475  0.91681147  0.36003542  1
  P  P202  1  0.05315751  0.91761931  0.61012338  1
  P  P203  1  0.05453487  0.91635458  0.86097177  1
  P  P204  1  0.55543280  0.24973921  0.11137727  1
  P  P205  1  0.55595826  0.24956767  0.36057517  1
  P  P206  1  0.55594042  0.24914079  0.61086781  1
  P  P207  1  0.55286983  0.25139419  0.85963397  1
  P  P208  1  0.55403961  0.58338610  0.11089409  1
  P  P209  1  0.55457818  0.58366637  0.35948432  1
  P  P210  1  0.55484665  0.58319796  0.61159558  1
  P  P211  1  0.55459590  0.58274013  0.85944992  1
  P  P212  1  0.55494958  0.91664351  0.10883623  1
  P  P213  1  0.55459135  0.91649791  0.35996849  1
  P  P214  1  0.55205923  0.91744512  0.61092120  1
  P  P215  1  0.55415054  0.91599011  0.86166122  1
  P  P216  1  0.44895204  0.08294919  0.13979849  1
  P  P217  1  0.44899324  0.08349910  0.38978239  1
  P  P218  1  0.44770649  0.08284303  0.64097201  1
  P  P219  1  0.44525323  0.08397212  0.88896950  1
  P  P220  1  0.44477699  0.41750694  0.13988415  1
  P  P221  1  0.44493334  0.41657980  0.38958567  1
  P  P222  1  0.44473523  0.41650807  0.63936422  1
  P  P223  1  0.44614054  0.41596767  0.88924487  1
  P  P224  1  0.44862179  0.74944264  0.13937515  1
  P  P225  1  0.44931266  0.74978353  0.38973727  1
  P  P226  1  0.44607433  0.75068803  0.64122707  1
  P  P227  1  0.44686261  0.74997805  0.88893535  1
  P  P228  1  0.94522887  0.08224291  0.13907102  1
  P  P229  1  0.94358817  0.08487976  0.38950997  1
  P  P230  1  0.94580128  0.08350477  0.63955500  1
  P  P231  1  0.94542098  0.08344220  0.88902030  1
  P  P232  1  0.94570423  0.41662090  0.13929377  1
  P  P233  1  0.94635192  0.41609969  0.38859705  1
  P  P234  1  0.94719595  0.41727147  0.64094359  1
  P  P235  1  0.94449940  0.41775655  0.88935562  1
  P  P236  1  0.94399388  0.75108237  0.13914724  1
  P  P237  1  0.94447381  0.74954915  0.38942241  1
  P  P238  1  0.94442932  0.74932204  0.63965550  1
  P  P239  1  0.94568923  0.74899667  0.88944458  1
  P  P240  1  0.19563147  0.08336086  0.23373435  1
  P  P241  1  0.19572550  0.08332524  0.48605234  1
  P  P242  1  0.19645948  0.08352117  0.73597634  1
  P  P243  1  0.19371056  0.08221126  0.98523893  1
  P  P244  1  0.19515361  0.41704689  0.23532689  1
  P  P245  1  0.19525423  0.41668832  0.48542042  1
  P  P246  1  0.19727485  0.41770759  0.73502835  1
  P  P247  1  0.19691032  0.41679727  0.98617900  1
  P  P248  1  0.19656604  0.74921738  0.23455193  1
  P  P249  1  0.19712157  0.75009459  0.48487215  1
  P  P250  1  0.19650032  0.74904388  0.73655368  1
  P  P251  1  0.19533805  0.75100078  0.98398248  1
  P  P252  1  0.69640472  0.08437801  0.23577914  1
  P  P253  1  0.69559445  0.08348433  0.48594082  1
  P  P254  1  0.69720051  0.08410044  0.73456037  1
  P  P255  1  0.69705502  0.08232741  0.98644456  1
  P  P256  1  0.69822931  0.41685841  0.23514243  1
  P  P257  1  0.69705033  0.41626817  0.48534128  1
  P  P258  1  0.69668234  0.41682256  0.73659501  1
  P  P259  1  0.69707663  0.41684728  0.98414255  1
  P  P260  1  0.69599962  0.74865312  0.23535020  1
  P  P261  1  0.69775665  0.75002573  0.48502753  1
  P  P262  1  0.69691478  0.74913578  0.73678541  1
  P  P263  1  0.69610167  0.75074995  0.98560914  1
  P  P264  1  0.30507698  0.25063683  0.01379996  1
  P  P265  1  0.30289991  0.25041256  0.26494319  1
  P  P266  1  0.30343141  0.25076498  0.51490156  1
  P  P267  1  0.30438381  0.25009799  0.76559661  1
  P  P268  1  0.30475908  0.58282778  0.01568481  1
  P  P269  1  0.30354118  0.58267631  0.26349114  1
  P  P270  1  0.30336291  0.58247621  0.51475489  1
  P  P271  1  0.30198934  0.58306942  0.76519446  1
  P  P272  1  0.30285631  0.91640090  0.01368975  1
  P  P273  1  0.30313433  0.91689238  0.26463256  1
  P  P274  1  0.30450361  0.91687258  0.51596251  1
  P  P275  1  0.30622144  0.91699785  0.76460769  1
  P  P276  1  0.80353759  0.25002815  0.01486658  1
  P  P277  1  0.80309637  0.25023801  0.26522659  1
  P  P278  1  0.80330233  0.24941767  0.51393383  1
  P  P279  1  0.80186409  0.24959596  0.76454962  1
  P  P280  1  0.80493897  0.58348032  0.01318788  1
  P  P281  1  0.80213433  0.58301106  0.26458170  1
  P  P282  1  0.80458676  0.58400201  0.51603112  1
  P  P283  1  0.80473026  0.58309212  0.76450385  1
  P  P284  1  0.80310541  0.91649955  0.01575542  1
  P  P285  1  0.80473525  0.91671485  0.26313261  1
  P  P286  1  0.80294969  0.91668044  0.51518264  1
  P  P287  1  0.80342615  0.91692670  0.76498513  1
  O  O288  1  0.05546820  0.25024566  0.18648714  1
  O  O289  1  0.05504942  0.25003427  0.43651009  1
  O  O290  1  0.05661193  0.25007686  0.68727614  1
  O  O291  1  0.05605733  0.24998808  0.93661408  1
  O  O292  1  0.05873994  0.58311383  0.18771927  1
  O  O293  1  0.05623285  0.58341181  0.43589743  1
  O  O294  1  0.05817574  0.58327376  0.68829967  1
  O  O295  1  0.05634895  0.58368520  0.93646998  1
  O  O296  1  0.05502926  0.91679480  0.18590222  1
  O  O297  1  0.05601957  0.91656110  0.43669996  1
  O  O298  1  0.05669389  0.91699952  0.68701540  1
  O  O299  1  0.05762347  0.91615219  0.93748416  1
  O  O300  1  0.56014352  0.25063744  0.18808991  1
  O  O301  1  0.55982878  0.25060175  0.43739819  1
  O  O302  1  0.55990083  0.25046336  0.68767149  1
  O  O303  1  0.55653819  0.25079304  0.93633684  1
  O  O304  1  0.55915556  0.58241594  0.18754049  1
  O  O305  1  0.55747494  0.58264483  0.43628881  1
  O  O306  1  0.55988399  0.58273599  0.68827836  1
  O  O307  1  0.55697669  0.58269582  0.93619238  1
  O  O308  1  0.55775460  0.91674502  0.18567908  1
  O  O309  1  0.55686305  0.91647247  0.43672733  1
  O  O310  1  0.55573355  0.91679250  0.68763718  1
  O  O311  1  0.55964268  0.91655731  0.93812522  1
  O  O312  1  0.44415077  0.08337874  0.06313532  1
  O  O313  1  0.44477572  0.08397462  0.31315692  1
  O  O314  1  0.44462298  0.08377352  0.56423530  1
  O  O315  1  0.44145963  0.08391886  0.81240547  1
  O  O316  1  0.44123406  0.41678087  0.06304431  1
  O  O317  1  0.44040741  0.41651333  0.31283729  1
  O  O318  1  0.44040897  0.41672642  0.56267909  1
  O  O319  1  0.44120000  0.41690229  0.81252735  1
  O  O320  1  0.44443410  0.74968650  0.06273318  1
  O  O321  1  0.44527237  0.74950199  0.31306767  1
  O  O322  1  0.44360942  0.74932726  0.56441159  1
  O  O323  1  0.44142115  0.74928119  0.81235960  1
  O  O324  1  0.94075674  0.08301875  0.06230716  1
  O  O325  1  0.93949289  0.08406093  0.31268410  1
  O  O326  1  0.94036430  0.08345876  0.56291475  1
  O  O327  1  0.94017517  0.08353164  0.81241809  1
  O  O328  1  0.94066002  0.41681212  0.06265726  1
  O  O329  1  0.94110300  0.41674048  0.31194534  1
  O  O330  1  0.94386373  0.41662257  0.56417965  1
  O  O331  1  0.94020059  0.41650271  0.81261619  1
  O  O332  1  0.94009400  0.75004703  0.06236076  1
  O  O333  1  0.93993929  0.74949492  0.31264560  1
  O  O334  1  0.94046385  0.75015520  0.56287380  1
  O  O335  1  0.94087798  0.75003772  0.81273678  1
  O  O336  1  0.18906932  0.08291899  0.06198776  1
  O  O337  1  0.19249312  0.08348327  0.31054804  1
  O  O338  1  0.19106926  0.08360061  0.56281988  1
  O  O339  1  0.19110029  0.08339319  0.81258094  1
  O  O340  1  0.19160214  0.41644663  0.06275891  1
  O  O341  1  0.19045216  0.41612035  0.31207332  1
  O  O342  1  0.19050414  0.41657715  0.56209741  1
  O  O343  1  0.19354733  0.41702421  0.81174229  1
  O  O344  1  0.19208999  0.75054865  0.06074310  1
  O  O345  1  0.19342217  0.74979691  0.31129409  1
  O  O346  1  0.19371711  0.75024322  0.56168277  1
  O  O347  1  0.19119199  0.74963885  0.81309900  1
  O  O348  1  0.69244518  0.08302205  0.06288377  1
  O  O349  1  0.69213774  0.08328369  0.31252828  1
  O  O350  1  0.69098427  0.08243721  0.56254565  1
  O  O351  1  0.69367430  0.08326999  0.81172301  1
  O  O352  1  0.69301432  0.41701221  0.06080095  1
  O  O353  1  0.69450762  0.41711443  0.31177326  1
  O  O354  1  0.69392518  0.41671398  0.56208709  1
  O  O355  1  0.69209421  0.41677561  0.81322671  1
  O  O356  1  0.69156645  0.74972611  0.06230925  1
  O  O357  1  0.69177163  0.74953308  0.31208993  1
  O  O358  1  0.69384719  0.75020875  0.56171239  1
  O  O359  1  0.69179145  0.74998609  0.81347118  1
  O  O360  1  0.30613373  0.24946187  0.18815214  1
  O  O361  1  0.30666625  0.24966545  0.43818530  1
  O  O362  1  0.30690488  0.24965632  0.68878149  1
  O  O363  1  0.30940554  0.25006909  0.93712469  1
  O  O364  1  0.30859566  0.58393213  0.18690789  1
  O  O365  1  0.30644273  0.58314735  0.43796297  1
  O  O366  1  0.30545354  0.58335462  0.68859535  1
  O  O367  1  0.30790394  0.58351219  0.93889254  1
  O  O368  1  0.30660553  0.91683770  0.18784824  1
  O  O369  1  0.30746028  0.91708942  0.43914301  1
  O  O370  1  0.30997692  0.91730107  0.68780166  1
  O  O371  1  0.30873409  0.91642842  0.93708889  1
  O  O372  1  0.80648920  0.25015570  0.18863466  1
  O  O373  1  0.80789345  0.25051291  0.43731370  1
  O  O374  1  0.80512408  0.24965958  0.68791728  1
  O  O375  1  0.80620149  0.24976430  0.93793705  1
  O  O376  1  0.80561017  0.58299051  0.18777281  1
  O  O377  1  0.80713030  0.58276678  0.43923264  1
  O  O378  1  0.80889287  0.58304545  0.68781428  1
  O  O379  1  0.80860816  0.58378097  0.93646867  1
  O  O380  1  0.80816011  0.91693927  0.18654020  1
  O  O381  1  0.80520097  0.91681759  0.43816655  1
  O  O382  1  0.80619110  0.91670362  0.68867661  1
  O  O383  1  0.80646019  0.91660792  0.93842963  1
  O  O384  1  0.23499982  0.25041650  0.03778262  1
  O  O385  1  0.23327615  0.25039788  0.29014760  1
  O  O386  1  0.23385269  0.25029756  0.54024406  1
  O  O387  1  0.23477370  0.25051577  0.79115445  1
  O  O388  1  0.23489698  0.58315811  0.04023191  1
  O  O389  1  0.23324432  0.58236298  0.28724788  1
  O  O390  1  0.23373443  0.58310537  0.54001299  1
  O  O391  1  0.23211822  0.58274372  0.79042414  1
  O  O392  1  0.23233511  0.91653209  0.03644980  1
  O  O393  1  0.23345687  0.91672522  0.28966961  1
  O  O394  1  0.23493576  0.91681313  0.54142796  1
  O  O395  1  0.23601108  0.91672474  0.78847790  1
  O  O396  1  0.73402562  0.25001880  0.04025285  1
  O  O397  1  0.73302933  0.25020546  0.28994259  1
  O  O398  1  0.73303939  0.24949660  0.53777345  1
  O  O399  1  0.73200792  0.24999923  0.78989119  1
  O  O400  1  0.73508555  0.58336602  0.03780304  1
  O  O401  1  0.73233574  0.58327000  0.28962042  1
  O  O402  1  0.73501191  0.58324924  0.54149523  1
  O  O403  1  0.73446003  0.58338030  0.78862015  1
  O  O404  1  0.73326899  0.91632112  0.04029669  1
  O  O405  1  0.73490053  0.91665541  0.28814287  1
  O  O406  1  0.73361470  0.91623353  0.54117715  1
  O  O407  1  0.73386705  0.91706972  0.79083186  1
  O  O408  1  0.26528395  0.08328171  0.20843041  1
  O  O409  1  0.26580594  0.08344853  0.46217245  1
  O  O410  1  0.26713865  0.08348279  0.71325080  1
  O  O411  1  0.26402961  0.08275766  0.96190176  1
  O  O412  1  0.26559706  0.41665126  0.21193159  1
  O  O413  1  0.26558760  0.41680351  0.46175145  1
  O  O414  1  0.26741509  0.41685604  0.71076597  1
  O  O415  1  0.26736873  0.41719347  0.96295679  1
  O  O416  1  0.26616670  0.75003283  0.20910768  1
  O  O417  1  0.26675173  0.74957474  0.45972702  1
  O  O418  1  0.26698778  0.74979201  0.71330756  1
  O  O419  1  0.26521140  0.75008233  0.95934327  1
  O  O420  1  0.76684975  0.08395798  0.21218610  1
  O  O421  1  0.76592612  0.08344055  0.46213107  1
  O  O422  1  0.76719881  0.08351862  0.71021689  1
  O  O423  1  0.76738260  0.08303914  0.96256167  1
  O  O424  1  0.76822382  0.41653414  0.21026442  1
  O  O425  1  0.76674081  0.41675622  0.46033382  1
  O  O426  1  0.76700023  0.41637323  0.71253650  1
  O  O427  1  0.76732610  0.41676799  0.96028858  1
  O  O428  1  0.76636510  0.74927525  0.21159706  1
  O  O429  1  0.76780889  0.74990525  0.46060835  1
  O  O430  1  0.76738234  0.74911629  0.71358981  1
  O  O431  1  0.76662905  0.75029782  0.96222206  1
  O  O432  1  0.01558727  0.08333147  0.16278443  1
  O  O433  1  0.01362169  0.08378076  0.41349943  1
  O  O434  1  0.01631134  0.08371913  0.66274403  1
  O  O435  1  0.01583235  0.08293986  0.91204411  1
  O  O436  1  0.01608992  0.41628380  0.16258379  1
  O  O437  1  0.01669063  0.41678539  0.41219690  1
  O  O438  1  0.01715903  0.41689555  0.66571162  1
  O  O439  1  0.01458590  0.41727802  0.91329887  1
  O  O440  1  0.01402014  0.75069536  0.16323595  1
  O  O441  1  0.01445411  0.74924521  0.41350620  1
  O  O442  1  0.01452983  0.75011996  0.66375584  1
  O  O443  1  0.01594789  0.74965888  0.91302040  1
  O  O444  1  0.51918617  0.08283341  0.16354011  1
  O  O445  1  0.51910224  0.08310615  0.41404414  1
  O  O446  1  0.51764100  0.08342211  0.66603718  1
  O  O447  1  0.51549807  0.08410697  0.91332822  1
  O  O448  1  0.51481403  0.41663244  0.16418093  1
  O  O449  1  0.51509503  0.41666489  0.41334442  1
  O  O450  1  0.51493908  0.41608099  0.66307884  1
  O  O451  1  0.51656370  0.41692743  0.91284936  1
  O  O452  1  0.51885311  0.75007913  0.16337833  1
  O  O453  1  0.51928595  0.74987261  0.41446125  1
  O  O454  1  0.51577064  0.75077074  0.66652953  1
  O  O455  1  0.51740980  0.74916615  0.91204785  1
  O  O456  1  0.48533540  0.25031585  0.08749628  1
  O  O457  1  0.48599495  0.24984634  0.33622040  1
  O  O458  1  0.48587756  0.24953864  0.58674451  1
  O  O459  1  0.48290601  0.25040678  0.83511850  1
  O  O460  1  0.48374635  0.58329867  0.08715417  1
  O  O461  1  0.48489842  0.58353888  0.33432777  1
  O  O462  1  0.48477036  0.58361777  0.58791299  1
  O  O463  1  0.48492753  0.58292362  0.83404572  1
  O  O464  1  0.48533900  0.91629346  0.08340446  1
  O  O465  1  0.48527346  0.91663398  0.33371771  1
  O  O466  1  0.48222104  0.91689726  0.58599896  1
  O  O467  1  0.48366968  0.91670982  0.83858012  1
  O  O468  1  0.98344638  0.24983485  0.08411244  1
  O  O469  1  0.98135212  0.25026036  0.33488234  1
  O  O470  1  0.98363787  0.25049538  0.58536457  1
  O  O471  1  0.98340163  0.24970066  0.83466573  1
  O  O472  1  0.98437337  0.58329028  0.08702109  1
  O  O473  1  0.98421523  0.58294276  0.33358007  1
  O  O474  1  0.98289466  0.58264077  0.58781097  1
  O  O475  1  0.98247771  0.58373762  0.83554427  1
  O  O476  1  0.98182651  0.91666003  0.08427398  1
  O  O477  1  0.98244545  0.91746750  0.33544720  1
  O  O478  1  0.98355074  0.91701733  0.58524048  1
  O  O479  1  0.98441544  0.91684870  0.83599266  1
  O  O480  1  0.08704445  0.31536153  0.07741365  1
  O  O481  1  0.08520856  0.31552984  0.32733190  1
  O  O482  1  0.08727494  0.31567600  0.57849226  1
  O  O483  1  0.08729823  0.31445134  0.82768634  1
  O  O484  1  0.08808849  0.64742726  0.07785686  1
  O  O485  1  0.08835042  0.64752749  0.32653465  1
  O  O486  1  0.08637774  0.64738950  0.57794151  1
  O  O487  1  0.08614733  0.64951190  0.82692696  1
  O  O488  1  0.08554477  0.98260621  0.07674801  1
  O  O489  1  0.08637666  0.98173953  0.32745651  1
  O  O490  1  0.08688788  0.98291905  0.57799964  1
  O  O491  1  0.08840681  0.98133784  0.82820619  1
  O  O492  1  0.58884371  0.31469834  0.07791663  1
  O  O493  1  0.58973749  0.31441384  0.32709895  1
  O  O494  1  0.58982660  0.31375616  0.57718957  1
  O  O495  1  0.58648464  0.31650213  0.82692601  1
  O  O496  1  0.58745394  0.64845407  0.07783674  1
  O  O497  1  0.58897189  0.64873561  0.32760646  1
  O  O498  1  0.58844659  0.64833698  0.57878382  1
  O  O499  1  0.58922402  0.64768532  0.82736656  1
  O  O500  1  0.58922763  0.98174285  0.07663173  1
  O  O501  1  0.58911742  0.98158890  0.32793358  1
  O  O502  1  0.58582527  0.98263262  0.57862053  1
  O  O503  1  0.58730751  0.98114430  0.82797001  1
  O  O504  1  0.41541081  0.01779395  0.17242675  1
  O  O505  1  0.41504127  0.01851139  0.42232129  1
  O  O506  1  0.41371789  0.01777183  0.67320934  1
  O  O507  1  0.41198183  0.01878449  0.92214191  1
  O  O508  1  0.41053353  0.35288736  0.17308900  1
  O  O509  1  0.41143161  0.35159772  0.42282325  1
  O  O510  1  0.41112819  0.35156085  0.67249624  1
  O  O511  1  0.41321944  0.35066507  0.92238832  1
  O  O512  1  0.41528920  0.68434388  0.17248847  1
  O  O513  1  0.41550573  0.68480385  0.42264916  1
  O  O514  1  0.41177885  0.68585161  0.67416342  1
  O  O515  1  0.41356145  0.68500276  0.92237705  1
  O  O516  1  0.91230539  0.01693664  0.17197652  1
  O  O517  1  0.90929493  0.02026770  0.42289962  1
  O  O518  1  0.91262101  0.01865096  0.67322379  1
  O  O519  1  0.91197945  0.01843702  0.92268863  1
  O  O520  1  0.91212459  0.35182258  0.17267945  1
  O  O521  1  0.91342778  0.35090337  0.42197220  1
  O  O522  1  0.91287324  0.35240766  0.67369158  1
  O  O523  1  0.91057482  0.35293590  0.92272301  1
  O  O524  1  0.91024066  0.68621156  0.17269896  1
  O  O525  1  0.91069931  0.68468124  0.42244550  1
  O  O526  1  0.91131600  0.68389485  0.67245512  1
  O  O527  1  0.91242228  0.68395614  0.92244879  1
  O  O528  1  0.16100672  0.01850510  0.20140558  1
  O  O529  1  0.16228718  0.01830111  0.45297400  1
  O  O530  1  0.16329267  0.01861039  0.70225762  1
  O  O531  1  0.16052238  0.01711492  0.95208824  1
  O  O532  1  0.16166654  0.35221309  0.20163222  1
  O  O533  1  0.16189947  0.35170599  0.45191130  1
  O  O534  1  0.16307476  0.35295807  0.70196124  1
  O  O535  1  0.16388330  0.35196854  0.95226646  1
  O  O536  1  0.16275984  0.68390405  0.20237766  1
  O  O537  1  0.16265790  0.68513896  0.45274728  1
  O  O538  1  0.16361749  0.68379762  0.70323358  1
  O  O539  1  0.16088227  0.68603341  0.95154673  1
  O  O540  1  0.66300166  0.01952426  0.20207741  1
  O  O541  1  0.66237179  0.01854784  0.45216055  1
  O  O542  1  0.66298025  0.01929495  0.70190637  1
  O  O543  1  0.66415106  0.01711103  0.95307059  1
  O  O544  1  0.66432256  0.35176004  0.20265378  1
  O  O545  1  0.66315830  0.35118615  0.45298631  1
  O  O546  1  0.66305893  0.35191215  0.70346587  1
  O  O547  1  0.66322261  0.35189787  0.95127957  1
  O  O548  1  0.66286206  0.68350790  0.20227659  1
  O  O549  1  0.66388178  0.68502922  0.45229473  1
  O  O550  1  0.66379332  0.68411787  0.70363276  1
  O  O551  1  0.66262402  0.68602093  0.95188334  1
  O  O552  1  0.33858499  0.31573893  0.04661853  1
  O  O553  1  0.33704359  0.31566200  0.29680344  1
  O  O554  1  0.33729663  0.31611987  0.54684293  1
  O  O555  1  0.33886761  0.31524510  0.79751240  1
  O  O556  1  0.33891190  0.64784936  0.04836644  1
  O  O557  1  0.33667834  0.64765801  0.29731311  1
  O  O558  1  0.33786059  0.64727491  0.54730052  1
  O  O559  1  0.33593351  0.64803001  0.79807440  1
  O  O560  1  0.33600620  0.98130560  0.04742423  1
  O  O561  1  0.33709313  0.98202581  0.29709792  1
  O  O562  1  0.33892495  0.98182237  0.54842306  1
  O  O563  1  0.33954305  0.98210289  0.79779599  1
  O  O564  1  0.83756844  0.31533198  0.04670845  1
  O  O565  1  0.83702222  0.31529186  0.29798534  1
  O  O566  1  0.83659558  0.31428362  0.54768318  1
  O  O567  1  0.83625292  0.31447413  0.79698977  1
  O  O568  1  0.83846592  0.64850022  0.04629001  1
  O  O569  1  0.83623438  0.64798068  0.29697201  1
  O  O570  1  0.83845384  0.64939605  0.54781293  1
  O  O571  1  0.83845498  0.64794759  0.79783100  1
  O  O572  1  0.83722233  0.98143271  0.04792910  1
  O  O573  1  0.83818604  0.98187510  0.29612436  1
  O  O574  1  0.83703324  0.98193639  0.54708268  1
  O  O575  1  0.83767128  0.98214021  0.79720948  1
  O  O576  1  0.41552199  0.14789496  0.17315722  1
  O  O577  1  0.41561662  0.14849436  0.42316490  1
  O  O578  1  0.41327065  0.14764441  0.67371986  1
  O  O579  1  0.41196521  0.14915845  0.92189428  1
  O  O580  1  0.41151617  0.48292723  0.17240704  1
  O  O581  1  0.41132064  0.48158263  0.42267706  1
  O  O582  1  0.41146231  0.48141233  0.67305363  1
  O  O583  1  0.41230869  0.48072204  0.92279029  1
  O  O584  1  0.41487881  0.81444677  0.17223727  1
  O  O585  1  0.41533413  0.81484122  0.42215389  1
  O  O586  1  0.41174809  0.81586583  0.67282117  1
  O  O587  1  0.41416363  0.81517907  0.92247766  1
  O  O588  1  0.91130534  0.14688280  0.17261183  1
  O  O589  1  0.91054562  0.15026182  0.42230063  1
  O  O590  1  0.91243914  0.14846972  0.67308344  1
  O  O591  1  0.91230553  0.14836541  0.92271040  1
  O  O592  1  0.91255762  0.48163499  0.17305398  1
  O  O593  1  0.91300632  0.48099791  0.42214569  1
  O  O594  1  0.91301563  0.48218203  0.67333812  1
  O  O595  1  0.91127447  0.48306498  0.92203867  1
  O  O596  1  0.91047175  0.81626038  0.17159964  1
  O  O597  1  0.91091411  0.81463434  0.42262215  1
  O  O598  1  0.91035252  0.81386957  0.67313453  1
  O  O599  1  0.91193853  0.81395531  0.92301542  1
  O  O600  1  0.08727202  0.18503386  0.07777829  1
  O  O601  1  0.08510820  0.18550479  0.32708259  1
  O  O602  1  0.08719810  0.18522079  0.57790358  1
  O  O603  1  0.08702703  0.18420492  0.82770243  1
  O  O604  1  0.08743988  0.51713184  0.07800890  1
  O  O605  1  0.08816605  0.51759279  0.32714806  1
  O  O606  1  0.08636656  0.51715511  0.57876898  1
  O  O607  1  0.08682732  0.51956702  0.82682228  1
  O  O608  1  0.08631440  0.85270105  0.07636792  1
  O  O609  1  0.08561361  0.85157623  0.32707521  1
  O  O610  1  0.08731635  0.85251244  0.57777748  1
  O  O611  1  0.08772841  0.85109327  0.82790567  1
  O  O612  1  0.58855579  0.18445607  0.07835559  1
  O  O613  1  0.58975130  0.18438679  0.32823391  1
  O  O614  1  0.58934528  0.18366000  0.57868832  1
  O  O615  1  0.58741506  0.18651266  0.82695202  1
  O  O616  1  0.58722061  0.51838998  0.07725451  1
  O  O617  1  0.58872545  0.51877917  0.32644032  1
  O  O618  1  0.58789875  0.51816145  0.57799844  1
  O  O619  1  0.58879661  0.51762660  0.82716380  1
  O  O620  1  0.58956040  0.85163465  0.07689339  1
  O  O621  1  0.58903209  0.85142570  0.32792857  1
  O  O622  1  0.58627348  0.85260216  0.57817466  1
  O  O623  1  0.58688210  0.85089732  0.82799958  1
  O  O624  1  0.33837478  0.18555251  0.04727573  1
  O  O625  1  0.33706406  0.18541206  0.29753015  1
  O  O626  1  0.33792025  0.18602840  0.54772157  1
  O  O627  1  0.33855841  0.18511299  0.79804134  1
  O  O628  1  0.33885846  0.51782487  0.04790199  1
  O  O629  1  0.33687102  0.51746325  0.29641194  1
  O  O630  1  0.33710474  0.51718256  0.54695809  1
  O  O631  1  0.33620839  0.51796052  0.79749538  1
  O  O632  1  0.33585929  0.85130045  0.04721100  1
  O  O633  1  0.33742784  0.85185084  0.29696994  1
  O  O634  1  0.33893897  0.85182340  0.54803618  1
  O  O635  1  0.33983611  0.85185785  0.79755248  1
  O  O636  1  0.83769153  0.18502167  0.04712898  1
  O  O637  1  0.83691751  0.18520756  0.29797121  1
  O  O638  1  0.83651170  0.18422707  0.54690581  1
  O  O639  1  0.83561292  0.18441512  0.79706709  1
  O  O640  1  0.83856268  0.51827077  0.04593858  1
  O  O641  1  0.83602422  0.51793820  0.29713063  1
  O  O642  1  0.83940248  0.51936995  0.54874443  1
  O  O643  1  0.83806558  0.51793891  0.79750350  1
  O  O644  1  0.83722429  0.85148924  0.04769843  1
  O  O645  1  0.83824843  0.85145213  0.29585793  1
  O  O646  1  0.83761154  0.85175027  0.54686592  1
  O  O647  1  0.83757831  0.85180769  0.79771900  1
  O  O648  1  0.16128368  0.14840840  0.20142353  1
  O  O649  1  0.16212785  0.14827718  0.45276187  1
  O  O650  1  0.16337945  0.14856214  0.70243427  1
  O  O651  1  0.16023821  0.14716408  0.95172740  1
  O  O652  1  0.16196290  0.48217435  0.20221057  1
  O  O653  1  0.16177296  0.48160867  0.45210037  1
  O  O654  1  0.16357952  0.48286004  0.70244368  1
  O  O655  1  0.16359671  0.48180937  0.95282513  1
  O  O656  1  0.16188994  0.81402284  0.20212096  1
  O  O657  1  0.16321838  0.81518007  0.45237218  1
  O  O658  1  0.16323958  0.81394696  0.70277645  1
  O  O659  1  0.16144717  0.81597870  0.95144766  1
  O  O660  1  0.66330803  0.14958260  0.20294689  1
  O  O661  1  0.66223948  0.14860714  0.45292644  1
  O  O662  1  0.66334487  0.14919390  0.70263463  1
  O  O663  1  0.66334005  0.14710947  0.95277783  1
  O  O664  1  0.66453838  0.48188047  0.20217218  1
  O  O665  1  0.66286007  0.48119534  0.45285640  1
  O  O666  1  0.66379241  0.48206992  0.70326028  1
  O  O667  1  0.66338834  0.48172507  0.95109371  1
  O  O668  1  0.66249967  0.81357683  0.20183287  1
  O  O669  1  0.66398872  0.81494972  0.45200944  1
  O  O670  1  0.66406405  0.81425420  0.70304676  1
  O  O671  1  0.66306964  0.81600547  0.95264678  1
