# generated using pymatgen
data_Na2MnFe(PO4)2
_symmetry_space_group_name_H-M   'P 1'
_cell_length_a   21.08264916
_cell_length_b   18.93403506
_cell_length_c   20.04149833
_cell_angle_alpha   89.99990762
_cell_angle_beta   90.00188817
_cell_angle_gamma   89.99942642
_symmetry_Int_Tables_number   1
_chemical_formula_structural   Na2MnFe(PO4)2
_chemical_formula_sum   'Na96 Mn48 Fe48 P96 O384'
_cell_volume   8000.15764884
_cell_formula_units_Z   48
loop_
 _symmetry_equiv_pos_site_id
 _symmetry_equiv_pos_as_xyz
  1  'x, y, z'
loop_
 _atom_site_type_symbol
 _atom_site_label
 _atom_site_symmetry_multiplicity
 _atom_site_fract_x
 _atom_site_fract_y
 _atom_site_fract_z
 _atom_site_occupancy
  Na  Na0  1  -0.00227774  -0.00073073  -0.00099202  1
  Na  Na1  1  -0.00213934  -0.00034009  0.24962661  1
  Na  Na2  1  -0.00219201  -0.00039812  0.50076836  1
  Na  Na3  1  -0.00195729  -0.00051995  0.75065161  1
  Na  Na4  1  0.00240659  0.33467333  -0.00107970  1
  Na  Na5  1  0.00042446  0.33336254  0.25079775  1
  Na  Na6  1  -0.00047539  0.33342610  0.49987611  1
  Na  Na7  1  -0.00191895  0.33274857  0.74992674  1
  Na  Na8  1  0.00109770  0.66735305  -0.00058362  1
  Na  Na9  1  -0.00046364  0.66692917  0.25091113  1
  Na  Na10  1  -0.00253649  0.66577477  0.50040454  1
  Na  Na11  1  0.00109215  0.66791701  0.74876844  1
  Na  Na12  1  0.49853858  0.00002403  -0.00030443  1
  Na  Na13  1  0.50060383  0.00064088  0.24954534  1
  Na  Na14  1  0.50167407  0.00050620  0.50026505  1
  Na  Na15  1  0.49969096  0.00007333  0.75033680  1
  Na  Na16  1  0.50229366  0.33372375  0.00002725  1
  Na  Na17  1  0.49871240  0.33234955  0.25107581  1
  Na  Na18  1  0.49931444  0.33315177  0.50010974  1
  Na  Na19  1  0.49990518  0.33240898  0.74957004  1
  Na  Na20  1  0.50255194  0.66720155  -0.00031794  1
  Na  Na21  1  0.50214379  0.66695620  0.24940874  1
  Na  Na22  1  0.50021005  0.66672614  0.50077167  1
  Na  Na23  1  0.50138189  0.66735636  0.75041716  1
  Na  Na24  1  0.24919895  0.00002972  0.12392613  1
  Na  Na25  1  0.25089412  0.00085574  0.37543172  1
  Na  Na26  1  0.25079796  -0.00044483  0.62486824  1
  Na  Na27  1  0.25115592  0.00021038  0.87591184  1
  Na  Na28  1  0.24849352  0.33305623  0.12512116  1
  Na  Na29  1  0.25041497  0.33399382  0.37453205  1
  Na  Na30  1  0.25085939  0.33345942  0.62578123  1
  Na  Na31  1  0.24891670  0.33269123  0.87455345  1
  Na  Na32  1  0.24847380  0.66684007  0.12459526  1
  Na  Na33  1  0.25061994  0.66683093  0.37467369  1
  Na  Na34  1  0.25217843  0.66762885  0.62592705  1
  Na  Na35  1  0.24803500  0.66678048  0.87546852  1
  Na  Na36  1  0.75217634  0.00042081  0.12500206  1
  Na  Na37  1  0.75102006  0.00039462  0.37498601  1
  Na  Na38  1  0.75015261  -0.00004302  0.62404004  1
  Na  Na39  1  0.75208918  0.00042746  0.87563617  1
  Na  Na40  1  0.75073974  0.33331887  0.12533354  1
  Na  Na41  1  0.75204550  0.33385137  0.37474486  1
  Na  Na42  1  0.75035931  0.33293287  0.62527159  1
  Na  Na43  1  0.74853718  0.33227101  0.87427512  1
  Na  Na44  1  0.75033895  0.66685379  0.12540720  1
  Na  Na45  1  0.75041210  0.66686667  0.37502726  1
  Na  Na46  1  0.74906558  0.66735763  0.62557829  1
  Na  Na47  1  0.74669081  0.66553054  0.87362818  1
  Na  Na48  1  0.00074393  0.16555321  -0.00102124  1
  Na  Na49  1  0.00043245  0.16635777  0.25034420  1
  Na  Na50  1  -0.00037275  0.16661624  0.49932271  1
  Na  Na51  1  -0.00262269  0.16739367  0.75089901  1
  Na  Na52  1  -0.00109264  0.50040150  -0.00126242  1
  Na  Na53  1  -0.00046167  0.49954010  0.25084778  1
  Na  Na54  1  -0.00118042  0.49965499  0.50100338  1
  Na  Na55  1  -0.00103262  0.50004685  0.74897216  1
  Na  Na56  1  0.00150105  0.83300448  -0.00027866  1
  Na  Na57  1  -0.00194273  0.83399184  0.25008064  1
  Na  Na58  1  -0.00319670  0.83436011  0.50100655  1
  Na  Na59  1  -0.00033607  0.83406440  0.74913031  1
  Na  Na60  1  0.50035594  0.16589403  -0.00089852  1
  Na  Na61  1  0.50076802  0.16611515  0.25019712  1
  Na  Na62  1  0.50217355  0.16617544  0.49954567  1
  Na  Na63  1  0.50053660  0.16656169  0.75106349  1
  Na  Na64  1  0.50091472  0.50051616  0.00068290  1
  Na  Na65  1  0.50041882  0.50003686  0.25025929  1
  Na  Na66  1  0.49770086  0.50132354  0.49998295  1
  Na  Na67  1  0.50051345  0.49993488  0.74999583  1
  Na  Na68  1  0.50116821  0.83326637  -0.00042241  1
  Na  Na69  1  0.50111242  0.83293281  0.24978747  1
  Na  Na70  1  0.50054485  0.83291990  0.50140532  1
  Na  Na71  1  0.50055812  0.83280945  0.74946871  1
  Na  Na72  1  0.24895971  0.16630610  0.12459819  1
  Na  Na73  1  0.24872296  0.16743087  0.37516046  1
  Na  Na74  1  0.25165385  0.16609414  0.62550353  1
  Na  Na75  1  0.25088964  0.16580194  0.87466975  1
  Na  Na76  1  0.25021511  0.49910989  0.12511720  1
  Na  Na77  1  0.25049402  0.49969582  0.37529881  1
  Na  Na78  1  0.25178751  0.49956323  0.62479148  1
  Na  Na79  1  0.24904877  0.50062534  0.87540576  1
  Na  Na80  1  0.24727089  0.83432512  0.12381360  1
  Na  Na81  1  0.25109652  0.83279799  0.37462774  1
  Na  Na82  1  0.25144337  0.83263286  0.62575304  1
  Na  Na83  1  0.24896742  0.83332219  0.87595630  1
  Na  Na84  1  0.74973624  0.16591026  0.12563847  1
  Na  Na85  1  0.74847407  0.16679134  0.37531029  1
  Na  Na86  1  0.74838550  0.16674132  0.62477698  1
  Na  Na87  1  0.74919303  0.16613494  0.87442013  1
  Na  Na88  1  0.75055189  0.50049010  0.12492187  1
  Na  Na89  1  0.75126713  0.50034147  0.37474806  1
  Na  Na90  1  0.75265130  0.49879442  0.62491847  1
  Na  Na91  1  0.74951140  0.50072583  0.87477086  1
  Na  Na92  1  0.75295950  0.83284897  0.12519590  1
  Na  Na93  1  0.75263932  0.83265007  0.37503722  1
  Na  Na94  1  0.74874111  0.83381187  0.62514706  1
  Na  Na95  1  0.74902676  0.83417577  0.87425206  1
  Mn  Mn96  1  0.39222742  0.24946162  0.37762855  1
  Mn  Mn97  1  0.89286910  0.25021338  0.12673406  1
  Mn  Mn98  1  0.35708114  0.75024000  0.00220548  1
  Mn  Mn99  1  0.60954134  0.75088707  0.12252171  1
  Mn  Mn100  1  0.60824995  0.41709853  0.37284549  1
  Mn  Mn101  1  0.10682568  0.41626615  0.62282000  1
  Mn  Mn102  1  0.89228408  0.24970534  0.37750803  1
  Mn  Mn103  1  0.39180214  0.91653505  0.12718287  1
  Mn  Mn104  1  0.60857902  0.41709954  0.87247566  1
  Mn  Mn105  1  0.10742359  0.41754239  0.87194095  1
  Mn  Mn106  1  0.89181942  0.58357009  0.37770321  1
  Mn  Mn107  1  0.35853693  0.08377701  0.50252768  1
  Mn  Mn108  1  0.10733913  0.74992964  0.37376227  1
  Mn  Mn109  1  0.39219383  0.25008425  0.12657127  1
  Mn  Mn110  1  0.39263477  0.91699360  0.62792427  1
  Mn  Mn111  1  0.14209792  0.24968275  0.24744306  1
  Mn  Mn112  1  0.10715242  0.08275057  0.87208728  1
  Mn  Mn113  1  0.14080429  0.58318453  0.99794666  1
  Mn  Mn114  1  0.35796737  0.41700786  0.75278720  1
  Mn  Mn115  1  0.64268093  0.58254876  0.49810511  1
  Mn  Mn116  1  0.60864337  0.41582382  0.12348643  1
  Mn  Mn117  1  0.85710004  0.08372138  0.50280206  1
  Mn  Mn118  1  0.10752976  0.75032030  0.62237951  1
  Mn  Mn119  1  0.64308069  0.91670468  0.99760297  1
  Mn  Mn120  1  0.85806731  0.75006266  0.00155207  1
  Mn  Mn121  1  0.35750352  0.41605083  0.00259396  1
  Mn  Mn122  1  0.39275305  0.58341607  0.12712029  1
  Mn  Mn123  1  0.14133063  0.91702768  0.24823030  1
  Mn  Mn124  1  0.39282877  0.91608879  0.37674551  1
  Mn  Mn125  1  0.85767809  0.41632609  0.00261329  1
  Mn  Mn126  1  0.60776087  0.41664599  0.62212343  1
  Mn  Mn127  1  0.14225244  0.24946325  0.74692923  1
  Mn  Mn128  1  0.10722219  0.08365758  0.62381798  1
  Mn  Mn129  1  0.14197895  0.91663185  0.49806888  1
  Mn  Mn130  1  0.64274282  0.25058353  0.24754662  1
  Mn  Mn131  1  0.14281306  0.58299690  0.49851894  1
  Mn  Mn132  1  0.39259963  0.24989400  0.87771194  1
  Mn  Mn133  1  0.85651749  0.75014657  0.75243438  1
  Mn  Mn134  1  0.89190638  0.58470449  0.87632690  1
  Mn  Mn135  1  0.60776491  0.08227635  0.87289045  1
  Mn  Mn136  1  0.14163201  0.58346067  0.24758348  1
  Mn  Mn137  1  0.39272691  0.58383445  0.87742638  1
  Mn  Mn138  1  0.10766365  0.08287498  0.37306519  1
  Mn  Mn139  1  0.64266366  0.91672871  0.49737403  1
  Mn  Mn140  1  0.64369921  0.91631076  0.24770316  1
  Mn  Mn141  1  0.39270497  0.58413042  0.37661558  1
  Mn  Mn142  1  0.35794848  0.75007042  0.25188502  1
  Mn  Mn143  1  0.89114469  0.24970123  0.87762927  1
  Fe  Fe144  1  0.10636716  0.75009307  0.12410736  1
  Fe  Fe145  1  0.14264732  0.25029900  0.49959681  1
  Fe  Fe146  1  0.60768037  0.08316775  0.12310811  1
  Fe  Fe147  1  0.64246401  0.58306016  0.74733051  1
  Fe  Fe148  1  0.89216017  0.91684686  0.37694433  1
  Fe  Fe149  1  0.89184961  0.91708564  0.62794875  1
  Fe  Fe150  1  0.64275703  0.25066814  0.49870613  1
  Fe  Fe151  1  0.85672245  0.74937672  0.50243419  1
  Fe  Fe152  1  0.89234591  0.58368786  0.12625255  1
  Fe  Fe153  1  0.64310324  0.58287614  0.99859104  1
  Fe  Fe154  1  0.35871732  0.74956325  0.50170750  1
  Fe  Fe155  1  0.85787863  0.41662091  0.50178407  1
  Fe  Fe156  1  0.35738418  0.08355218  0.25110103  1
  Fe  Fe157  1  0.39272180  0.58337091  0.62749056  1
  Fe  Fe158  1  0.35644739  0.08342101  0.00223467  1
  Fe  Fe159  1  0.85854069  0.41656937  0.25143152  1
  Fe  Fe160  1  0.14292353  0.58389798  0.74764886  1
  Fe  Fe161  1  0.10736172  0.75035691  0.87260970  1
  Fe  Fe162  1  0.35808265  0.08246737  0.75158883  1
  Fe  Fe163  1  0.35706542  0.41619660  0.25160012  1
  Fe  Fe164  1  0.14308850  0.91660482  0.74859360  1
  Fe  Fe165  1  0.60750192  0.08299158  0.62395734  1
  Fe  Fe166  1  0.10720286  0.41684782  0.12376061  1
  Fe  Fe167  1  0.14220681  0.24938350  0.99836884  1
  Fe  Fe168  1  0.85614867  0.08357794  0.75097463  1
  Fe  Fe169  1  0.64286225  0.24985591  0.99873273  1
  Fe  Fe170  1  0.60842019  0.75035787  0.37356738  1
  Fe  Fe171  1  0.64404090  0.58331529  0.24850317  1
  Fe  Fe172  1  0.85832120  0.74980772  0.25197128  1
  Fe  Fe173  1  0.39252812  0.91612561  0.87638263  1
  Fe  Fe174  1  0.89149036  0.24966397  0.62654569  1
  Fe  Fe175  1  0.89202751  0.58342283  0.62750156  1
  Fe  Fe176  1  0.64242550  0.91714760  0.74848775  1
  Fe  Fe177  1  0.35724868  0.41684500  0.50156455  1
  Fe  Fe178  1  0.14166246  0.91770174  0.99763168  1
  Fe  Fe179  1  0.85771330  0.08372060  0.25151877  1
  Fe  Fe180  1  0.85722814  0.08392352  0.00223244  1
  Fe  Fe181  1  0.39323697  0.25001587  0.62638208  1
  Fe  Fe182  1  0.60644496  0.75004300  0.62305706  1
  Fe  Fe183  1  0.60771978  0.08256079  0.37249758  1
  Fe  Fe184  1  0.10698589  0.08311135  0.12296363  1
  Fe  Fe185  1  0.85628125  0.41613126  0.75133208  1
  Fe  Fe186  1  0.35722065  0.75052414  0.75258900  1
  Fe  Fe187  1  0.89257086  0.91606760  0.87616531  1
  Fe  Fe188  1  0.89352090  0.91631041  0.12624546  1
  Fe  Fe189  1  0.60733796  0.75071935  0.87306354  1
  Fe  Fe190  1  0.64274935  0.24957409  0.74756509  1
  Fe  Fe191  1  0.10751601  0.41682454  0.37385505  1
  P  P192  1  0.05384474  0.24983067  0.10930206  1
  P  P193  1  0.05494769  0.25086068  0.36161902  1
  P  P194  1  0.05159339  0.24965931  0.60962008  1
  P  P195  1  0.05398729  0.24973013  0.86047056  1
  P  P196  1  0.05135029  0.58320269  0.11036232  1
  P  P197  1  0.05332210  0.58247804  0.36082928  1
  P  P198  1  0.05280418  0.58340623  0.61103661  1
  P  P199  1  0.05367163  0.58446481  0.85831501  1
  P  P200  1  0.05264260  0.91705459  0.10960332  1
  P  P201  1  0.05132016  0.91644660  0.36034855  1
  P  P202  1  0.05276590  0.91723493  0.61143426  1
  P  P203  1  0.05375149  0.91625443  0.86002600  1
  P  P204  1  0.55419999  0.24877752  0.10942034  1
  P  P205  1  0.55511943  0.24961146  0.36128369  1
  P  P206  1  0.55429617  0.24913352  0.61063305  1
  P  P207  1  0.55571571  0.24962664  0.86033776  1
  P  P208  1  0.55614881  0.58321220  0.11063994  1
  P  P209  1  0.55491032  0.58435268  0.35954808  1
  P  P210  1  0.55331681  0.58389800  0.61118213  1
  P  P211  1  0.55564861  0.58418106  0.86041070  1
  P  P212  1  0.55381508  0.91784505  0.10975955  1
  P  P213  1  0.55425312  0.91616404  0.35991555  1
  P  P214  1  0.55493875  0.91684863  0.61161458  1
  P  P215  1  0.55290223  0.91624475  0.85945645  1
  P  P216  1  0.44617690  0.08360808  0.13934124  1
  P  P217  1  0.44725329  0.08288927  0.38893365  1
  P  P218  1  0.44781468  0.08436189  0.64057218  1
  P  P219  1  0.44445753  0.08201648  0.88953629  1
  P  P220  1  0.44664320  0.41637861  0.14100827  1
  P  P221  1  0.44510353  0.41680365  0.38965930  1
  P  P222  1  0.44538804  0.41655330  0.63876650  1
  P  P223  1  0.44731509  0.41679248  0.89051042  1
  P  P224  1  0.44756997  0.75002768  0.13978692  1
  P  P225  1  0.44837071  0.74999573  0.39060170  1
  P  P226  1  0.44560064  0.74922432  0.64003196  1
  P  P227  1  0.44669112  0.75087829  0.88896887  1
  P  P228  1  0.94625349  0.08303013  0.13894315  1
  P  P229  1  0.94515788  0.08274360  0.38915315  1
  P  P230  1  0.94527394  0.08380717  0.64091617  1
  P  P231  1  0.94372644  0.08230611  0.88903683  1
  P  P232  1  0.94758310  0.41718283  0.14020635  1
  P  P233  1  0.94602864  0.41659808  0.38994925  1
  P  P234  1  0.94376152  0.41615111  0.63944463  1
  P  P235  1  0.94464563  0.41699369  0.88842134  1
  P  P236  1  0.94699465  0.74998046  0.13989144  1
  P  P237  1  0.94448517  0.75079443  0.39014644  1
  P  P238  1  0.94454478  0.75009278  0.63905303  1
  P  P239  1  0.94781274  0.75100269  0.88922663  1
  P  P240  1  0.19686966  0.08304369  0.23417008  1
  P  P241  1  0.19669778  0.08426606  0.48569947  1
  P  P242  1  0.19821127  0.08181575  0.73528174  1
  P  P243  1  0.19539890  0.08337655  0.98585536  1
  P  P244  1  0.19593191  0.41670256  0.23568232  1
  P  P245  1  0.19713533  0.41581921  0.48514732  1
  P  P246  1  0.19646020  0.41773027  0.73471687  1
  P  P247  1  0.19469630  0.41580288  0.98601283  1
  P  P248  1  0.19570879  0.75036922  0.23426858  1
  P  P249  1  0.19855273  0.74980755  0.48533083  1
  P  P250  1  0.19624404  0.75061974  0.73635672  1
  P  P251  1  0.19339907  0.75092570  0.98573637  1
  P  P252  1  0.69664396  0.08288969  0.23546796  1
  P  P253  1  0.69450782  0.08407616  0.48567818  1
  P  P254  1  0.69676866  0.08246888  0.73467758  1
  P  P255  1  0.69682526  0.08360913  0.98618773  1
  P  P256  1  0.69885651  0.41754537  0.23539359  1
  P  P257  1  0.69847693  0.41601302  0.48508638  1
  P  P258  1  0.69719419  0.41660566  0.73462708  1
  P  P259  1  0.69692676  0.41647680  0.98520542  1
  P  P260  1  0.69795510  0.74969245  0.23643576  1
  P  P261  1  0.69626806  0.74986236  0.48573982  1
  P  P262  1  0.69380899  0.75076213  0.73555875  1
  P  P263  1  0.69663633  0.74947803  0.98394914  1
  P  P264  1  0.30183073  0.24905868  0.01480629  1
  P  P265  1  0.30364260  0.24949337  0.26457057  1
  P  P266  1  0.30301823  0.25098395  0.51563411  1
  P  P267  1  0.30506726  0.24906609  0.76394077  1
  P  P268  1  0.30274117  0.58357769  0.01515338  1
  P  P269  1  0.30321967  0.58258954  0.26474234  1
  P  P270  1  0.30469567  0.58344146  0.51555074  1
  P  P271  1  0.30348100  0.58454195  0.76440265  1
  P  P272  1  0.30286628  0.91723625  0.01352966  1
  P  P273  1  0.30299045  0.91778491  0.26472265  1
  P  P274  1  0.30397363  0.91588252  0.51514401  1
  P  P275  1  0.30322052  0.91620733  0.76586914  1
  P  P276  1  0.80187919  0.24899585  0.01510262  1
  P  P277  1  0.80422341  0.24962007  0.26473851  1
  P  P278  1  0.80252522  0.25033278  0.51547993  1
  P  P279  1  0.80289257  0.24945208  0.76344241  1
  P  P280  1  0.80285342  0.58391956  0.01515751  1
  P  P281  1  0.80465283  0.58341549  0.26366500  1
  P  P282  1  0.80402663  0.58346147  0.51583790  1
  P  P283  1  0.80268405  0.58297961  0.76351208  1
  P  P284  1  0.80574195  0.91712579  0.01420500  1
  P  P285  1  0.80637703  0.91691989  0.26396814  1
  P  P286  1  0.80507976  0.91586807  0.51459950  1
  P  P287  1  0.80341564  0.91749338  0.76429103  1
  O  O288  1  0.05625382  0.24952325  0.18619219  1
  O  O289  1  0.05900843  0.25036705  0.43834182  1
  O  O290  1  0.05573201  0.24969344  0.68637591  1
  O  O291  1  0.05872550  0.24938741  0.93717969  1
  O  O292  1  0.05472286  0.58304680  0.18706586  1
  O  O293  1  0.05652140  0.58287095  0.43760658  1
  O  O294  1  0.05847081  0.58375403  0.68762427  1
  O  O295  1  0.05618008  0.58329863  0.93517670  1
  O  O296  1  0.05564257  0.91752363  0.18634236  1
  O  O297  1  0.05525819  0.91658750  0.43708679  1
  O  O298  1  0.05850786  0.91709962  0.68802585  1
  O  O299  1  0.05826336  0.91738729  0.93674488  1
  O  O300  1  0.55709673  0.24956733  0.18627120  1
  O  O301  1  0.55924833  0.25089265  0.43805731  1
  O  O302  1  0.55912303  0.25000878  0.68740777  1
  O  O303  1  0.56015451  0.24963109  0.93710287  1
  O  O304  1  0.56077584  0.58311909  0.18741614  1
  O  O305  1  0.55748534  0.58323442  0.43640649  1
  O  O306  1  0.55840363  0.58280732  0.68785418  1
  O  O307  1  0.55975070  0.58305252  0.93720727  1
  O  O308  1  0.55752015  0.91721461  0.18648415  1
  O  O309  1  0.55668574  0.91613743  0.43675268  1
  O  O310  1  0.55845442  0.91718350  0.68833374  1
  O  O311  1  0.55690958  0.91716367  0.93613951  1
  O  O312  1  0.44082225  0.08363966  0.06263322  1
  O  O313  1  0.44196695  0.08333384  0.31232660  1
  O  O314  1  0.44451528  0.08370535  0.56379104  1
  O  O315  1  0.44058232  0.08282585  0.81273148  1
  O  O316  1  0.44351219  0.41635335  0.06417354  1
  O  O317  1  0.44062215  0.41647547  0.31290953  1
  O  O318  1  0.44138056  0.41663924  0.56200098  1
  O  O319  1  0.44387276  0.41653173  0.81367757  1
  O  O320  1  0.44367694  0.74996938  0.06302068  1
  O  O321  1  0.44421532  0.74987267  0.31390219  1
  O  O322  1  0.44137570  0.74978924  0.56328638  1
  O  O323  1  0.44178215  0.75022335  0.81228223  1
  O  O324  1  0.94167698  0.08409111  0.06221078  1
  O  O325  1  0.94144408  0.08381700  0.31237631  1
  O  O326  1  0.94281902  0.08390909  0.56408102  1
  O  O327  1  0.93919224  0.08352002  0.81232377  1
  O  O328  1  0.94390737  0.41649571  0.06342454  1
  O  O329  1  0.94131359  0.41643172  0.31321900  1
  O  O330  1  0.94028382  0.41606461  0.56254857  1
  O  O331  1  0.93971174  0.41645232  0.81166754  1
  O  O332  1  0.94399160  0.74967056  0.06316882  1
  O  O333  1  0.94104610  0.74972350  0.31327177  1
  O  O334  1  0.94061364  0.74971863  0.56230661  1
  O  O335  1  0.94341509  0.75058727  0.81258056  1
  O  O336  1  0.19063469  0.08301247  0.06252643  1
  O  O337  1  0.19304159  0.08300413  0.31091731  1
  O  O338  1  0.19344818  0.08332543  0.56244397  1
  O  O339  1  0.19410260  0.08254060  0.81194362  1
  O  O340  1  0.19042065  0.41685897  0.06282390  1
  O  O341  1  0.19122424  0.41704397  0.31235046  1
  O  O342  1  0.19318889  0.41649286  0.56185472  1
  O  O343  1  0.19327338  0.41722103  0.81151380  1
  O  O344  1  0.18885066  0.75013723  0.06250252  1
  O  O345  1  0.19266343  0.75014390  0.31107996  1
  O  O346  1  0.19422583  0.74999603  0.56205972  1
  O  O347  1  0.19155929  0.75042521  0.81305226  1
  O  O348  1  0.69231172  0.08269466  0.06284761  1
  O  O349  1  0.69175582  0.08259006  0.31219788  1
  O  O350  1  0.69057205  0.08307390  0.56245197  1
  O  O351  1  0.69372375  0.08206771  0.81143066  1
  O  O352  1  0.69451358  0.41641343  0.06196883  1
  O  O353  1  0.69496445  0.41703462  0.31205277  1
  O  O354  1  0.69431110  0.41646822  0.56174293  1
  O  O355  1  0.69399968  0.41692579  0.81132633  1
  O  O356  1  0.69475320  0.75083260  0.06083542  1
  O  O357  1  0.69320050  0.75055157  0.31308359  1
  O  O358  1  0.69093955  0.75012629  0.56239512  1
  O  O359  1  0.69032728  0.75084567  0.81237989  1
  O  O360  1  0.30632289  0.24950238  0.18783573  1
  O  O361  1  0.30636960  0.25012730  0.43887008  1
  O  O362  1  0.30962890  0.24966360  0.68721695  1
  O  O363  1  0.30581483  0.24978700  0.93811217  1
  O  O364  1  0.30624897  0.58325335  0.18798720  1
  O  O365  1  0.30724515  0.58386887  0.43875484  1
  O  O366  1  0.30862447  0.58380326  0.68774086  1
  O  O367  1  0.30625879  0.58396620  0.93835181  1
  O  O368  1  0.30552973  0.91705481  0.18789869  1
  O  O369  1  0.30704890  0.91650602  0.43837382  1
  O  O370  1  0.30684916  0.91615779  0.68911358  1
  O  O371  1  0.30804117  0.91609046  0.93696270  1
  O  O372  1  0.80717925  0.24943609  0.18799166  1
  O  O373  1  0.80636110  0.24954170  0.43878336  1
  O  O374  1  0.80730709  0.24935746  0.68679992  1
  O  O375  1  0.80500243  0.24930226  0.93834673  1
  O  O376  1  0.80902225  0.58357286  0.18695487  1
  O  O377  1  0.80646041  0.58360230  0.43898153  1
  O  O378  1  0.80770064  0.58397859  0.68689776  1
  O  O379  1  0.80637483  0.58421974  0.93841630  1
  O  O380  1  0.81019975  0.91673402  0.18711779  1
  O  O381  1  0.80871082  0.91680279  0.43779133  1
  O  O382  1  0.80782414  0.91664266  0.68753093  1
  O  O383  1  0.80925628  0.91585128  0.93739751  1
  O  O384  1  0.23187439  0.24926766  0.03945385  1
  O  O385  1  0.23401688  0.25008257  0.28997077  1
  O  O386  1  0.23301202  0.25013557  0.54055988  1
  O  O387  1  0.23492462  0.24948306  0.78785178  1
  O  O388  1  0.23290997  0.58329090  0.03984072  1
  O  O389  1  0.23362916  0.58316268  0.29019727  1
  O  O390  1  0.23499218  0.58336226  0.54103512  1
  O  O391  1  0.23308469  0.58426346  0.78792445  1
  O  O392  1  0.23238314  0.91735055  0.03690645  1
  O  O393  1  0.23354366  0.91719741  0.29061216  1
  O  O394  1  0.23433394  0.91609207  0.54054226  1
  O  O395  1  0.23317151  0.91636758  0.79052151  1
  O  O396  1  0.73212241  0.24952352  0.04040849  1
  O  O397  1  0.73462411  0.25002588  0.29014548  1
  O  O398  1  0.73237033  0.24990369  0.53978094  1
  O  O399  1  0.73253437  0.24922319  0.78737281  1
  O  O400  1  0.73284352  0.58367628  0.03969185  1
  O  O401  1  0.73453084  0.58351593  0.28819153  1
  O  O402  1  0.73435544  0.58317461  0.54121755  1
  O  O403  1  0.73223943  0.58340190  0.78685128  1
  O  O404  1  0.73582071  0.91656770  0.03881003  1
  O  O405  1  0.73642678  0.91680125  0.28854875  1
  O  O406  1  0.73498471  0.91673004  0.53869095  1
  O  O407  1  0.73306574  0.91700489  0.78807160  1
  O  O408  1  0.26690294  0.08340298  0.20966748  1
  O  O409  1  0.26644494  0.08436700  0.46060767  1
  O  O410  1  0.26834546  0.08214842  0.71088385  1
  O  O411  1  0.26573514  0.08320483  0.96205742  1
  O  O412  1  0.26632349  0.41597966  0.21204024  1
  O  O413  1  0.26731688  0.41680502  0.46089491  1
  O  O414  1  0.26624710  0.41705220  0.71000569  1
  O  O415  1  0.26465897  0.41625792  0.96154501  1
  O  O416  1  0.26538619  0.75059737  0.20905238  1
  O  O417  1  0.26868116  0.74961996  0.46106972  1
  O  O418  1  0.26663956  0.75064570  0.71270859  1
  O  O419  1  0.26362306  0.75024442  0.96203530  1
  O  O420  1  0.76715367  0.08313359  0.21221739  1
  O  O421  1  0.76465367  0.08347472  0.46172656  1
  O  O422  1  0.76674668  0.08305280  0.70971071  1
  O  O423  1  0.76701552  0.08328454  0.96204234  1
  O  O424  1  0.76888244  0.41684231  0.21066987  1
  O  O425  1  0.76862143  0.41672676  0.46077512  1
  O  O426  1  0.76720415  0.41624325  0.70987814  1
  O  O427  1  0.76635495  0.41648841  0.95916440  1
  O  O428  1  0.76828029  0.74993833  0.21251439  1
  O  O429  1  0.76675331  0.74960190  0.46260781  1
  O  O430  1  0.76388630  0.75064983  0.71134650  1
  O  O431  1  0.76608421  0.74978576  0.95794869  1
  O  O432  1  0.01664798  0.08319786  0.16276779  1
  O  O433  1  0.01496556  0.08288877  0.41395738  1
  O  O434  1  0.01480016  0.08349231  0.66671800  1
  O  O435  1  0.01398628  0.08236290  0.91251076  1
  O  O436  1  0.01766467  0.41636251  0.16480730  1
  O  O437  1  0.01629308  0.41664299  0.41376778  1
  O  O438  1  0.01380864  0.41626535  0.66379639  1
  O  O439  1  0.01479260  0.41746175  0.91193157  1
  O  O440  1  0.01700517  0.75048405  0.16500847  1
  O  O441  1  0.01431353  0.74999120  0.41506722  1
  O  O442  1  0.01458119  0.75075467  0.66325443  1
  O  O443  1  0.01783356  0.75058217  0.91355357  1
  O  O444  1  0.51665158  0.08353965  0.16262044  1
  O  O445  1  0.51764995  0.08293187  0.41240872  1
  O  O446  1  0.51783676  0.08351104  0.66533127  1
  O  O447  1  0.51468128  0.08266250  0.91330707  1
  O  O448  1  0.51642270  0.41592226  0.16596989  1
  O  O449  1  0.51526309  0.41726269  0.41357829  1
  O  O450  1  0.51537559  0.41627951  0.66328964  1
  O  O451  1  0.51707955  0.41713503  0.91518192  1
  O  O452  1  0.51746475  0.75018365  0.16421568  1
  O  O453  1  0.51847168  0.74985611  0.41500367  1
  O  O454  1  0.51605667  0.74994830  0.66351641  1
  O  O455  1  0.51708306  0.75060164  0.91257502  1
  O  O456  1  0.48458898  0.24952910  0.08405910  1
  O  O457  1  0.48511739  0.24926678  0.33705642  1
  O  O458  1  0.48390739  0.24978425  0.58697369  1
  O  O459  1  0.48550724  0.24934530  0.83680013  1
  O  O460  1  0.48603295  0.58372109  0.08672290  1
  O  O461  1  0.48525232  0.58384208  0.33430397  1
  O  O462  1  0.48299411  0.58405176  0.58763581  1
  O  O463  1  0.48556134  0.58366175  0.83626091  1
  O  O464  1  0.48408621  0.91706929  0.08480314  1
  O  O465  1  0.48486453  0.91642501  0.33395488  1
  O  O466  1  0.48506746  0.91674687  0.58681939  1
  O  O467  1  0.48280090  0.91657777  0.83507466  1
  O  O468  1  0.98426088  0.25016164  0.08355251  1
  O  O469  1  0.98501316  0.25013724  0.33711137  1
  O  O470  1  0.98142672  0.24994709  0.58548911  1
  O  O471  1  0.98373159  0.24983120  0.83704989  1
  O  O472  1  0.98146815  0.58362428  0.08496232  1
  O  O473  1  0.98359801  0.58301588  0.33583999  1
  O  O474  1  0.98227790  0.58285685  0.58805748  1
  O  O475  1  0.98397798  0.58417157  0.83305551  1
  O  O476  1  0.98251009  0.91650193  0.08483472  1
  O  O477  1  0.98139241  0.91660733  0.33570530  1
  O  O478  1  0.98214382  0.91717404  0.58868559  1
  O  O479  1  0.98329155  0.91673796  0.83652576  1
  O  O480  1  0.08838932  0.31489044  0.07744118  1
  O  O481  1  0.08810324  0.31629329  0.32879657  1
  O  O482  1  0.08577683  0.31452766  0.57678672  1
  O  O483  1  0.08734998  0.31473555  0.82723116  1
  O  O484  1  0.08551776  0.64827998  0.07805982  1
  O  O485  1  0.08738765  0.64754320  0.32833156  1
  O  O486  1  0.08560428  0.64852370  0.57728496  1
  O  O487  1  0.08784820  0.64985107  0.82660388  1
  O  O488  1  0.08620627  0.98213357  0.07639604  1
  O  O489  1  0.08518775  0.98139088  0.32741551  1
  O  O490  1  0.08560007  0.98237344  0.57783963  1
  O  O491  1  0.08734788  0.98094685  0.82617044  1
  O  O492  1  0.58902736  0.31358163  0.07711002  1
  O  O493  1  0.58829915  0.31476186  0.32777140  1
  O  O494  1  0.58797375  0.31390314  0.57680467  1
  O  O495  1  0.58910502  0.31459883  0.82685521  1
  O  O496  1  0.59017805  0.64795133  0.07741996  1
  O  O497  1  0.58911080  0.64968705  0.32774375  1
  O  O498  1  0.58675941  0.64911753  0.57840190  1
  O  O499  1  0.58897836  0.64957265  0.82782095  1
  O  O500  1  0.58738752  0.98319226  0.07722591  1
  O  O501  1  0.58880123  0.98115615  0.32780261  1
  O  O502  1  0.58859230  0.98188638  0.57863740  1
  O  O503  1  0.58701275  0.98114226  0.82635776  1
  O  O504  1  0.41274230  0.01866808  0.17282382  1
  O  O505  1  0.41418843  0.01777532  0.42237025  1
  O  O506  1  0.41338726  0.01948855  0.67332868  1
  O  O507  1  0.41120564  0.01665162  0.92225438  1
  O  O508  1  0.41215372  0.35143001  0.17332363  1
  O  O509  1  0.41165818  0.35179333  0.42308178  1
  O  O510  1  0.41185184  0.35133820  0.67158421  1
  O  O511  1  0.41363076  0.35153749  0.92309401  1
  O  O512  1  0.41384478  0.68501899  0.17266785  1
  O  O513  1  0.41433885  0.68506527  0.42353538  1
  O  O514  1  0.41242583  0.68416854  0.67339392  1
  O  O515  1  0.41340624  0.68599561  0.92265484  1
  O  O516  1  0.91278071  0.01778210  0.17160319  1
  O  O517  1  0.91131103  0.01759366  0.42162637  1
  O  O518  1  0.91052806  0.01887149  0.67304984  1
  O  O519  1  0.91035449  0.01702976  0.92172687  1
  O  O520  1  0.91337645  0.35232559  0.17315209  1
  O  O521  1  0.91234563  0.35173550  0.42330289  1
  O  O522  1  0.91015267  0.35093949  0.67230331  1
  O  O523  1  0.91169463  0.35189299  0.92212793  1
  O  O524  1  0.91317867  0.68496875  0.17281160  1
  O  O525  1  0.91011251  0.68604809  0.42315454  1
  O  O526  1  0.91137169  0.68485759  0.67234744  1
  O  O527  1  0.91404439  0.68597549  0.92218480  1
  O  O528  1  0.16288937  0.01803809  0.20137455  1
  O  O529  1  0.16281636  0.01915894  0.45280485  1
  O  O530  1  0.16457604  0.01656646  0.70279426  1
  O  O531  1  0.16202036  0.01831347  0.95241195  1
  O  O532  1  0.16203359  0.35192501  0.20244386  1
  O  O533  1  0.16374443  0.35042279  0.45260454  1
  O  O534  1  0.16220151  0.35266728  0.70227580  1
  O  O535  1  0.16132619  0.35043798  0.95341106  1
  O  O536  1  0.16135644  0.68538924  0.20173668  1
  O  O537  1  0.16467419  0.68470361  0.45277016  1
  O  O538  1  0.16290536  0.68568973  0.70273098  1
  O  O539  1  0.15957677  0.68613866  0.95224292  1
  O  O540  1  0.66358698  0.01795046  0.20169515  1
  O  O541  1  0.66082409  0.01922763  0.45208810  1
  O  O542  1  0.66301797  0.01739697  0.70183996  1
  O  O543  1  0.66345819  0.01866811  0.95242115  1
  O  O544  1  0.66472625  0.35257772  0.20264195  1
  O  O545  1  0.66496284  0.35089926  0.45234996  1
  O  O546  1  0.66327985  0.35145757  0.70223591  1
  O  O547  1  0.66261778  0.35135249  0.95311541  1
  O  O548  1  0.66461909  0.68457953  0.20347771  1
  O  O549  1  0.66295134  0.68489696  0.45234016  1
  O  O550  1  0.66006066  0.68569801  0.70256638  1
  O  O551  1  0.66210438  0.68419430  0.95268458  1
  O  O552  1  0.33572316  0.31395930  0.04782645  1
  O  O553  1  0.33816053  0.31438974  0.29688251  1
  O  O554  1  0.33676222  0.31633838  0.54785553  1
  O  O555  1  0.33858709  0.31402064  0.79747434  1
  O  O556  1  0.33657212  0.64869198  0.04776832  1
  O  O557  1  0.33762073  0.64761664  0.29722080  1
  O  O558  1  0.33906435  0.64833325  0.54816383  1
  O  O559  1  0.33657216  0.64981670  0.79762468  1
  O  O560  1  0.33618656  0.98249038  0.04651098  1
  O  O561  1  0.33711176  0.98316468  0.29654475  1
  O  O562  1  0.33818017  0.98102152  0.54764044  1
  O  O563  1  0.33749840  0.98116467  0.79827312  1
  O  O564  1  0.83623711  0.31398548  0.04741859  1
  O  O565  1  0.83862235  0.31473303  0.29677374  1
  O  O566  1  0.83634910  0.31538924  0.54799107  1
  O  O567  1  0.83602760  0.31461095  0.79678883  1
  O  O568  1  0.83674059  0.64892249  0.04801180  1
  O  O569  1  0.83809578  0.64842414  0.29696279  1
  O  O570  1  0.83810316  0.64855100  0.54830467  1
  O  O571  1  0.83571332  0.64801365  0.79743292  1
  O  O572  1  0.83932467  0.98247781  0.04666748  1
  O  O573  1  0.83988114  0.98219927  0.29680702  1
  O  O574  1  0.83909327  0.98063806  0.54791085  1
  O  O575  1  0.83678857  0.98263160  0.79708646  1
  O  O576  1  0.41296651  0.14862168  0.17293778  1
  O  O577  1  0.41407735  0.14781363  0.42278786  1
  O  O578  1  0.41406519  0.14948955  0.67300125  1
  O  O579  1  0.41058556  0.14674462  0.92307993  1
  O  O580  1  0.41261249  0.48148458  0.17345312  1
  O  O581  1  0.41127512  0.48177663  0.42258144  1
  O  O582  1  0.41206854  0.48185566  0.67188592  1
  O  O583  1  0.41311954  0.48177736  0.92279189  1
  O  O584  1  0.41364365  0.81511571  0.17237178  1
  O  O585  1  0.41448512  0.81499333  0.42349075  1
  O  O586  1  0.41198545  0.81418022  0.67347129  1
  O  O587  1  0.41351343  0.81616338  0.92202210  1
  O  O588  1  0.91277258  0.14781155  0.17279516  1
  O  O589  1  0.91142313  0.14760959  0.42251935  1
  O  O590  1  0.91099240  0.14902921  0.67301422  1
  O  O591  1  0.91029751  0.14713848  0.92300669  1
  O  O592  1  0.91386966  0.48239629  0.17269324  1
  O  O593  1  0.91240588  0.48154923  0.42317150  1
  O  O594  1  0.90988845  0.48123761  0.67224110  1
  O  O595  1  0.91123398  0.48218955  0.92127937  1
  O  O596  1  0.91281541  0.81507369  0.17220987  1
  O  O597  1  0.91078131  0.81608606  0.42240243  1
  O  O598  1  0.91063062  0.81513368  0.67187616  1
  O  O599  1  0.91421535  0.81606947  0.92204938  1
  O  O600  1  0.08795279  0.18462584  0.07696705  1
  O  O601  1  0.08877648  0.18598354  0.32835253  1
  O  O602  1  0.08545216  0.18460297  0.57698023  1
  O  O603  1  0.08710394  0.18457689  0.82700775  1
  O  O604  1  0.08509557  0.51804833  0.07761907  1
  O  O605  1  0.08704012  0.51720917  0.32843118  1
  O  O606  1  0.08606416  0.51834741  0.57771174  1
  O  O607  1  0.08820369  0.51975487  0.82556003  1
  O  O608  1  0.08679717  0.85203251  0.07731834  1
  O  O609  1  0.08497974  0.85127454  0.32775941  1
  O  O610  1  0.08576015  0.85225889  0.57750630  1
  O  O611  1  0.08698851  0.85105857  0.82697755  1
  O  O612  1  0.58817823  0.18349737  0.07723217  1
  O  O613  1  0.58896151  0.18448350  0.32875351  1
  O  O614  1  0.58750282  0.18382643  0.57791040  1
  O  O615  1  0.58930570  0.18454713  0.82719767  1
  O  O616  1  0.58934782  0.51792906  0.07746798  1
  O  O617  1  0.58956387  0.51957769  0.32688311  1
  O  O618  1  0.58637026  0.51895021  0.57723198  1
  O  O619  1  0.58956095  0.51946889  0.82670112  1
  O  O620  1  0.58830566  0.85300298  0.07718283  1
  O  O621  1  0.58849666  0.85084998  0.32790454  1
  O  O622  1  0.58860258  0.85157359  0.57887221  1
  O  O623  1  0.58689650  0.85127443  0.82689303  1
  O  O624  1  0.33566132  0.18383985  0.04722677  1
  O  O625  1  0.33734824  0.18402863  0.29697761  1
  O  O626  1  0.33780050  0.18636284  0.54841405  1
  O  O627  1  0.33825400  0.18370086  0.79673756  1
  O  O628  1  0.33694459  0.51851592  0.04735883  1
  O  O629  1  0.33718167  0.51734880  0.29687590  1
  O  O630  1  0.33889701  0.51815125  0.54763901  1
  O  O631  1  0.33686090  0.51957124  0.79795445  1
  O  O632  1  0.33587953  0.85233046  0.04754169  1
  O  O633  1  0.33771051  0.85285932  0.29693354  1
  O  O634  1  0.33820452  0.85081720  0.54733442  1
  O  O635  1  0.33711317  0.85109596  0.79873013  1
  O  O636  1  0.83588548  0.18397345  0.04756061  1
  O  O637  1  0.83796087  0.18433659  0.29727535  1
  O  O638  1  0.83640078  0.18545461  0.54870800  1
  O  O639  1  0.83614328  0.18437359  0.79679029  1
  O  O640  1  0.83706755  0.51902965  0.04787083  1
  O  O641  1  0.83805983  0.51822105  0.29664991  1
  O  O642  1  0.83856729  0.51842160  0.54773431  1
  O  O643  1  0.83574133  0.51780424  0.79650084  1
  O  O644  1  0.83989467  0.85241360  0.04749148  1
  O  O645  1  0.84011718  0.85187388  0.29693741  1
  O  O646  1  0.83817413  0.85055337  0.54746529  1
  O  O647  1  0.83714843  0.85268101  0.79795398  1
  O  O648  1  0.16252800  0.14789728  0.20151465  1
  O  O649  1  0.16256780  0.14952722  0.45377463  1
  O  O650  1  0.16427782  0.14675657  0.70227868  1
  O  O651  1  0.16223453  0.14851776  0.95255495  1
  O  O652  1  0.16273493  0.48171139  0.20198510  1
  O  O653  1  0.16283070  0.48056379  0.45206120  1
  O  O654  1  0.16279867  0.48298343  0.70228911  1
  O  O655  1  0.16090110  0.48083681  0.95286283  1
  O  O656  1  0.16115923  0.81530700  0.20200565  1
  O  O657  1  0.16467589  0.81481063  0.45248930  1
  O  O658  1  0.16305816  0.81595664  0.70323043  1
  O  O659  1  0.16029334  0.81629713  0.95270646  1
  O  O660  1  0.66303775  0.14786518  0.20233553  1
  O  O661  1  0.66125606  0.14941214  0.45305934  1
  O  O662  1  0.66235531  0.14736746  0.70225091  1
  O  O663  1  0.66336764  0.14869349  0.95324254  1
  O  O664  1  0.66524782  0.48262519  0.20276179  1
  O  O665  1  0.66460036  0.48104250  0.45230495  1
  O  O666  1  0.66351816  0.48163390  0.70164208  1
  O  O667  1  0.66282490  0.48182552  0.95313719  1
  O  O668  1  0.66481757  0.81463855  0.20253564  1
  O  O669  1  0.66329441  0.81490802  0.45190708  1
  O  O670  1  0.66031428  0.81592593  0.70262604  1
  O  O671  1  0.66179935  0.81426498  0.95147327  1
