# generated using pymatgen
data_Na2MnFe(PO4)2
_symmetry_space_group_name_H-M   'P 1'
_cell_length_a   21.07986036
_cell_length_b   18.93180065
_cell_length_c   20.03936693
_cell_angle_alpha   90.00039483
_cell_angle_beta   89.99811076
_cell_angle_gamma   89.99944201
_symmetry_Int_Tables_number   1
_chemical_formula_structural   Na2MnFe(PO4)2
_chemical_formula_sum   'Na96 Mn48 Fe48 P96 O384'
_cell_volume   7997.30481887
_cell_formula_units_Z   48
loop_
 _symmetry_equiv_pos_site_id
 _symmetry_equiv_pos_as_xyz
  1  'x, y, z'
loop_
 _atom_site_type_symbol
 _atom_site_label
 _atom_site_symmetry_multiplicity
 _atom_site_fract_x
 _atom_site_fract_y
 _atom_site_fract_z
 _atom_site_occupancy
  Na  Na0  1  0.00155957  0.00054613  -0.00106493  1
  Na  Na1  1  -0.00011429  -0.00059414  0.25005832  1
  Na  Na2  1  -0.00073987  -0.00018190  0.50057745  1
  Na  Na3  1  -0.00066737  -0.00034695  0.74948829  1
  Na  Na4  1  -0.00295577  0.33243079  -0.00031527  1
  Na  Na5  1  -0.00197718  0.33271128  0.25045594  1
  Na  Na6  1  -0.00079904  0.33350951  0.50004887  1
  Na  Na7  1  -0.00166747  0.33301228  0.74974493  1
  Na  Na8  1  -0.00168251  0.66668962  -0.00027527  1
  Na  Na9  1  -0.00110890  0.66663136  0.25009435  1
  Na  Na10  1  -0.00355747  0.66570140  0.50022021  1
  Na  Na11  1  -0.00284339  0.66628068  0.74995423  1
  Na  Na12  1  0.49983606  -0.00028505  0.00072842  1
  Na  Na13  1  0.49994683  0.00042543  0.24960581  1
  Na  Na14  1  0.49778891  -0.00091237  0.49990159  1
  Na  Na15  1  0.49944159  -0.00034240  0.75077212  1
  Na  Na16  1  0.49904873  0.33267633  0.00090180  1
  Na  Na17  1  0.49965318  0.33344676  0.24952992  1
  Na  Na18  1  0.49873323  0.33254088  0.49986071  1
  Na  Na19  1  0.50134234  0.33412505  0.74961472  1
  Na  Na20  1  0.50254468  0.66709963  -0.00056551  1
  Na  Na21  1  0.50177778  0.66732991  0.25026099  1
  Na  Na22  1  0.50057355  0.66618741  0.50101269  1
  Na  Na23  1  0.50368649  0.66796510  0.74911625  1
  Na  Na24  1  0.24989130  0.00038990  0.12493861  1
  Na  Na25  1  0.25091556  0.00013822  0.37550344  1
  Na  Na26  1  0.25143145  0.00022361  0.62516556  1
  Na  Na27  1  0.25082941  0.00022503  0.87485976  1
  Na  Na28  1  0.25045538  0.33393925  0.12648942  1
  Na  Na29  1  0.24971432  0.33388149  0.37537044  1
  Na  Na30  1  0.24661954  0.33276384  0.62370241  1
  Na  Na31  1  0.24905257  0.33359833  0.87488707  1
  Na  Na32  1  0.24967983  0.66664441  0.12472992  1
  Na  Na33  1  0.25082818  0.66673017  0.37545440  1
  Na  Na34  1  0.25156296  0.66717668  0.62408112  1
  Na  Na35  1  0.24908600  0.66612559  0.87506190  1
  Na  Na36  1  0.74787340  -0.00104022  0.12500101  1
  Na  Na37  1  0.75084207  0.00018154  0.37410803  1
  Na  Na38  1  0.75186870  0.00025397  0.62441555  1
  Na  Na39  1  0.75001584  -0.00024119  0.87640628  1
  Na  Na40  1  0.75301517  0.33321651  0.12486871  1
  Na  Na41  1  0.75261216  0.33348873  0.37531050  1
  Na  Na42  1  0.75234145  0.33334216  0.62432915  1
  Na  Na43  1  0.75421568  0.33411734  0.87418363  1
  Na  Na44  1  0.74924916  0.66696043  0.12640648  1
  Na  Na45  1  0.75120828  0.66722122  0.37497821  1
  Na  Na46  1  0.75036705  0.66733184  0.62444868  1
  Na  Na47  1  0.74791778  0.66635465  0.87497872  1
  Na  Na48  1  -0.00029736  0.16640075  -0.00090840  1
  Na  Na49  1  0.00008058  0.16617399  0.25111350  1
  Na  Na50  1  -0.00142518  0.16730495  0.50097899  1
  Na  Na51  1  -0.00091974  0.16655605  0.74922346  1
  Na  Na52  1  -0.00261852  0.50048693  0.00021106  1
  Na  Na53  1  -0.00149943  0.50027852  0.24941212  1
  Na  Na54  1  -0.00097029  0.49992967  0.49906421  1
  Na  Na55  1  -0.00065484  0.49928015  0.74994469  1
  Na  Na56  1  -0.00054640  0.83379304  -0.00104369  1
  Na  Na57  1  -0.00138013  0.83426440  0.25007793  1
  Na  Na58  1  -0.00256861  0.83368494  0.50061215  1
  Na  Na59  1  -0.00210087  0.83342816  0.75029683  1
  Na  Na60  1  0.49932896  0.16659921  0.00095968  1
  Na  Na61  1  0.50027763  0.16684537  0.24913955  1
  Na  Na62  1  0.50064879  0.16663421  0.49922944  1
  Na  Na63  1  0.49983848  0.16707749  0.74988662  1
  Na  Na64  1  0.49912086  0.50014052  0.00011843  1
  Na  Na65  1  0.49850920  0.50001580  0.25003267  1
  Na  Na66  1  0.49835412  0.50005589  0.50127004  1
  Na  Na67  1  0.50163082  0.49912189  0.74943806  1
  Na  Na68  1  0.50379984  0.83302897  0.00059028  1
  Na  Na69  1  0.50187763  0.83332545  0.24987714  1
  Na  Na70  1  0.49994674  0.83375864  0.50083508  1
  Na  Na71  1  0.50171654  0.83396818  0.74953987  1
  Na  Na72  1  0.25016862  0.16540049  0.12565176  1
  Na  Na73  1  0.24933854  0.16633035  0.37495146  1
  Na  Na74  1  0.24728273  0.16759430  0.62448470  1
  Na  Na75  1  0.24779316  0.16663806  0.87553287  1
  Na  Na76  1  0.25000578  0.49990986  0.12613412  1
  Na  Na77  1  0.24921977  0.49983493  0.37594827  1
  Na  Na78  1  0.24891552  0.50008460  0.62394342  1
  Na  Na79  1  0.25078908  0.49913579  0.87479826  1
  Na  Na80  1  0.24910203  0.83455474  0.12473387  1
  Na  Na81  1  0.25323964  0.83255628  0.37522730  1
  Na  Na82  1  0.25155911  0.83389256  0.62482464  1
  Na  Na83  1  0.25075066  0.83369011  0.87423317  1
  Na  Na84  1  0.74910791  0.16756386  0.12446191  1
  Na  Na85  1  0.75171207  0.16688162  0.37454582  1
  Na  Na86  1  0.75380529  0.16593437  0.62476739  1
  Na  Na87  1  0.75177513  0.16643172  0.87538928  1
  Na  Na88  1  0.75296042  0.49877543  0.12607076  1
  Na  Na89  1  0.75341805  0.49884392  0.37538879  1
  Na  Na90  1  0.75087495  0.49995698  0.62370777  1
  Na  Na91  1  0.75054211  0.50001902  0.87399320  1
  Na  Na92  1  0.74823925  0.83405474  0.12581216  1
  Na  Na93  1  0.74936655  0.83353454  0.37451352  1
  Na  Na94  1  0.74958059  0.83359028  0.62470291  1
  Na  Na95  1  0.74989492  0.83323760  0.87620961  1
  Mn  Mn96  1  0.85793320  0.08336738  0.25155395  1
  Mn  Mn97  1  0.39150500  0.24977226  0.62715814  1
  Mn  Mn98  1  0.10686923  0.74926299  0.62271563  1
  Mn  Mn99  1  0.35902019  0.74956457  0.75257046  1
  Mn  Mn100  1  0.85827463  0.08301028  0.00313763  1
  Mn  Mn101  1  0.35867191  0.75010852  0.25225993  1
  Mn  Mn102  1  0.64368348  0.24998622  0.49772483  1
  Mn  Mn103  1  0.64372124  0.24983079  0.74769468  1
  Mn  Mn104  1  0.10754353  0.75013396  0.37329308  1
  Mn  Mn105  1  0.89122321  0.91635353  0.62818349  1
  Mn  Mn106  1  0.64317437  0.25043264  0.99736301  1
  Mn  Mn107  1  0.10679770  0.08321376  0.62270554  1
  Mn  Mn108  1  0.85721467  0.75011795  0.25240276  1
  Mn  Mn109  1  0.39282712  0.91625909  0.12675075  1
  Mn  Mn110  1  0.35847112  0.75008035  0.00189691  1
  Mn  Mn111  1  0.64265362  0.58263831  0.99811943  1
  Mn  Mn112  1  0.14205742  0.91591754  0.24854680  1
  Mn  Mn113  1  0.64334196  0.58284575  0.49703611  1
  Mn  Mn114  1  0.89065245  0.58327681  0.87743331  1
  Mn  Mn115  1  0.14158513  0.25008186  0.24807260  1
  Mn  Mn116  1  0.10628050  0.41626766  0.12259849  1
  Mn  Mn117  1  0.39201357  0.58401717  0.12712822  1
  Mn  Mn118  1  0.64251525  0.91754550  0.49743012  1
  Mn  Mn119  1  0.60866825  0.41647126  0.87300739  1
  Mn  Mn120  1  0.14135836  0.58322992  0.74731636  1
  Mn  Mn121  1  0.14150849  0.24997985  0.99827630  1
  Mn  Mn122  1  0.60770664  0.08362164  0.87268070  1
  Mn  Mn123  1  0.35721392  0.41653732  0.25317918  1
  Mn  Mn124  1  0.85684430  0.74980306  0.00277296  1
  Mn  Mn125  1  0.39320059  0.58394065  0.87680499  1
  Mn  Mn126  1  0.10712643  0.75024225  0.87217183  1
  Mn  Mn127  1  0.35758042  0.08391744  0.50224776  1
  Mn  Mn128  1  0.60774697  0.41672750  0.37326870  1
  Mn  Mn129  1  0.14257295  0.91626182  0.74788106  1
  Mn  Mn130  1  0.14282566  0.91640865  0.49780279  1
  Mn  Mn131  1  0.64250316  0.58221877  0.24851365  1
  Mn  Mn132  1  0.39110425  0.24971736  0.87713202  1
  Mn  Mn133  1  0.35730821  0.41635854  0.75141458  1
  Mn  Mn134  1  0.14182170  0.58399854  0.49774991  1
  Mn  Mn135  1  0.10732336  0.75064238  0.12267483  1
  Mn  Mn136  1  0.60893064  0.08388356  0.62297641  1
  Mn  Mn137  1  0.35745482  0.08430638  0.75228551  1
  Mn  Mn138  1  0.14147551  0.58356672  0.99801162  1
  Mn  Mn139  1  0.60868495  0.41665597  0.12274435  1
  Mn  Mn140  1  0.39324744  0.58338071  0.62774353  1
  Mn  Mn141  1  0.60799089  0.08357901  0.37256705  1
  Mn  Mn142  1  0.39208900  0.24980157  0.12734962  1
  Mn  Mn143  1  0.10703190  0.41634553  0.87313541  1
  Fe  Fe144  1  0.60817466  0.75010762  0.62283115  1
  Fe  Fe145  1  0.10607744  0.41683583  0.37354863  1
  Fe  Fe146  1  0.39253242  0.25021527  0.37690942  1
  Fe  Fe147  1  0.39335756  0.91654655  0.37649408  1
  Fe  Fe148  1  0.39368935  0.91651812  0.87716924  1
  Fe  Fe149  1  0.10655458  0.08301390  0.37377515  1
  Fe  Fe150  1  0.89204711  0.58301457  0.62705171  1
  Fe  Fe151  1  0.10690165  0.08317664  0.87296418  1
  Fe  Fe152  1  0.85568367  0.75050537  0.75189635  1
  Fe  Fe153  1  0.35751048  0.41629358  0.00125829  1
  Fe  Fe154  1  0.64329634  0.25001496  0.24872284  1
  Fe  Fe155  1  0.60850133  0.41613859  0.62266500  1
  Fe  Fe156  1  0.85732775  0.41697114  0.75119425  1
  Fe  Fe157  1  0.60708185  0.74973874  0.37436464  1
  Fe  Fe158  1  0.89320533  0.24903486  0.87629097  1
  Fe  Fe159  1  0.10750307  0.08291319  0.12372334  1
  Fe  Fe160  1  0.60709215  0.08340329  0.12342640  1
  Fe  Fe161  1  0.85845769  0.08289915  0.50123097  1
  Fe  Fe162  1  0.85859815  0.41674626  0.50238535  1
  Fe  Fe163  1  0.14097152  0.25025177  0.74826304  1
  Fe  Fe164  1  0.85761999  0.08249285  0.75269135  1
  Fe  Fe165  1  0.39202739  0.58330966  0.37672244  1
  Fe  Fe166  1  0.14238696  0.91654408  0.99786435  1
  Fe  Fe167  1  0.39377884  0.91671159  0.62705014  1
  Fe  Fe168  1  0.60813974  0.75031410  0.87263056  1
  Fe  Fe169  1  0.89185873  0.91672800  0.37645803  1
  Fe  Fe170  1  0.35886459  0.74945971  0.50181567  1
  Fe  Fe171  1  0.35618592  0.41647797  0.50185122  1
  Fe  Fe172  1  0.89217368  0.91720373  0.87716085  1
  Fe  Fe173  1  0.60801823  0.75006748  0.12339136  1
  Fe  Fe174  1  0.85794416  0.41702459  0.00212576  1
  Fe  Fe175  1  0.89264706  0.91700648  0.12626922  1
  Fe  Fe176  1  0.85701732  0.75022912  0.50174799  1
  Fe  Fe177  1  0.35737182  0.08339544  0.25200292  1
  Fe  Fe178  1  0.89291832  0.58375173  0.37676164  1
  Fe  Fe179  1  0.35633082  0.08363135  0.00165553  1
  Fe  Fe180  1  0.64322288  0.91718252  0.74883951  1
  Fe  Fe181  1  0.85790017  0.41624745  0.25203734  1
  Fe  Fe182  1  0.64291325  0.91725856  0.99804696  1
  Fe  Fe183  1  0.89294388  0.24937709  0.37710001  1
  Fe  Fe184  1  0.14195393  0.58380985  0.24882577  1
  Fe  Fe185  1  0.64226557  0.91769826  0.24856383  1
  Fe  Fe186  1  0.64348671  0.58300989  0.74781659  1
  Fe  Fe187  1  0.10600894  0.41718491  0.62331039  1
  Fe  Fe188  1  0.14149747  0.24998747  0.49753969  1
  Fe  Fe189  1  0.89344154  0.25058066  0.62707099  1
  Fe  Fe190  1  0.89203031  0.58406267  0.12753458  1
  Fe  Fe191  1  0.89264956  0.24888056  0.12733576  1
  P  P192  1  0.05149154  0.24914203  0.11033539  1
  P  P193  1  0.05300900  0.24988908  0.36169358  1
  P  P194  1  0.05365996  0.25104273  0.61058276  1
  P  P195  1  0.05243052  0.24916640  0.85950598  1
  P  P196  1  0.05218076  0.58352644  0.11119596  1
  P  P197  1  0.05222861  0.58295990  0.35975056  1
  P  P198  1  0.05116676  0.58261664  0.60981365  1
  P  P199  1  0.05207462  0.58320370  0.85980334  1
  P  P200  1  0.05282829  0.91728448  0.10931353  1
  P  P201  1  0.05165994  0.91707453  0.36070123  1
  P  P202  1  0.05283555  0.91609097  0.61002742  1
  P  P203  1  0.05290132  0.91736420  0.86066391  1
  P  P204  1  0.55519655  0.24945123  0.11124599  1
  P  P205  1  0.55290246  0.25044570  0.35937919  1
  P  P206  1  0.55398694  0.25060396  0.60966126  1
  P  P207  1  0.55316496  0.25006207  0.85977100  1
  P  P208  1  0.55375084  0.58358698  0.11019231  1
  P  P209  1  0.55191764  0.58323189  0.36068544  1
  P  P210  1  0.55635239  0.58285911  0.61113800  1
  P  P211  1  0.55501679  0.58364445  0.85898769  1
  P  P212  1  0.55595485  0.91735640  0.11096026  1
  P  P213  1  0.55296616  0.91627986  0.35989114  1
  P  P214  1  0.55460684  0.91677416  0.61124464  1
  P  P215  1  0.55463821  0.91657763  0.86069209  1
  P  P216  1  0.44571154  0.08306253  0.13941721  1
  P  P217  1  0.44559722  0.08380965  0.38846780  1
  P  P218  1  0.44700147  0.08303570  0.64006206  1
  P  P219  1  0.44580457  0.08269942  0.89094022  1
  P  P220  1  0.44538971  0.41668302  0.13927734  1
  P  P221  1  0.44563621  0.41645387  0.39090156  1
  P  P222  1  0.44702543  0.41621267  0.63885222  1
  P  P223  1  0.44649774  0.41655530  0.89047146  1
  P  P224  1  0.44871687  0.75037317  0.13990316  1
  P  P225  1  0.44770043  0.75003484  0.39050818  1
  P  P226  1  0.44769708  0.75057021  0.63900785  1
  P  P227  1  0.44914058  0.75104656  0.88985441  1
  P  P228  1  0.94810326  0.08265786  0.13987300  1
  P  P229  1  0.94690951  0.08299825  0.39030012  1
  P  P230  1  0.94437034  0.08397045  0.63959478  1
  P  P231  1  0.94614172  0.08286267  0.88860642  1
  P  P232  1  0.94415052  0.41636672  0.13956528  1
  P  P233  1  0.94551662  0.41658472  0.38904601  1
  P  P234  1  0.94556876  0.41689304  0.63915521  1
  P  P235  1  0.94425327  0.41577883  0.88916621  1
  P  P236  1  0.94596555  0.75097423  0.13991575  1
  P  P237  1  0.94559668  0.75033354  0.39045995  1
  P  P238  1  0.94392703  0.74903279  0.63986286  1
  P  P239  1  0.94413140  0.75093058  0.88878480  1
  P  P240  1  0.19563343  0.08289743  0.23597643  1
  P  P241  1  0.19536746  0.08374279  0.48447619  1
  P  P242  1  0.19481442  0.08379446  0.73591356  1
  P  P243  1  0.19489122  0.08239117  0.98570341  1
  P  P244  1  0.19416960  0.41766949  0.23676009  1
  P  P245  1  0.19438536  0.41640081  0.48554189  1
  P  P246  1  0.19497249  0.41598573  0.73388412  1
  P  P247  1  0.19739019  0.41656090  0.98546749  1
  P  P248  1  0.19685125  0.74925852  0.23515288  1
  P  P249  1  0.19859542  0.75022540  0.48505482  1
  P  P250  1  0.19719796  0.75003311  0.73420326  1
  P  P251  1  0.19652908  0.75114836  0.98465776  1
  P  P252  1  0.69616062  0.08393220  0.23451082  1
  P  P253  1  0.69903543  0.08367891  0.48458994  1
  P  P254  1  0.69887507  0.08259682  0.73533333  1
  P  P255  1  0.69580466  0.08299724  0.98628327  1
  P  P256  1  0.69851181  0.41542537  0.23559598  1
  P  P257  1  0.69824803  0.41631542  0.48571267  1
  P  P258  1  0.69802573  0.41681256  0.73402057  1
  P  P259  1  0.69927440  0.41641766  0.98479520  1
  P  P260  1  0.69409389  0.75065645  0.23655199  1
  P  P261  1  0.69632889  0.75016172  0.48527750  1
  P  P262  1  0.69579638  0.75074722  0.73566475  1
  P  P263  1  0.69454346  0.75070437  0.98587803  1
  P  P264  1  0.30272898  0.24960822  0.01533073  1
  P  P265  1  0.30361947  0.24899094  0.26596411  1
  P  P266  1  0.30244037  0.25084173  0.51363158  1
  P  P267  1  0.30064437  0.25031116  0.76486196  1
  P  P268  1  0.30330036  0.58268425  0.01494462  1
  P  P269  1  0.30240407  0.58348949  0.26607338  1
  P  P270  1  0.30512252  0.58296668  0.51386009  1
  P  P271  1  0.30310175  0.58300437  0.76496994  1
  P  P272  1  0.30350752  0.91750256  0.01368991  1
  P  P273  1  0.30436682  0.91754571  0.26541983  1
  P  P274  1  0.30628956  0.91593305  0.51457522  1
  P  P275  1  0.30591683  0.91680951  0.76473530  1
  P  P276  1  0.80609159  0.25028802  0.01433346  1
  P  P277  1  0.80469945  0.24997297  0.26450171  1
  P  P278  1  0.80671924  0.24969150  0.51419817  1
  P  P279  1  0.80615441  0.24985921  0.76400127  1
  P  P280  1  0.80363467  0.58297829  0.01620000  1
  P  P281  1  0.80514436  0.58275306  0.26500415  1
  P  P282  1  0.80600579  0.58370498  0.51404739  1
  P  P283  1  0.80310405  0.58365086  0.76315632  1
  P  P284  1  0.80355428  0.91663257  0.01517135  1
  P  P285  1  0.80351504  0.91700366  0.26406668  1
  P  P286  1  0.80475743  0.91656411  0.51350347  1
  P  P287  1  0.80251521  0.91647541  0.76606491  1
  O  O288  1  0.05521966  0.24989932  0.18705775  1
  O  O289  1  0.05724102  0.25016402  0.43842794  1
  O  O290  1  0.05765629  0.25024982  0.68731763  1
  O  O291  1  0.05587029  0.24996162  0.93626412  1
  O  O292  1  0.05739433  0.58364948  0.18782086  1
  O  O293  1  0.05590126  0.58361384  0.43648886  1
  O  O294  1  0.05490181  0.58336468  0.68650557  1
  O  O295  1  0.05544951  0.58339809  0.93664034  1
  O  O296  1  0.05655569  0.91646961  0.18604831  1
  O  O297  1  0.05575336  0.91633400  0.43732792  1
  O  O298  1  0.05642702  0.91591742  0.68676808  1
  O  O299  1  0.05784990  0.91667628  0.93732384  1
  O  O300  1  0.55956545  0.25052710  0.18798057  1
  O  O301  1  0.55739687  0.25021027  0.43608493  1
  O  O302  1  0.55774616  0.25022461  0.68642361  1
  O  O303  1  0.55674908  0.24997350  0.93656499  1
  O  O304  1  0.55674525  0.58238877  0.18699831  1
  O  O305  1  0.55608559  0.58226929  0.43738400  1
  O  O306  1  0.56062444  0.58275640  0.68793455  1
  O  O307  1  0.55749064  0.58247872  0.93581988  1
  O  O308  1  0.55930615  0.91773967  0.18780496  1
  O  O309  1  0.55640943  0.91730194  0.43666616  1
  O  O310  1  0.55946246  0.91765143  0.68792478  1
  O  O311  1  0.55909152  0.91739353  0.93742398  1
  O  O312  1  0.44055370  0.08320793  0.06277288  1
  O  O313  1  0.44199749  0.08398039  0.31170917  1
  O  O314  1  0.44364876  0.08399490  0.56325667  1
  O  O315  1  0.44300581  0.08391197  0.81411354  1
  O  O316  1  0.44073095  0.41637795  0.06253491  1
  O  O317  1  0.44298879  0.41653654  0.31403161  1
  O  O318  1  0.44108887  0.41593274  0.56230036  1
  O  O319  1  0.44337138  0.41638999  0.81364255  1
  O  O320  1  0.44472598  0.75042535  0.06321505  1
  O  O321  1  0.44469648  0.74998530  0.31373404  1
  O  O322  1  0.44278081  0.74966396  0.56235356  1
  O  O323  1  0.44552544  0.75054005  0.81312629  1
  O  O324  1  0.94478987  0.08282736  0.06312457  1
  O  O325  1  0.94360908  0.08290742  0.31358366  1
  O  O326  1  0.94097127  0.08288480  0.56280628  1
  O  O327  1  0.94164368  0.08227017  0.81190182  1
  O  O328  1  0.94102982  0.41667462  0.06268020  1
  O  O329  1  0.94141591  0.41633926  0.31228856  1
  O  O330  1  0.94188279  0.41703318  0.56234008  1
  O  O331  1  0.94051984  0.41713224  0.81233689  1
  O  O332  1  0.94322111  0.75066586  0.06314081  1
  O  O333  1  0.94290810  0.75060771  0.31364105  1
  O  O334  1  0.94023888  0.75011149  0.56308161  1
  O  O335  1  0.93947962  0.75027334  0.81203742  1
  O  O336  1  0.19043543  0.08299778  0.06250805  1
  O  O337  1  0.19021928  0.08286776  0.31263181  1
  O  O338  1  0.19220084  0.08307049  0.56129302  1
  O  O339  1  0.19084240  0.08296008  0.81273983  1
  O  O340  1  0.19316593  0.41652921  0.06220698  1
  O  O341  1  0.18957124  0.41685613  0.31352725  1
  O  O342  1  0.18948098  0.41718404  0.56221749  1
  O  O343  1  0.19217496  0.41670363  0.81072118  1
  O  O344  1  0.19321636  0.75086760  0.06148209  1
  O  O345  1  0.19368176  0.75004645  0.31193343  1
  O  O346  1  0.19380160  0.75020999  0.56166709  1
  O  O347  1  0.19332849  0.75011580  0.81098954  1
  O  O348  1  0.69141526  0.08360223  0.06294960  1
  O  O349  1  0.69375794  0.08390831  0.31136723  1
  O  O350  1  0.69520024  0.08359020  0.56129351  1
  O  O351  1  0.69475440  0.08329129  0.81200901  1
  O  O352  1  0.69528214  0.41606541  0.06149846  1
  O  O353  1  0.69454934  0.41612992  0.31228880  1
  O  O354  1  0.69285232  0.41623559  0.56230285  1
  O  O355  1  0.69448962  0.41616646  0.81075942  1
  O  O356  1  0.69110775  0.74999323  0.06273916  1
  O  O357  1  0.69011429  0.74979054  0.31337642  1
  O  O358  1  0.69158889  0.75028527  0.56203089  1
  O  O359  1  0.69179905  0.75057561  0.81246975  1
  O  O360  1  0.30676424  0.24956019  0.18916723  1
  O  O361  1  0.30777578  0.25018935  0.43705595  1
  O  O362  1  0.30468297  0.25005288  0.68812061  1
  O  O363  1  0.30502499  0.24957328  0.93852712  1
  O  O364  1  0.30638510  0.58359287  0.18934074  1
  O  O365  1  0.30905354  0.58326898  0.43709168  1
  O  O366  1  0.30685709  0.58332520  0.68815153  1
  O  O367  1  0.30681594  0.58345330  0.93818504  1
  O  O368  1  0.30711176  0.91691782  0.18859535  1
  O  O369  1  0.31048207  0.91641473  0.43775810  1
  O  O370  1  0.31040825  0.91672013  0.68791537  1
  O  O371  1  0.30866562  0.91644853  0.93705517  1
  O  O372  1  0.80915735  0.24881410  0.18774401  1
  O  O373  1  0.81020497  0.24983813  0.43726563  1
  O  O374  1  0.80959137  0.24992146  0.68715312  1
  O  O375  1  0.81007962  0.24896689  0.93754276  1
  O  O376  1  0.80881643  0.58392093  0.18819812  1
  O  O377  1  0.80981716  0.58348103  0.43720355  1
  O  O378  1  0.80733687  0.58348329  0.68646224  1
  O  O379  1  0.80574575  0.58397901  0.93928886  1
  O  O380  1  0.80844458  0.91696320  0.18741859  1
  O  O381  1  0.80835768  0.91661635  0.43670663  1
  O  O382  1  0.80568330  0.91658158  0.68921831  1
  O  O383  1  0.80854936  0.91704263  0.93851604  1
  O  O384  1  0.23328660  0.24962376  0.04151091  1
  O  O385  1  0.23371775  0.24988572  0.29057150  1
  O  O386  1  0.23190362  0.25035369  0.53686974  1
  O  O387  1  0.23065132  0.25031688  0.78948925  1
  O  O388  1  0.23355843  0.58318227  0.04011381  1
  O  O389  1  0.23231840  0.58329687  0.29053499  1
  O  O390  1  0.23504633  0.58340460  0.53814168  1
  O  O391  1  0.23333852  0.58266413  0.78972982  1
  O  O392  1  0.23320635  0.91759494  0.03757056  1
  O  O393  1  0.23469152  0.91660992  0.29077050  1
  O  O394  1  0.23613989  0.91706370  0.53860656  1
  O  O395  1  0.23568639  0.91667995  0.78831779  1
  O  O396  1  0.73606506  0.24993126  0.03847612  1
  O  O397  1  0.73440132  0.24968099  0.28846093  1
  O  O398  1  0.73677565  0.24989606  0.53877201  1
  O  O399  1  0.73628491  0.25018650  0.78892954  1
  O  O400  1  0.73418843  0.58302105  0.04202410  1
  O  O401  1  0.73519028  0.58300279  0.28962175  1
  O  O402  1  0.73594589  0.58361689  0.53819915  1
  O  O403  1  0.73287885  0.58352785  0.78752582  1
  O  O404  1  0.73312698  0.91659752  0.03840438  1
  O  O405  1  0.73302621  0.91724056  0.28750754  1
  O  O406  1  0.73494120  0.91670149  0.53840077  1
  O  O407  1  0.73252169  0.91645132  0.79088141  1
  O  O408  1  0.26614579  0.08302909  0.21277904  1
  O  O409  1  0.26528156  0.08353274  0.45999925  1
  O  O410  1  0.26471071  0.08380838  0.71125320  1
  O  O411  1  0.26523395  0.08319377  0.96192163  1
  O  O412  1  0.26436749  0.41692773  0.21309865  1
  O  O413  1  0.26487746  0.41677662  0.46218239  1
  O  O414  1  0.26462012  0.41648971  0.70845193  1
  O  O415  1  0.26740327  0.41618447  0.96092460  1
  O  O416  1  0.26651262  0.75013693  0.20980062  1
  O  O417  1  0.26888904  0.74957201  0.46132548  1
  O  O418  1  0.26707672  0.75033604  0.70971292  1
  O  O419  1  0.26626610  0.75035153  0.95956186  1
  O  O420  1  0.76578156  0.08346264  0.20895723  1
  O  O421  1  0.76904078  0.08349921  0.45999447  1
  O  O422  1  0.76902940  0.08276950  0.71103444  1
  O  O423  1  0.76594492  0.08320162  0.96234587  1
  O  O424  1  0.76865598  0.41583586  0.21129933  1
  O  O425  1  0.76883459  0.41634231  0.46282515  1
  O  O426  1  0.76829381  0.41644835  0.70975222  1
  O  O427  1  0.76928351  0.41691585  0.96025456  1
  O  O428  1  0.76422373  0.75030732  0.21243155  1
  O  O429  1  0.76671594  0.75011750  0.46184036  1
  O  O430  1  0.76613427  0.75073530  0.71154146  1
  O  O431  1  0.76449222  0.74985152  0.96142286  1
  O  O432  1  0.01792525  0.08262251  0.16512744  1
  O  O433  1  0.01687951  0.08340370  0.41536437  1
  O  O434  1  0.01435549  0.08306308  0.66390764  1
  O  O435  1  0.01636725  0.08338767  0.91264857  1
  O  O436  1  0.01400296  0.41628173  0.16445814  1
  O  O437  1  0.01586138  0.41664687  0.41310683  1
  O  O438  1  0.01572704  0.41652032  0.66348996  1
  O  O439  1  0.01414947  0.41649913  0.91390149  1
  O  O440  1  0.01547428  0.75083207  0.16563364  1
  O  O441  1  0.01524816  0.74985483  0.41600069  1
  O  O442  1  0.01383760  0.74985465  0.66445387  1
  O  O443  1  0.01415829  0.75038465  0.91286202  1
  O  O444  1  0.51623208  0.08321040  0.16263174  1
  O  O445  1  0.51550629  0.08332434  0.41341904  1
  O  O446  1  0.51665711  0.08349207  0.66529117  1
  O  O447  1  0.51551332  0.08316961  0.91606833  1
  O  O448  1  0.51551251  0.41662384  0.16318949  1
  O  O449  1  0.51538210  0.41628167  0.41620399  1
  O  O450  1  0.51755086  0.41653333  0.66192560  1
  O  O451  1  0.51629277  0.41641592  0.91555152  1
  O  O452  1  0.51876681  0.75068456  0.16428165  1
  O  O453  1  0.51776552  0.75007544  0.41562933  1
  O  O454  1  0.51816118  0.75043936  0.66242544  1
  O  O455  1  0.51920602  0.75051606  0.91436724  1
  O  O456  1  0.48506259  0.24950487  0.08732930  1
  O  O457  1  0.48262793  0.25040209  0.33553337  1
  O  O458  1  0.48414329  0.24982819  0.58496237  1
  O  O459  1  0.48340441  0.25017885  0.83488642  1
  O  O460  1  0.48422891  0.58378162  0.08465919  1
  O  O461  1  0.48184756  0.58330196  0.33612277  1
  O  O462  1  0.48623211  0.58305750  0.58728083  1
  O  O463  1  0.48544871  0.58359354  0.83330677  1
  O  O464  1  0.48598855  0.91669894  0.08634096  1
  O  O465  1  0.48288028  0.91670198  0.33527642  1
  O  O466  1  0.48429672  0.91654659  0.58744234  1
  O  O467  1  0.48433478  0.91696976  0.83688493  1
  O  O468  1  0.98150580  0.24926534  0.08560121  1
  O  O469  1  0.98265891  0.24957281  0.33763639  1
  O  O470  1  0.98324729  0.25068197  0.58689213  1
  O  O471  1  0.98238038  0.24920559  0.83489630  1
  O  O472  1  0.98169997  0.58353005  0.08780469  1
  O  O473  1  0.98193263  0.58348663  0.33567957  1
  O  O474  1  0.98113398  0.58259142  0.58527744  1
  O  O475  1  0.98224814  0.58293817  0.83510082  1
  O  O476  1  0.98270395  0.91707025  0.08476400  1
  O  O477  1  0.98151993  0.91679641  0.33617773  1
  O  O478  1  0.98282133  0.91652428  0.58588155  1
  O  O479  1  0.98253572  0.91705420  0.83691587  1
  O  O480  1  0.08511018  0.31418833  0.07720237  1
  O  O481  1  0.08598035  0.31498655  0.32818518  1
  O  O482  1  0.08685658  0.31618915  0.57745089  1
  O  O483  1  0.08618117  0.31423500  0.82656970  1
  O  O484  1  0.08532869  0.64857261  0.07765672  1
  O  O485  1  0.08628197  0.64785181  0.32680691  1
  O  O486  1  0.08490539  0.64765460  0.57669731  1
  O  O487  1  0.08582007  0.64827136  0.82701335  1
  O  O488  1  0.08679607  0.98245100  0.07693765  1
  O  O489  1  0.08525026  0.98226498  0.32801981  1
  O  O490  1  0.08676579  0.98117702  0.57752762  1
  O  O491  1  0.08610073  0.98262546  0.82764003  1
  O  O492  1  0.58866719  0.31435731  0.07757820  1
  O  O493  1  0.58670146  0.31554751  0.32654452  1
  O  O494  1  0.58772943  0.31586017  0.57702512  1
  O  O495  1  0.58752386  0.31500827  0.82739242  1
  O  O496  1  0.58809611  0.64886424  0.07854943  1
  O  O497  1  0.58598119  0.64833110  0.32855761  1
  O  O498  1  0.58973520  0.64816227  0.57826039  1
  O  O499  1  0.58944575  0.64897147  0.82735320  1
  O  O500  1  0.58928249  0.98258387  0.07778657  1
  O  O501  1  0.58723360  0.98103169  0.32680692  1
  O  O502  1  0.58759578  0.98183691  0.57740120  1
  O  O503  1  0.58828075  0.98141411  0.82699811  1
  O  O504  1  0.41253278  0.01796977  0.17282003  1
  O  O505  1  0.41170673  0.01870880  0.42107755  1
  O  O506  1  0.41313973  0.01771085  0.67208599  1
  O  O507  1  0.41190195  0.01721024  0.92287075  1
  O  O508  1  0.41179678  0.35172131  0.17259506  1
  O  O509  1  0.41115480  0.35128516  0.42303228  1
  O  O510  1  0.41396692  0.35115487  0.67257778  1
  O  O511  1  0.41203569  0.35165669  0.92304109  1
  O  O512  1  0.41506445  0.68535303  0.17285723  1
  O  O513  1  0.41366927  0.68500322  0.42318473  1
  O  O514  1  0.41467195  0.68555391  0.67282670  1
  O  O515  1  0.41517292  0.68599289  0.92253734  1
  O  O516  1  0.91392390  0.01756444  0.17218774  1
  O  O517  1  0.91288942  0.01793788  0.42292760  1
  O  O518  1  0.91006784  0.01937987  0.67306133  1
  O  O519  1  0.91287242  0.01794114  0.92235000  1
  O  O520  1  0.91038602  0.35107696  0.17216819  1
  O  O521  1  0.91215947  0.35157939  0.42241729  1
  O  O522  1  0.91185130  0.35182041  0.67200460  1
  O  O523  1  0.91108827  0.35010147  0.92131695  1
  O  O524  1  0.91147074  0.68610881  0.17236102  1
  O  O525  1  0.91105518  0.68528188  0.42249051  1
  O  O526  1  0.91047045  0.68354279  0.67224166  1
  O  O527  1  0.91038703  0.68599316  0.92204089  1
  O  O528  1  0.16246524  0.01786759  0.20233882  1
  O  O529  1  0.16134358  0.01874513  0.45160598  1
  O  O530  1  0.16134866  0.01873928  0.70262097  1
  O  O531  1  0.16171118  0.01723501  0.95236055  1
  O  O532  1  0.16063111  0.35267667  0.20331512  1
  O  O533  1  0.16103916  0.35128074  0.45228029  1
  O  O534  1  0.16076771  0.35069481  0.70193106  1
  O  O535  1  0.16333141  0.35147646  0.95285480  1
  O  O536  1  0.16298751  0.68381512  0.20311089  1
  O  O537  1  0.16446653  0.68537840  0.45216321  1
  O  O538  1  0.16338390  0.68479146  0.70161505  1
  O  O539  1  0.16192482  0.68620942  0.95243546  1
  O  O540  1  0.66144523  0.01895832  0.20254196  1
  O  O541  1  0.66495742  0.01877484  0.45183045  1
  O  O542  1  0.66530204  0.01738709  0.70267257  1
  O  O543  1  0.66254659  0.01764632  0.95336692  1
  O  O544  1  0.66508347  0.35028732  0.20273332  1
  O  O545  1  0.66520952  0.35138140  0.45205453  1
  O  O546  1  0.66415375  0.35185985  0.70089678  1
  O  O547  1  0.66584181  0.35142917  0.95153189  1
  O  O548  1  0.66040511  0.68573342  0.20323109  1
  O  O549  1  0.66294866  0.68514501  0.45188856  1
  O  O550  1  0.66242547  0.68577114  0.70223109  1
  O  O551  1  0.66039161  0.68601878  0.95267644  1
  O  O552  1  0.33725578  0.31465066  0.04736229  1
  O  O553  1  0.33812278  0.31373591  0.29872662  1
  O  O554  1  0.33529874  0.31610803  0.54712221  1
  O  O555  1  0.33459327  0.31536201  0.79737389  1
  O  O556  1  0.33746471  0.64787259  0.04755457  1
  O  O557  1  0.33656588  0.64853360  0.29864763  1
  O  O558  1  0.33920737  0.64784308  0.54682645  1
  O  O559  1  0.33703497  0.64814477  0.79764216  1
  O  O560  1  0.33682156  0.98278308  0.04670769  1
  O  O561  1  0.33823210  0.98286564  0.29760877  1
  O  O562  1  0.34037036  0.98077946  0.54776101  1
  O  O563  1  0.33920765  0.98192859  0.79794346  1
  O  O564  1  0.83956824  0.31559165  0.04679728  1
  O  O565  1  0.83832030  0.31502601  0.29742179  1
  O  O566  1  0.84066790  0.31472434  0.54706962  1
  O  O567  1  0.84022965  0.31492070  0.79646266  1
  O  O568  1  0.83801157  0.64792047  0.04881889  1
  O  O569  1  0.83904323  0.64766633  0.29816738  1
  O  O570  1  0.83934534  0.64891969  0.54704618  1
  O  O571  1  0.83609566  0.64879633  0.79659580  1
  O  O572  1  0.83698804  0.98151493  0.04888262  1
  O  O573  1  0.83707308  0.98193477  0.29738575  1
  O  O574  1  0.83855413  0.98162482  0.54633095  1
  O  O575  1  0.83672209  0.98141179  0.79877525  1
  O  O576  1  0.41220843  0.14785491  0.17313067  1
  O  O577  1  0.41214691  0.14908029  0.42158570  1
  O  O578  1  0.41250177  0.14793141  0.67267378  1
  O  O579  1  0.41102254  0.14735817  0.92365621  1
  O  O580  1  0.41187145  0.48177813  0.17235966  1
  O  O581  1  0.41141300  0.48155020  0.42318090  1
  O  O582  1  0.41393395  0.48127848  0.67243633  1
  O  O583  1  0.41240420  0.48172899  0.92281793  1
  O  O584  1  0.41488471  0.81534113  0.17272548  1
  O  O585  1  0.41377389  0.81523374  0.42292860  1
  O  O586  1  0.41456834  0.81573437  0.67209514  1
  O  O587  1  0.41554569  0.81619468  0.92268455  1
  O  O588  1  0.91405173  0.14763684  0.17256126  1
  O  O589  1  0.91273637  0.14799170  0.42287034  1
  O  O590  1  0.91136785  0.14956666  0.67201257  1
  O  O591  1  0.91264939  0.14803227  0.92149959  1
  O  O592  1  0.91016734  0.48131604  0.17245630  1
  O  O593  1  0.91212122  0.48173317  0.42212622  1
  O  O594  1  0.91190162  0.48185859  0.67238416  1
  O  O595  1  0.90985486  0.48031332  0.92260223  1
  O  O596  1  0.91188117  0.81635654  0.17194142  1
  O  O597  1  0.91134622  0.81541278  0.42280179  1
  O  O598  1  0.90953429  0.81368074  0.67318613  1
  O  O599  1  0.91090226  0.81625306  0.92172484  1
  O  O600  1  0.08541362  0.18400551  0.07806684  1
  O  O601  1  0.08646741  0.18475276  0.32874231  1
  O  O602  1  0.08719959  0.18613253  0.57704644  1
  O  O603  1  0.08639558  0.18411116  0.82702541  1
  O  O604  1  0.08514296  0.51836132  0.07762005  1
  O  O605  1  0.08559665  0.51771723  0.32704039  1
  O  O606  1  0.08506481  0.51755495  0.57730900  1
  O  O607  1  0.08609392  0.51804466  0.82758148  1
  O  O608  1  0.08688079  0.85245470  0.07611032  1
  O  O609  1  0.08544335  0.85210070  0.32757349  1
  O  O610  1  0.08642675  0.85106294  0.57703037  1
  O  O611  1  0.08626689  0.85243668  0.82703793  1
  O  O612  1  0.58850637  0.18406425  0.07854392  1
  O  O613  1  0.58691469  0.18552451  0.32643695  1
  O  O614  1  0.58825508  0.18557619  0.57706143  1
  O  O615  1  0.58718165  0.18493439  0.82718961  1
  O  O616  1  0.58787968  0.51860050  0.07735232  1
  O  O617  1  0.58569000  0.51821509  0.32751053  1
  O  O618  1  0.58967916  0.51769549  0.57786505  1
  O  O619  1  0.58962625  0.51876845  0.82641967  1
  O  O620  1  0.59016892  0.85240867  0.07838666  1
  O  O621  1  0.58685010  0.85102623  0.32785160  1
  O  O622  1  0.58806881  0.85162424  0.57823595  1
  O  O623  1  0.58812914  0.85147244  0.82761690  1
  O  O624  1  0.33694438  0.18421639  0.04729825  1
  O  O625  1  0.33734139  0.18365806  0.29823717  1
  O  O626  1  0.33565052  0.18589224  0.54748015  1
  O  O627  1  0.33454440  0.18539497  0.79784939  1
  O  O628  1  0.33702587  0.51737845  0.04726012  1
  O  O629  1  0.33654716  0.51862410  0.29894947  1
  O  O630  1  0.33820374  0.51741935  0.54669426  1
  O  O631  1  0.33732264  0.51797017  0.79713567  1
  O  O632  1  0.33689132  0.85255272  0.04746499  1
  O  O633  1  0.33930858  0.85282568  0.29785373  1
  O  O634  1  0.33950161  0.85055079  0.54747619  1
  O  O635  1  0.33972150  0.85194869  0.79807977  1
  O  O636  1  0.83986264  0.18549098  0.04813996  1
  O  O637  1  0.83846052  0.18508654  0.29789418  1
  O  O638  1  0.84038474  0.18448561  0.54676155  1
  O  O639  1  0.83974928  0.18465455  0.79699302  1
  O  O640  1  0.83833214  0.51789539  0.04769784  1
  O  O641  1  0.83889689  0.51749875  0.29734379  1
  O  O642  1  0.83974442  0.51865673  0.54714735  1
  O  O643  1  0.83657401  0.51855237  0.79620377  1
  O  O644  1  0.83676856  0.85163841  0.04861490  1
  O  O645  1  0.83676888  0.85208930  0.29777076  1
  O  O646  1  0.83814967  0.85133713  0.54654690  1
  O  O647  1  0.83647454  0.85140238  0.79852917  1
  O  O648  1  0.16225992  0.14790296  0.20237582  1
  O  O649  1  0.16120040  0.14882298  0.45215770  1
  O  O650  1  0.16091862  0.14901425  0.70351290  1
  O  O651  1  0.16088663  0.14723267  0.95245774  1
  O  O652  1  0.16118028  0.48310042  0.20385425  1
  O  O653  1  0.16089393  0.48134331  0.45194086  1
  O  O654  1  0.16026270  0.48074792  0.70115029  1
  O  O655  1  0.16362141  0.48153745  0.95254342  1
  O  O656  1  0.16231487  0.81417876  0.20271971  1
  O  O657  1  0.16544855  0.81542621  0.45180283  1
  O  O658  1  0.16311358  0.81503967  0.70164695  1
  O  O659  1  0.16285584  0.81654608  0.95225992  1
  O  O660  1  0.66206439  0.14915037  0.20235006  1
  O  O661  1  0.66524550  0.14871552  0.45186365  1
  O  O662  1  0.66538457  0.14765055  0.70209242  1
  O  O663  1  0.66243249  0.14782565  0.95257950  1
  O  O664  1  0.66474440  0.48048560  0.20262908  1
  O  O665  1  0.66526651  0.48137538  0.45200446  1
  O  O666  1  0.66438276  0.48192917  0.70132889  1
  O  O667  1  0.66528585  0.48148202  0.95230588  1
  O  O668  1  0.66083393  0.81597791  0.20379752  1
  O  O669  1  0.66275311  0.81504022  0.45196829  1
  O  O670  1  0.66251772  0.81606843  0.70269479  1
  O  O671  1  0.66133106  0.81617246  0.95317180  1
