# generated using pymatgen
data_Na2MnFe(PO4)2
_symmetry_space_group_name_H-M   'P 1'
_cell_length_a   21.08069246
_cell_length_b   18.93315668
_cell_length_c   20.04066420
_cell_angle_alpha   89.99994259
_cell_angle_beta   90.00224231
_cell_angle_gamma   90.00076601
_symmetry_Int_Tables_number   1
_chemical_formula_structural   Na2MnFe(PO4)2
_chemical_formula_sum   'Na96 Mn48 Fe48 P96 O384'
_cell_volume   7998.71112079
_cell_formula_units_Z   48
loop_
 _symmetry_equiv_pos_site_id
 _symmetry_equiv_pos_as_xyz
  1  'x, y, z'
loop_
 _atom_site_type_symbol
 _atom_site_label
 _atom_site_symmetry_multiplicity
 _atom_site_fract_x
 _atom_site_fract_y
 _atom_site_fract_z
 _atom_site_occupancy
  Na  Na0  1  0.00167760  0.00042245  0.00016319  1
  Na  Na1  1  -0.00080623  -0.00042992  0.25033661  1
  Na  Na2  1  0.00007311  0.00033562  0.49954878  1
  Na  Na3  1  0.00155325  0.00009238  0.75101865  1
  Na  Na4  1  0.00172123  0.33406396  0.00022653  1
  Na  Na5  1  0.00239004  0.33380988  0.24974016  1
  Na  Na6  1  0.00122151  0.33410320  0.49952906  1
  Na  Na7  1  -0.00033683  0.33362674  0.75051177  1
  Na  Na8  1  0.00171366  0.66691937  0.00028596  1
  Na  Na9  1  0.00144738  0.66652339  0.24844326  1
  Na  Na10  1  0.00021128  0.66642101  0.50021569  1
  Na  Na11  1  -0.00073804  0.66620038  0.75147728  1
  Na  Na12  1  0.49785142  -0.00046057  0.00091390  1
  Na  Na13  1  0.49870167  0.00083160  0.24898471  1
  Na  Na14  1  0.49924366  0.00054319  0.49946012  1
  Na  Na15  1  0.49867746  -0.00003054  0.74954175  1
  Na  Na16  1  0.49871154  0.33461812  0.00000203  1
  Na  Na17  1  0.49866055  0.33412306  0.24997672  1
  Na  Na18  1  0.49957065  0.33349541  0.49948029  1
  Na  Na19  1  0.49814548  0.33336790  0.75047235  1
  Na  Na20  1  0.49923716  0.66601415  -0.00024377  1
  Na  Na21  1  0.50045025  0.66636018  0.25010137  1
  Na  Na22  1  0.50252749  0.66670273  0.49960701  1
  Na  Na23  1  0.50192623  0.66679076  0.75121403  1
  Na  Na24  1  0.25129912  0.00018870  0.12441344  1
  Na  Na25  1  0.25232311  0.00100273  0.37605598  1
  Na  Na26  1  0.25157387  0.00026406  0.62527782  1
  Na  Na27  1  0.25150335  0.00004093  0.87374023  1
  Na  Na28  1  0.24969266  0.33365674  0.12500321  1
  Na  Na29  1  0.24999186  0.33328405  0.37549005  1
  Na  Na30  1  0.25037214  0.33386115  0.62476460  1
  Na  Na31  1  0.24928129  0.33404884  0.87410093  1
  Na  Na32  1  0.24918734  0.66574486  0.12459561  1
  Na  Na33  1  0.25029923  0.66672668  0.37529179  1
  Na  Na34  1  0.24993151  0.66687531  0.62532647  1
  Na  Na35  1  0.25048066  0.66697922  0.87512981  1
  Na  Na36  1  0.75084304  0.00056874  0.12528251  1
  Na  Na37  1  0.74866005  0.00084854  0.37535869  1
  Na  Na38  1  0.74810289  0.00014095  0.62446982  1
  Na  Na39  1  0.75013765  -0.00005755  0.87489902  1
  Na  Na40  1  0.74875759  0.33387128  0.12548565  1
  Na  Na41  1  0.74920777  0.33351180  0.37388378  1
  Na  Na42  1  0.75098336  0.33451341  0.62596390  1
  Na  Na43  1  0.75028751  0.33433197  0.87583177  1
  Na  Na44  1  0.74866306  0.66560875  0.12392912  1
  Na  Na45  1  0.74863733  0.66595434  0.37522661  1
  Na  Na46  1  0.74817677  0.66540467  0.62395500  1
  Na  Na47  1  0.75051361  0.66668754  0.87580879  1
  Na  Na48  1  0.00170687  0.16728824  0.00086473  1
  Na  Na49  1  0.00081177  0.16729415  0.25070626  1
  Na  Na50  1  0.00238237  0.16626755  0.49886061  1
  Na  Na51  1  0.00166949  0.16717641  0.75093564  1
  Na  Na52  1  0.00092346  0.49970255  0.00050727  1
  Na  Na53  1  0.00125747  0.49935294  0.24879727  1
  Na  Na54  1  -0.00194366  0.50031945  0.50031043  1
  Na  Na55  1  -0.00072938  0.49943229  0.75072753  1
  Na  Na56  1  0.00128158  0.83256418  -0.00097830  1
  Na  Na57  1  0.00164547  0.83219428  0.24924773  1
  Na  Na58  1  0.00053746  0.83258461  0.49984873  1
  Na  Na59  1  0.00015510  0.83279841  0.75145831  1
  Na  Na60  1  0.49690497  0.16782777  0.00049033  1
  Na  Na61  1  0.49686618  0.16765074  0.24996062  1
  Na  Na62  1  0.50047355  0.16658848  0.49905967  1
  Na  Na63  1  0.50094444  0.16636356  0.74967427  1
  Na  Na64  1  0.50064748  0.49976023  0.00018771  1
  Na  Na65  1  0.50080733  0.50000070  0.24943027  1
  Na  Na66  1  0.50262882  0.49928625  0.50025130  1
  Na  Na67  1  0.50091052  0.50022221  0.75057935  1
  Na  Na68  1  0.49791080  0.83245658  0.00006487  1
  Na  Na69  1  0.49906585  0.83230108  0.24940555  1
  Na  Na70  1  0.49960523  0.83250576  0.49923969  1
  Na  Na71  1  0.49689214  0.83378616  0.75082074  1
  Na  Na72  1  0.25182159  0.16719924  0.12529446  1
  Na  Na73  1  0.25186018  0.16726571  0.37547797  1
  Na  Na74  1  0.25015996  0.16746406  0.62436898  1
  Na  Na75  1  0.25076424  0.16758452  0.87379188  1
  Na  Na76  1  0.25001050  0.49995302  0.12482872  1
  Na  Na77  1  0.24963794  0.50012941  0.37536885  1
  Na  Na78  1  0.24994865  0.49965710  0.62529133  1
  Na  Na79  1  0.24982107  0.49967787  0.87504194  1
  Na  Na80  1  0.24937839  0.83267781  0.12377098  1
  Na  Na81  1  0.25053059  0.83257544  0.37613787  1
  Na  Na82  1  0.25122295  0.83255750  0.62564748  1
  Na  Na83  1  0.24989055  0.83267826  0.87420211  1
  Na  Na84  1  0.75141491  0.16602350  0.12537986  1
  Na  Na85  1  0.74846701  0.16673603  0.37518270  1
  Na  Na86  1  0.74708404  0.16762316  0.62444827  1
  Na  Na87  1  0.74994674  0.16672554  0.87477427  1
  Na  Na88  1  0.74790131  0.50042819  0.12461191  1
  Na  Na89  1  0.74829011  0.50016466  0.37411107  1
  Na  Na90  1  0.74957075  0.49996496  0.62491305  1
  Na  Na91  1  0.74966908  0.49992435  0.87594852  1
  Na  Na92  1  0.74881343  0.83325618  0.12480631  1
  Na  Na93  1  0.75003154  0.83246893  0.37529901  1
  Na  Na94  1  0.74994229  0.83286032  0.62507974  1
  Na  Na95  1  0.75175569  0.83165100  0.87575091  1
  Mn  Mn96  1  0.64122498  0.25007060  0.24702801  1
  Mn  Mn97  1  0.10862723  0.08295270  0.37247213  1
  Mn  Mn98  1  0.14276744  0.91736091  0.49835320  1
  Mn  Mn99  1  0.10923732  0.08320296  0.12308652  1
  Mn  Mn100  1  0.14308933  0.91658569  0.74717184  1
  Mn  Mn101  1  0.10801627  0.74942180  0.37267711  1
  Mn  Mn102  1  0.64143873  0.91571825  0.74804299  1
  Mn  Mn103  1  0.35827241  0.41687927  0.50241884  1
  Mn  Mn104  1  0.14146337  0.58286943  0.49791657  1
  Mn  Mn105  1  0.89235110  0.91708690  0.62749250  1
  Mn  Mn106  1  0.89260097  0.25035388  0.87773809  1
  Mn  Mn107  1  0.35842075  0.74994597  0.50313157  1
  Mn  Mn108  1  0.39253812  0.58271735  0.37693472  1
  Mn  Mn109  1  0.60825135  0.41637143  0.62296350  1
  Mn  Mn110  1  0.39099993  0.91584668  0.12757642  1
  Mn  Mn111  1  0.10928696  0.08353776  0.87303655  1
  Mn  Mn112  1  0.64088540  0.91697608  0.49755365  1
  Mn  Mn113  1  0.89273831  0.91652802  0.87747878  1
  Mn  Mn114  1  0.39336211  0.58331121  0.62740012  1
  Mn  Mn115  1  0.60753874  0.75021670  0.87274862  1
  Mn  Mn116  1  0.85684639  0.08419466  0.50274698  1
  Mn  Mn117  1  0.85863232  0.08345779  0.00263932  1
  Mn  Mn118  1  0.89156567  0.58356677  0.62756832  1
  Mn  Mn119  1  0.14285566  0.91674738  0.24753198  1
  Mn  Mn120  1  0.14188612  0.58336960  0.74796990  1
  Mn  Mn121  1  0.89244071  0.24939515  0.62626717  1
  Mn  Mn122  1  0.60708399  0.08339346  0.87329074  1
  Mn  Mn123  1  0.89173417  0.91592276  0.37731734  1
  Mn  Mn124  1  0.64176515  0.91637107  0.99749399  1
  Mn  Mn125  1  0.39189134  0.91690039  0.37712429  1
  Mn  Mn126  1  0.89237139  0.25064177  0.37748861  1
  Mn  Mn127  1  0.89343108  0.24995753  0.12719591  1
  Mn  Mn128  1  0.60660859  0.08360290  0.12248134  1
  Mn  Mn129  1  0.85797381  0.08324768  0.75161157  1
  Mn  Mn130  1  0.14239268  0.25039188  0.74693857  1
  Mn  Mn131  1  0.64143502  0.25009800  0.99846419  1
  Mn  Mn132  1  0.60780712  0.75033272  0.37180753  1
  Mn  Mn133  1  0.85750785  0.74945644  0.50251308  1
  Mn  Mn134  1  0.85740630  0.41657529  0.25153507  1
  Mn  Mn135  1  0.64183555  0.91625678  0.24720065  1
  Mn  Mn136  1  0.10783780  0.41730658  0.37280307  1
  Mn  Mn137  1  0.85766290  0.74991942  0.25123126  1
  Mn  Mn138  1  0.64204810  0.25057017  0.74765095  1
  Mn  Mn139  1  0.39256520  0.58347491  0.87734570  1
  Mn  Mn140  1  0.89317641  0.58311672  0.12695232  1
  Mn  Mn141  1  0.89304254  0.91677693  0.12701224  1
  Mn  Mn142  1  0.39179191  0.25005866  0.87741006  1
  Mn  Mn143  1  0.35850026  0.08357222  0.75194911  1
  Fe  Fe144  1  0.35745607  0.08334975  0.25220102  1
  Fe  Fe145  1  0.85693220  0.41679291  0.00220046  1
  Fe  Fe146  1  0.35697125  0.41723957  0.00158112  1
  Fe  Fe147  1  0.14359677  0.91661579  0.99817603  1
  Fe  Fe148  1  0.10744750  0.74991176  0.62417171  1
  Fe  Fe149  1  0.89257562  0.58311082  0.87730753  1
  Fe  Fe150  1  0.14396004  0.25019513  0.99879236  1
  Fe  Fe151  1  0.10894662  0.41697988  0.12268679  1
  Fe  Fe152  1  0.10721472  0.74910892  0.87321059  1
  Fe  Fe153  1  0.35721826  0.41764385  0.75168541  1
  Fe  Fe154  1  0.14338346  0.58297458  0.99794285  1
  Fe  Fe155  1  0.14365795  0.24992497  0.49868051  1
  Fe  Fe156  1  0.39179646  0.91652817  0.87714719  1
  Fe  Fe157  1  0.85769016  0.41717283  0.75242678  1
  Fe  Fe158  1  0.60719191  0.41630496  0.87351428  1
  Fe  Fe159  1  0.35706353  0.41731957  0.25159429  1
  Fe  Fe160  1  0.10873027  0.74977144  0.12238055  1
  Fe  Fe161  1  0.14424047  0.25040313  0.24865532  1
  Fe  Fe162  1  0.39232649  0.58301852  0.12670679  1
  Fe  Fe163  1  0.60591097  0.08381466  0.37253853  1
  Fe  Fe164  1  0.35628242  0.74919758  0.00198261  1
  Fe  Fe165  1  0.64209964  0.58351134  0.24753993  1
  Fe  Fe166  1  0.10726593  0.41747617  0.87340330  1
  Fe  Fe167  1  0.60731717  0.41569620  0.37298865  1
  Fe  Fe168  1  0.60656973  0.08308872  0.62332090  1
  Fe  Fe169  1  0.10833676  0.08330779  0.62269418  1
  Fe  Fe170  1  0.60578284  0.41695924  0.12289541  1
  Fe  Fe171  1  0.14284050  0.58291088  0.24829519  1
  Fe  Fe172  1  0.64143139  0.25098793  0.49800439  1
  Fe  Fe173  1  0.35789133  0.08373490  0.50242247  1
  Fe  Fe174  1  0.85733887  0.08339823  0.25219924  1
  Fe  Fe175  1  0.39307477  0.25014770  0.62605528  1
  Fe  Fe176  1  0.85757737  0.74949883  0.75157349  1
  Fe  Fe177  1  0.85747883  0.74943813  0.00226903  1
  Fe  Fe178  1  0.39268328  0.25066342  0.37695580  1
  Fe  Fe179  1  0.89203098  0.58308744  0.37558105  1
  Fe  Fe180  1  0.35675096  0.74921465  0.25094226  1
  Fe  Fe181  1  0.39124554  0.25142905  0.12678874  1
  Fe  Fe182  1  0.35778927  0.74878371  0.75167478  1
  Fe  Fe183  1  0.85649012  0.41611867  0.50109461  1
  Fe  Fe184  1  0.64298611  0.58228363  0.49779041  1
  Fe  Fe185  1  0.64371571  0.58348896  0.74902658  1
  Fe  Fe186  1  0.39309772  0.91639871  0.62660695  1
  Fe  Fe187  1  0.60630816  0.74941483  0.12289413  1
  Fe  Fe188  1  0.60742087  0.75081561  0.62432517  1
  Fe  Fe189  1  0.64263763  0.58326615  0.99846625  1
  Fe  Fe190  1  0.10689953  0.41656295  0.62332506  1
  Fe  Fe191  1  0.35696013  0.08357661  0.00144066  1
  P  P192  1  0.05679850  0.25081946  0.11082874  1
  P  P193  1  0.05587050  0.25024044  0.36033985  1
  P  P194  1  0.05432434  0.25039366  0.60915030  1
  P  P195  1  0.05569475  0.25145870  0.86166068  1
  P  P196  1  0.05650434  0.58297294  0.11024224  1
  P  P197  1  0.05244385  0.58300577  0.35881281  1
  P  P198  1  0.05298243  0.58304607  0.61071178  1
  P  P199  1  0.05373744  0.58302419  0.86187812  1
  P  P200  1  0.05507219  0.91594553  0.10896978  1
  P  P201  1  0.05346464  0.91636904  0.35968151  1
  P  P202  1  0.05359802  0.91632773  0.61025706  1
  P  P203  1  0.05585758  0.91559134  0.86141870  1
  P  P204  1  0.55064240  0.25112635  0.11023446  1
  P  P205  1  0.55288752  0.25011910  0.36072368  1
  P  P206  1  0.55256668  0.24996428  0.60939169  1
  P  P207  1  0.55292084  0.25109030  0.86028303  1
  P  P208  1  0.55359037  0.58337988  0.11052346  1
  P  P209  1  0.55542827  0.58198726  0.36017426  1
  P  P210  1  0.55605373  0.58427145  0.61112384  1
  P  P211  1  0.55564452  0.58239683  0.86108831  1
  P  P212  1  0.55240600  0.91544834  0.10984535  1
  P  P213  1  0.55250857  0.91783061  0.35920303  1
  P  P214  1  0.55171599  0.91611563  0.61026269  1
  P  P215  1  0.55104609  0.91651838  0.86018385  1
  P  P216  1  0.44343014  0.08435075  0.13928422  1
  P  P217  1  0.44495772  0.08451236  0.38925357  1
  P  P218  1  0.44657320  0.08391992  0.63827811  1
  P  P219  1  0.44553691  0.08271487  0.89084582  1
  P  P220  1  0.44483357  0.41765642  0.13905452  1
  P  P221  1  0.44667661  0.41651447  0.38863282  1
  P  P222  1  0.44660349  0.41626102  0.64066899  1
  P  P223  1  0.44585662  0.41734682  0.88977377  1
  P  P224  1  0.44521040  0.74818484  0.13908343  1
  P  P225  1  0.44533367  0.74925245  0.38866834  1
  P  P226  1  0.44787913  0.74982701  0.64085539  1
  P  P227  1  0.44447857  0.75009854  0.88985118  1
  P  P228  1  0.94725420  0.08358921  0.14118514  1
  P  P229  1  0.94554995  0.08358479  0.38931058  1
  P  P230  1  0.94891739  0.08390536  0.64002731  1
  P  P231  1  0.94777923  0.08364720  0.89042079  1
  P  P232  1  0.94770014  0.41657301  0.13873528  1
  P  P233  1  0.94576158  0.41773564  0.39006308  1
  P  P234  1  0.94573902  0.41621293  0.63943139  1
  P  P235  1  0.94584077  0.41767224  0.89012115  1
  P  P236  1  0.94771197  0.74972304  0.13831225  1
  P  P237  1  0.94639803  0.74830733  0.38958589  1
  P  P238  1  0.94746518  0.74988660  0.64106021  1
  P  P239  1  0.94568388  0.74870363  0.88975205  1
  P  P240  1  0.19902670  0.08429647  0.23546079  1
  P  P241  1  0.19736658  0.08431590  0.48620599  1
  P  P242  1  0.19691314  0.08352915  0.73380969  1
  P  P243  1  0.19871263  0.08372736  0.98503340  1
  P  P244  1  0.19740443  0.41682423  0.23491290  1
  P  P245  1  0.19563957  0.41589460  0.48630388  1
  P  P246  1  0.19593813  0.41724193  0.73529610  1
  P  P247  1  0.19644735  0.41695747  0.98553602  1
  P  P248  1  0.19729610  0.74903662  0.23441916  1
  P  P249  1  0.19566147  0.74996570  0.48649052  1
  P  P250  1  0.19655836  0.74950515  0.73576268  1
  P  P251  1  0.19597416  0.74932714  0.98523100  1
  P  P252  1  0.69608146  0.08355026  0.23573968  1
  P  P253  1  0.69327033  0.08466491  0.48537187  1
  P  P254  1  0.69549825  0.08310630  0.73420522  1
  P  P255  1  0.69682358  0.08352619  0.98500192  1
  P  P256  1  0.69396342  0.41743471  0.23497829  1
  P  P257  1  0.69646646  0.41618190  0.48427165  1
  P  P258  1  0.69702284  0.41783027  0.73679778  1
  P  P259  1  0.69509372  0.41740506  0.98607763  1
  P  P260  1  0.69570273  0.74886717  0.23367969  1
  P  P261  1  0.69481025  0.74929191  0.48621351  1
  P  P262  1  0.69759715  0.74882024  0.73499944  1
  P  P263  1  0.69618562  0.74885029  0.98631858  1
  P  P264  1  0.30304855  0.25100576  0.01498868  1
  P  P265  1  0.30471995  0.25128648  0.26447321  1
  P  P266  1  0.30483315  0.24979987  0.51448888  1
  P  P267  1  0.30499281  0.25138420  0.76316890  1
  P  P268  1  0.30299850  0.58313042  0.01504521  1
  P  P269  1  0.30328656  0.58310911  0.26355288  1
  P  P270  1  0.30331061  0.58314405  0.51556813  1
  P  P271  1  0.30361259  0.58309562  0.76498136  1
  P  P272  1  0.30336537  0.91601013  0.01319083  1
  P  P273  1  0.30316591  0.91584081  0.26501296  1
  P  P274  1  0.30461812  0.91744637  0.51609526  1
  P  P275  1  0.30608639  0.91549090  0.76409755  1
  P  P276  1  0.80334965  0.25141732  0.01551176  1
  P  P277  1  0.80324532  0.24962861  0.26489809  1
  P  P278  1  0.80124278  0.25117026  0.51471726  1
  P  P279  1  0.80361878  0.25064386  0.76502473  1
  P  P280  1  0.80397888  0.58281711  0.01385770  1
  P  P281  1  0.80233304  0.58325861  0.26473198  1
  P  P282  1  0.80320127  0.58176172  0.51329300  1
  P  P283  1  0.80339061  0.58345489  0.76581846  1
  P  P284  1  0.80356579  0.91549765  0.01527646  1
  P  P285  1  0.80304373  0.91704115  0.26500871  1
  P  P286  1  0.80249462  0.91687182  0.51531521  1
  P  P287  1  0.80314692  0.91578892  0.76506206  1
  O  O288  1  0.06105648  0.25019166  0.18762132  1
  O  O289  1  0.06034639  0.24999113  0.43706106  1
  O  O290  1  0.05664487  0.25058251  0.68604592  1
  O  O291  1  0.06034108  0.25057865  0.93840840  1
  O  O292  1  0.06035921  0.58282161  0.18704923  1
  O  O293  1  0.05606989  0.58281020  0.43556906  1
  O  O294  1  0.05570713  0.58280697  0.68751694  1
  O  O295  1  0.05877925  0.58300104  0.93851125  1
  O  O296  1  0.05771905  0.91647715  0.18582333  1
  O  O297  1  0.05706069  0.91683541  0.43644322  1
  O  O298  1  0.05641749  0.91640720  0.68709614  1
  O  O299  1  0.06039961  0.91660295  0.93817334  1
  O  O300  1  0.55448000  0.25039098  0.18692682  1
  O  O301  1  0.55730601  0.25064345  0.43738970  1
  O  O302  1  0.55615553  0.25084061  0.68613567  1
  O  O303  1  0.55561716  0.25096101  0.93705919  1
  O  O304  1  0.55782369  0.58364397  0.18723917  1
  O  O305  1  0.55951477  0.58246493  0.43700912  1
  O  O306  1  0.55988550  0.58332185  0.68793252  1
  O  O307  1  0.55928401  0.58325168  0.93788346  1
  O  O308  1  0.55564820  0.91602576  0.18661611  1
  O  O309  1  0.55526710  0.91699288  0.43602258  1
  O  O310  1  0.55496659  0.91612813  0.68698456  1
  O  O311  1  0.55508438  0.91602048  0.93687792  1
  O  O312  1  0.43919871  0.08358075  0.06246052  1
  O  O313  1  0.44028916  0.08370313  0.31243614  1
  O  O314  1  0.44250592  0.08409105  0.56154293  1
  O  O315  1  0.44336264  0.08369068  0.81397234  1
  O  O316  1  0.44023668  0.41760790  0.06233298  1
  O  O317  1  0.44163629  0.41755380  0.31198139  1
  O  O318  1  0.44382958  0.41725727  0.56384442  1
  O  O319  1  0.44108562  0.41771205  0.81312464  1
  O  O320  1  0.44018382  0.74872834  0.06238608  1
  O  O321  1  0.44049225  0.74898935  0.31193036  1
  O  O322  1  0.44472724  0.74869529  0.56405348  1
  O  O323  1  0.44065890  0.74879349  0.81308661  1
  O  O324  1  0.94423770  0.08389234  0.06432813  1
  O  O325  1  0.94079406  0.08382904  0.31256229  1
  O  O326  1  0.94420930  0.08413430  0.56333123  1
  O  O327  1  0.94419254  0.08371406  0.81365458  1
  O  O328  1  0.94213512  0.41660093  0.06215148  1
  O  O329  1  0.94302829  0.41648767  0.31324089  1
  O  O330  1  0.94059921  0.41634061  0.56278040  1
  O  O331  1  0.94105203  0.41707037  0.81333901  1
  O  O332  1  0.94224341  0.74949320  0.06168079  1
  O  O333  1  0.94356290  0.74901482  0.31277661  1
  O  O334  1  0.94336446  0.74953415  0.56433042  1
  O  O335  1  0.94085170  0.74925063  0.81305697  1
  O  O336  1  0.19561090  0.08358281  0.06173975  1
  O  O337  1  0.19543353  0.08378390  0.31216235  1
  O  O338  1  0.19236106  0.08346884  0.56286598  1
  O  O339  1  0.19388631  0.08355670  0.81062780  1
  O  O340  1  0.19256474  0.41710188  0.06226990  1
  O  O341  1  0.19403527  0.41713903  0.31164431  1
  O  O342  1  0.19130569  0.41678125  0.56301351  1
  O  O343  1  0.19111284  0.41739510  0.81200657  1
  O  O344  1  0.19195765  0.74943476  0.06199249  1
  O  O345  1  0.19407103  0.74956878  0.31120141  1
  O  O346  1  0.19101871  0.74982844  0.56324323  1
  O  O347  1  0.19147171  0.74917559  0.81242990  1
  O  O348  1  0.69303609  0.08363446  0.06180594  1
  O  O349  1  0.69047708  0.08390522  0.31238061  1
  O  O350  1  0.68882092  0.08355593  0.56220672  1
  O  O351  1  0.69253767  0.08311514  0.81101730  1
  O  O352  1  0.68990599  0.41662538  0.06278394  1
  O  O353  1  0.69014470  0.41614225  0.31173248  1
  O  O354  1  0.69358367  0.41597198  0.56113639  1
  O  O355  1  0.69212877  0.41664690  0.81334098  1
  O  O356  1  0.69076932  0.74947871  0.06290054  1
  O  O357  1  0.69305303  0.74973159  0.31053458  1
  O  O358  1  0.69084148  0.75045125  0.56295677  1
  O  O359  1  0.69391264  0.74999255  0.81173263  1
  O  O360  1  0.30855908  0.25149930  0.18767502  1
  O  O361  1  0.30920793  0.25068923  0.43772443  1
  O  O362  1  0.30916053  0.25058206  0.68644353  1
  O  O363  1  0.30607522  0.25131427  0.93821570  1
  O  O364  1  0.30772167  0.58299963  0.18689375  1
  O  O365  1  0.30674927  0.58302055  0.43875779  1
  O  O366  1  0.30686661  0.58324852  0.68829461  1
  O  O367  1  0.30661749  0.58298800  0.93837596  1
  O  O368  1  0.30518503  0.91576839  0.18811995  1
  O  O369  1  0.30724069  0.91658797  0.43926434  1
  O  O370  1  0.31042405  0.91622447  0.68729550  1
  O  O371  1  0.30727847  0.91592206  0.93646982  1
  O  O372  1  0.80707978  0.25023203  0.18815622  1
  O  O373  1  0.80537609  0.25025284  0.43807257  1
  O  O374  1  0.80656145  0.25011052  0.68823260  1
  O  O375  1  0.80648729  0.25102421  0.93873091  1
  O  O376  1  0.80677456  0.58302067  0.18799859  1
  O  O377  1  0.80762632  0.58281339  0.43672185  1
  O  O378  1  0.80624328  0.58316915  0.68895589  1
  O  O379  1  0.80852981  0.58296633  0.93720676  1
  O  O380  1  0.80643991  0.91653745  0.18822019  1
  O  O381  1  0.80582206  0.91694938  0.43852114  1
  O  O382  1  0.80609966  0.91674248  0.68825023  1
  O  O383  1  0.80683942  0.91586429  0.93847386  1
  O  O384  1  0.23305850  0.25079361  0.03991554  1
  O  O385  1  0.23441564  0.25094548  0.28863924  1
  O  O386  1  0.23455383  0.25031496  0.53834343  1
  O  O387  1  0.23501975  0.25098005  0.78746613  1
  O  O388  1  0.23275244  0.58295736  0.03913484  1
  O  O389  1  0.23304511  0.58296956  0.28792093  1
  O  O390  1  0.23359670  0.58312067  0.54045501  1
  O  O391  1  0.23398198  0.58326029  0.79028201  1
  O  O392  1  0.23321921  0.91581883  0.03775387  1
  O  O393  1  0.23390088  0.91640132  0.29145081  1
  O  O394  1  0.23501943  0.91674658  0.54142367  1
  O  O395  1  0.23592726  0.91626894  0.78784115  1
  O  O396  1  0.73368031  0.25062730  0.04080800  1
  O  O397  1  0.73327514  0.25014933  0.28925047  1
  O  O398  1  0.73119125  0.25122749  0.53926416  1
  O  O399  1  0.73392376  0.25057790  0.79029598  1
  O  O400  1  0.73359728  0.58272792  0.03765732  1
  O  O401  1  0.73205439  0.58319205  0.28845529  1
  O  O402  1  0.73294586  0.58203207  0.53747090  1
  O  O403  1  0.73346209  0.58341872  0.79086942  1
  O  O404  1  0.73384149  0.91635778  0.04033434  1
  O  O405  1  0.73332800  0.91652235  0.29019846  1
  O  O406  1  0.73265642  0.91672617  0.54000583  1
  O  O407  1  0.73352970  0.91567430  0.79057664  1
  O  O408  1  0.26906550  0.08408672  0.21078034  1
  O  O409  1  0.26775509  0.08412865  0.46264851  1
  O  O410  1  0.26677563  0.08378944  0.70924891  1
  O  O411  1  0.26860543  0.08399128  0.95963324  1
  O  O412  1  0.26750221  0.41676934  0.21028282  1
  O  O413  1  0.26562660  0.41631644  0.46196656  1
  O  O414  1  0.26633725  0.41711139  0.71178536  1
  O  O415  1  0.26685124  0.41726720  0.96153151  1
  O  O416  1  0.26728691  0.74924557  0.20947537  1
  O  O417  1  0.26578192  0.74983782  0.46267043  1
  O  O418  1  0.26706744  0.74941597  0.71248774  1
  O  O419  1  0.26641783  0.74922749  0.96147771  1
  O  O420  1  0.76656685  0.08359084  0.21258275  1
  O  O421  1  0.76349394  0.08397605  0.46177159  1
  O  O422  1  0.76521226  0.08362837  0.70897388  1
  O  O423  1  0.76659934  0.08346528  0.96023403  1
  O  O424  1  0.76407344  0.41712552  0.21084012  1
  O  O425  1  0.76628118  0.41644767  0.45902935  1
  O  O426  1  0.76733938  0.41781545  0.71284828  1
  O  O427  1  0.76559162  0.41732250  0.96281628  1
  O  O428  1  0.76537159  0.74914169  0.20841778  1
  O  O429  1  0.76475472  0.74916998  0.46169759  1
  O  O430  1  0.76762629  0.74895313  0.71023498  1
  O  O431  1  0.76664852  0.74877010  0.96297523  1
  O  O432  1  0.01711112  0.08337610  0.16596839  1
  O  O433  1  0.01581674  0.08349167  0.41275384  1
  O  O434  1  0.01910314  0.08388527  0.66414924  1
  O  O435  1  0.01761300  0.08373781  0.91519066  1
  O  O436  1  0.01821889  0.41681003  0.16186303  1
  O  O437  1  0.01548953  0.41730365  0.41514327  1
  O  O438  1  0.01622454  0.41626532  0.66293652  1
  O  O439  1  0.01635815  0.41731450  0.91344743  1
  O  O440  1  0.01823975  0.74934965  0.16137292  1
  O  O441  1  0.01600553  0.74900197  0.41500740  1
  O  O442  1  0.01759650  0.74955684  0.66543990  1
  O  O443  1  0.01627725  0.74923458  0.91294682  1
  O  O444  1  0.51354528  0.08385766  0.16329014  1
  O  O445  1  0.51531035  0.08384114  0.41272031  1
  O  O446  1  0.51672359  0.08350929  0.66283384  1
  O  O447  1  0.51495845  0.08362338  0.91676345  1
  O  O448  1  0.51528822  0.41756373  0.16262227  1
  O  O449  1  0.51695944  0.41620321  0.41246553  1
  O  O450  1  0.51641757  0.41672146  0.66566579  1
  O  O451  1  0.51618860  0.41723072  0.91342773  1
  O  O452  1  0.51564144  0.74883408  0.16252053  1
  O  O453  1  0.51549524  0.74931854  0.41224486  1
  O  O454  1  0.51778222  0.75006471  0.66601626  1
  O  O455  1  0.51458812  0.74927086  0.91388568  1
  O  O456  1  0.48050512  0.25140089  0.08584295  1
  O  O457  1  0.48260568  0.25040459  0.33663444  1
  O  O458  1  0.48252055  0.25045628  0.58472974  1
  O  O459  1  0.48332471  0.25030253  0.83489244  1
  O  O460  1  0.48321479  0.58296662  0.08656595  1
  O  O461  1  0.48534119  0.58300075  0.33608351  1
  O  O462  1  0.48609801  0.58292933  0.58647722  1
  O  O463  1  0.48555769  0.58335614  0.83699455  1
  O  O464  1  0.48250132  0.91561255  0.08520287  1
  O  O465  1  0.48294213  0.91730619  0.33370379  1
  O  O466  1  0.48180625  0.91617246  0.58495024  1
  O  O467  1  0.48102277  0.91660017  0.83576446  1
  O  O468  1  0.98670642  0.25050480  0.08676493  1
  O  O469  1  0.98566463  0.25077770  0.33666378  1
  O  O470  1  0.98478181  0.25019577  0.58334073  1
  O  O471  1  0.98565284  0.25103548  0.83759460  1
  O  O472  1  0.98638358  0.58319596  0.08613415  1
  O  O473  1  0.98255614  0.58273347  0.33386706  1
  O  O474  1  0.98334133  0.58326465  0.58527331  1
  O  O475  1  0.98343647  0.58293391  0.83805854  1
  O  O476  1  0.98544391  0.91644679  0.08360626  1
  O  O477  1  0.98376940  0.91586484  0.33473424  1
  O  O478  1  0.98408596  0.91647894  0.58443603  1
  O  O479  1  0.98576778  0.91587273  0.83748277  1
  O  O480  1  0.09028944  0.31597572  0.07779651  1
  O  O481  1  0.08965530  0.31519975  0.32721423  1
  O  O482  1  0.08863734  0.31562759  0.57711629  1
  O  O483  1  0.08873113  0.31695518  0.82877355  1
  O  O484  1  0.09031479  0.64794193  0.07719585  1
  O  O485  1  0.08676660  0.64794219  0.32627005  1
  O  O486  1  0.08720362  0.64820596  0.57864472  1
  O  O487  1  0.08700754  0.64816332  0.82850920  1
  O  O488  1  0.08981454  0.98094428  0.07678338  1
  O  O489  1  0.08733603  0.98151057  0.32696954  1
  O  O490  1  0.08797059  0.98145642  0.57796973  1
  O  O491  1  0.08959045  0.98040212  0.82801178  1
  O  O492  1  0.58460528  0.31618590  0.07780989  1
  O  O493  1  0.58646924  0.31494108  0.32728676  1
  O  O494  1  0.58666769  0.31496999  0.57643582  1
  O  O495  1  0.58666506  0.31646762  0.82788929  1
  O  O496  1  0.58703755  0.64833543  0.07697178  1
  O  O497  1  0.58953693  0.64672141  0.32687852  1
  O  O498  1  0.58903397  0.64983400  0.57857043  1
  O  O499  1  0.58987107  0.64699778  0.82776907  1
  O  O500  1  0.58621308  0.98064885  0.07733954  1
  O  O501  1  0.58631370  0.98324114  0.32725715  1
  O  O502  1  0.58555218  0.98119045  0.57760106  1
  O  O503  1  0.58485904  0.98156882  0.82761720  1
  O  O504  1  0.40962684  0.01933805  0.17250740  1
  O  O505  1  0.41118845  0.01982044  0.42282906  1
  O  O506  1  0.41291151  0.01891280  0.67119444  1
  O  O507  1  0.41139951  0.01736445  0.92261705  1
  O  O508  1  0.41137407  0.35276933  0.17256242  1
  O  O509  1  0.41311649  0.35139680  0.42154739  1
  O  O510  1  0.41254591  0.35096362  0.67248477  1
  O  O511  1  0.41214405  0.35241877  0.92300022  1
  O  O512  1  0.41225078  0.68293513  0.17245613  1
  O  O513  1  0.41215967  0.68433239  0.42229990  1
  O  O514  1  0.41399946  0.68482830  0.67399153  1
  O  O515  1  0.41042344  0.68546405  0.92344274  1
  O  O516  1  0.91287478  0.01848627  0.17324431  1
  O  O517  1  0.91209752  0.01856529  0.42249003  1
  O  O518  1  0.91520653  0.01882592  0.67293627  1
  O  O519  1  0.91398466  0.01840371  0.92285027  1
  O  O520  1  0.91468588  0.35165566  0.17255725  1
  O  O521  1  0.91129758  0.35308979  0.42322661  1
  O  O522  1  0.91245868  0.35121114  0.67290079  1
  O  O523  1  0.91236230  0.35284038  0.92378418  1
  O  O524  1  0.91434532  0.68483173  0.17186232  1
  O  O525  1  0.91265683  0.68274730  0.42162118  1
  O  O526  1  0.91329711  0.68495038  0.67391915  1
  O  O527  1  0.91270105  0.68347570  0.92319073  1
  O  O528  1  0.16526059  0.01926535  0.20256972  1
  O  O529  1  0.16417044  0.01928467  0.45255387  1
  O  O530  1  0.16304083  0.01839212  0.70134131  1
  O  O531  1  0.16501352  0.01854486  0.95240768  1
  O  O532  1  0.16356591  0.35170230  0.20230299  1
  O  O533  1  0.16243415  0.35056921  0.45348756  1
  O  O534  1  0.16242226  0.35239933  0.70178362  1
  O  O535  1  0.16315300  0.35186350  0.95239410  1
  O  O536  1  0.16327709  0.68395002  0.20202664  1
  O  O537  1  0.16221165  0.68492527  0.45312950  1
  O  O538  1  0.16303029  0.68468571  0.70225472  1
  O  O539  1  0.16260091  0.68406486  0.95214464  1
  O  O540  1  0.66292088  0.01848270  0.20227335  1
  O  O541  1  0.65925761  0.02000995  0.45181077  1
  O  O542  1  0.66130883  0.01791851  0.70188446  1
  O  O543  1  0.66276756  0.01844419  0.95247401  1
  O  O544  1  0.65986405  0.35278966  0.20147677  1
  O  O545  1  0.66215434  0.35125027  0.45157994  1
  O  O546  1  0.66362903  0.35309720  0.70270661  1
  O  O547  1  0.66171566  0.35250604  0.95229863  1
  O  O548  1  0.66144663  0.68363289  0.20168122  1
  O  O549  1  0.66119259  0.68393382  0.45379088  1
  O  O550  1  0.66366401  0.68352577  0.70295689  1
  O  O551  1  0.66301488  0.68368882  0.95310695  1
  O  O552  1  0.33680516  0.31615052  0.04782992  1
  O  O553  1  0.33797349  0.31653809  0.29766290  1
  O  O554  1  0.33868540  0.31447866  0.54799159  1
  O  O555  1  0.33828539  0.31663433  0.79612493  1
  O  O556  1  0.33663508  0.64822798  0.04799813  1
  O  O557  1  0.33664233  0.64825000  0.29665881  1
  O  O558  1  0.33748749  0.64808783  0.54812298  1
  O  O559  1  0.33784906  0.64807145  0.79750911  1
  O  O560  1  0.33676693  0.98110253  0.04619697  1
  O  O561  1  0.33787636  0.98099679  0.29665235  1
  O  O562  1  0.33863743  0.98287065  0.54788896  1
  O  O563  1  0.33988522  0.98045406  0.79733118  1
  O  O564  1  0.83703822  0.31690604  0.04777609  1
  O  O565  1  0.83713946  0.31486333  0.29745802  1
  O  O566  1  0.83525690  0.31633873  0.54700755  1
  O  O567  1  0.83772519  0.31587065  0.79722940  1
  O  O568  1  0.83735033  0.64783925  0.04726080  1
  O  O569  1  0.83604458  0.64827973  0.29768782  1
  O  O570  1  0.83663150  0.64651598  0.54732082  1
  O  O571  1  0.83750029  0.64860502  0.79810887  1
  O  O572  1  0.83809897  0.98042291  0.04757678  1
  O  O573  1  0.83687546  0.98221310  0.29741310  1
  O  O574  1  0.83633074  0.98203835  0.54789993  1
  O  O575  1  0.83743119  0.98084130  0.79751857  1
  O  O576  1  0.41014646  0.14966404  0.17202772  1
  O  O577  1  0.41194905  0.14985969  0.42224809  1
  O  O578  1  0.41346295  0.14915787  0.67148702  1
  O  O579  1  0.41043603  0.14743819  0.92307073  1
  O  O580  1  0.41170978  0.48281828  0.17255676  1
  O  O581  1  0.41370344  0.48142470  0.42259760  1
  O  O582  1  0.41224073  0.48103304  0.67360075  1
  O  O583  1  0.41244771  0.48220555  0.92352653  1
  O  O584  1  0.41145272  0.81300302  0.17259769  1
  O  O585  1  0.41210176  0.81446821  0.42180023  1
  O  O586  1  0.41328981  0.81479870  0.67268050  1
  O  O587  1  0.41110756  0.81545549  0.92244561  1
  O  O588  1  0.91313689  0.14859726  0.17373600  1
  O  O589  1  0.91241388  0.14878010  0.42276795  1
  O  O590  1  0.91526486  0.14898449  0.67294946  1
  O  O591  1  0.91390732  0.14869875  0.92310825  1
  O  O592  1  0.91436014  0.48158942  0.17216138  1
  O  O593  1  0.91176143  0.48316186  0.42184475  1
  O  O594  1  0.91240914  0.48126551  0.67307947  1
  O  O595  1  0.91260495  0.48283300  0.92333330  1
  O  O596  1  0.91480671  0.81483555  0.17184527  1
  O  O597  1  0.91183429  0.81299758  0.42234857  1
  O  O598  1  0.91366665  0.81492329  0.67381799  1
  O  O599  1  0.91217700  0.81356272  0.92336281  1
  O  O600  1  0.09059125  0.18587899  0.07750925  1
  O  O601  1  0.08944739  0.18531588  0.32690309  1
  O  O602  1  0.08908951  0.18547821  0.57704031  1
  O  O603  1  0.08953162  0.18671129  0.82819693  1
  O  O604  1  0.09004313  0.51783923  0.07710840  1
  O  O605  1  0.08695010  0.51818006  0.32613969  1
  O  O606  1  0.08685861  0.51780586  0.57820581  1
  O  O607  1  0.08709313  0.51798017  0.82848411  1
  O  O608  1  0.08929115  0.85081857  0.07680036  1
  O  O609  1  0.08773378  0.85133087  0.32741952  1
  O  O610  1  0.08764330  0.85093046  0.57836874  1
  O  O611  1  0.08899783  0.85007597  0.82874308  1
  O  O612  1  0.58423875  0.18604846  0.07727424  1
  O  O613  1  0.58580849  0.18467984  0.32754813  1
  O  O614  1  0.58633626  0.18491229  0.57688828  1
  O  O615  1  0.58738784  0.18618463  0.82805152  1
  O  O616  1  0.58733608  0.51830701  0.07752435  1
  O  O617  1  0.58846913  0.51664259  0.32722005  1
  O  O618  1  0.59051010  0.51958869  0.57784536  1
  O  O619  1  0.58882973  0.51700615  0.82830936  1
  O  O620  1  0.58614241  0.85018538  0.07744945  1
  O  O621  1  0.58686329  0.85279806  0.32693134  1
  O  O622  1  0.58559227  0.85092218  0.57782957  1
  O  O623  1  0.58474382  0.85143148  0.82719580  1
  O  O624  1  0.33716898  0.18604409  0.04743996  1
  O  O625  1  0.33845929  0.18631759  0.29750196  1
  O  O626  1  0.33819738  0.18459013  0.54747395  1
  O  O627  1  0.33857713  0.18634607  0.79639842  1
  O  O628  1  0.33693598  0.51828716  0.04810483  1
  O  O629  1  0.33674094  0.51797270  0.29684794  1
  O  O630  1  0.33745771  0.51811586  0.54796960  1
  O  O631  1  0.33756887  0.51786459  0.79743894  1
  O  O632  1  0.33682057  0.85091042  0.04642058  1
  O  O633  1  0.33725276  0.85043131  0.29673413  1
  O  O634  1  0.33939451  0.85273530  0.54866530  1
  O  O635  1  0.33916768  0.85021836  0.79711249  1
  O  O636  1  0.83808153  0.18658328  0.04772829  1
  O  O637  1  0.83691854  0.18458854  0.29768691  1
  O  O638  1  0.83498333  0.18619403  0.54802915  1
  O  O639  1  0.83778430  0.18557647  0.79748950  1
  O  O640  1  0.83724119  0.51765739  0.04721817  1
  O  O641  1  0.83611591  0.51830043  0.29777557  1
  O  O642  1  0.83633506  0.51638668  0.54629611  1
  O  O643  1  0.83771772  0.51860765  0.79852708  1
  O  O644  1  0.83718881  0.85002179  0.04756412  1
  O  O645  1  0.83709838  0.85167441  0.29718408  1
  O  O646  1  0.83661426  0.85173825  0.54756161  1
  O  O647  1  0.83743781  0.85048110  0.79683598  1
  O  O648  1  0.16540512  0.14938793  0.20285425  1
  O  O649  1  0.16427166  0.14952393  0.45305626  1
  O  O650  1  0.16261299  0.14838407  0.70134497  1
  O  O651  1  0.16485539  0.14896867  0.95266755  1
  O  O652  1  0.16341669  0.48166803  0.20188726  1
  O  O653  1  0.16194005  0.48076855  0.45282799  1
  O  O654  1  0.16244887  0.48219100  0.70197703  1
  O  O655  1  0.16276957  0.48194659  0.95223860  1
  O  O656  1  0.16321140  0.81395407  0.20151819  1
  O  O657  1  0.16243044  0.81511447  0.45330068  1
  O  O658  1  0.16339051  0.81452173  0.70225812  1
  O  O659  1  0.16258907  0.81424130  0.95187246  1
  O  O660  1  0.66281672  0.14850448  0.20198168  1
  O  O661  1  0.66016233  0.15018615  0.45263146  1
  O  O662  1  0.66076297  0.14795199  0.70187787  1
  O  O663  1  0.66285631  0.14874825  0.95269020  1
  O  O664  1  0.66047034  0.48278067  0.20238527  1
  O  O665  1  0.66202017  0.48113019  0.45198912  1
  O  O666  1  0.66376630  0.48310995  0.70384028  1
  O  O667  1  0.66184999  0.48254605  0.95289206  1
  O  O668  1  0.66097710  0.81359596  0.20115072  1
  O  O669  1  0.66119702  0.81418489  0.45265980  1
  O  O670  1  0.66324272  0.81357157  0.70188945  1
  O  O671  1  0.66314494  0.81383755  0.95235524  1
