# generated using pymatgen
data_Na2MnFe(PO4)2
_symmetry_space_group_name_H-M   'P 1'
_cell_length_a   21.08594215
_cell_length_b   18.93923710
_cell_length_c   20.04544452
_cell_angle_alpha   89.99930722
_cell_angle_beta   90.00157058
_cell_angle_gamma   90.00317841
_symmetry_Int_Tables_number   1
_chemical_formula_structural   Na2MnFe(PO4)2
_chemical_formula_sum   'Na96 Mn48 Fe48 P96 O384'
_cell_volume   8005.18148337
_cell_formula_units_Z   48
loop_
 _symmetry_equiv_pos_site_id
 _symmetry_equiv_pos_as_xyz
  1  'x, y, z'
loop_
 _atom_site_type_symbol
 _atom_site_label
 _atom_site_symmetry_multiplicity
 _atom_site_fract_x
 _atom_site_fract_y
 _atom_site_fract_z
 _atom_site_occupancy
  Na  Na0  1  0.00003113  0.00012565  -0.00148119  1
  Na  Na1  1  -0.00211680  -0.00120562  0.25115694  1
  Na  Na2  1  -0.00128912  -0.00017108  0.50009467  1
  Na  Na3  1  -0.00048059  -0.00013437  0.75057148  1
  Na  Na4  1  0.00045818  0.33231421  0.00038986  1
  Na  Na5  1  0.00009618  0.33254457  0.25069535  1
  Na  Na6  1  -0.00138475  0.33195351  0.50071669  1
  Na  Na7  1  0.00016118  0.33245704  0.74852181  1
  Na  Na8  1  -0.00051191  0.66750523  -0.00044742  1
  Na  Na9  1  -0.00107543  0.66712850  0.24908813  1
  Na  Na10  1  -0.00015288  0.66785629  0.50071280  1
  Na  Na11  1  0.00005679  0.66813618  0.74979722  1
  Na  Na12  1  0.49852821  0.00007416  -0.00110267  1
  Na  Na13  1  0.49747603  -0.00016202  0.25035190  1
  Na  Na14  1  0.49874450  -0.00004938  0.50073193  1
  Na  Na15  1  0.50044010  0.00085807  0.74917648  1
  Na  Na16  1  0.50112225  0.33228856  0.00066305  1
  Na  Na17  1  0.50182147  0.33303968  0.25054404  1
  Na  Na18  1  0.50114106  0.33253159  0.50042771  1
  Na  Na19  1  0.50164908  0.33263958  0.74880842  1
  Na  Na20  1  0.49950868  0.66764025  0.00028939  1
  Na  Na21  1  0.50136340  0.66767902  0.25059638  1
  Na  Na22  1  0.50037757  0.66708171  0.50013020  1
  Na  Na23  1  0.50015173  0.66776549  0.74905453  1
  Na  Na24  1  0.25216784  0.00010616  0.12574714  1
  Na  Na25  1  0.25190758  0.00095959  0.37559179  1
  Na  Na26  1  0.24945977  -0.00018474  0.62416630  1
  Na  Na27  1  0.25160407  0.00027110  0.87451250  1
  Na  Na28  1  0.24948973  0.33194519  0.12428456  1
  Na  Na29  1  0.24962177  0.33253079  0.37513453  1
  Na  Na30  1  0.25069909  0.33259698  0.62546630  1
  Na  Na31  1  0.25105819  0.33264827  0.87450592  1
  Na  Na32  1  0.25113162  0.66790607  0.12624271  1
  Na  Na33  1  0.24900915  0.66671907  0.37498633  1
  Na  Na34  1  0.24963110  0.66767469  0.62470307  1
  Na  Na35  1  0.25038956  0.66777977  0.87478201  1
  Na  Na36  1  0.75013224  -0.00013560  0.12527089  1
  Na  Na37  1  0.75258883  0.00087188  0.37556074  1
  Na  Na38  1  0.75096162  0.00003651  0.62414631  1
  Na  Na39  1  0.74954761  0.00000746  0.87497329  1
  Na  Na40  1  0.74847667  0.33208681  0.12472696  1
  Na  Na41  1  0.75058691  0.33305129  0.37636071  1
  Na  Na42  1  0.75061048  0.33226072  0.62487814  1
  Na  Na43  1  0.74928121  0.33184533  0.87402248  1
  Na  Na44  1  0.74778794  0.66685063  0.12470108  1
  Na  Na45  1  0.74935083  0.66716899  0.37559829  1
  Na  Na46  1  0.74919019  0.66732317  0.62471694  1
  Na  Na47  1  0.74996507  0.66842853  0.87510423  1
  Na  Na48  1  -0.00005982  0.16691424  -0.00037702  1
  Na  Na49  1  -0.00039041  0.16709980  0.25069888  1
  Na  Na50  1  -0.00034059  0.16708194  0.50036014  1
  Na  Na51  1  -0.00005424  0.16643222  0.74896146  1
  Na  Na52  1  -0.00021876  0.49987151  -0.00051790  1
  Na  Na53  1  -0.00129864  0.50015636  0.25039433  1
  Na  Na54  1  -0.00318316  0.50123102  0.50043081  1
  Na  Na55  1  0.00020210  0.49922529  0.74942307  1
  Na  Na56  1  -0.00006674  0.83322398  -0.00083779  1
  Na  Na57  1  -0.00088311  0.83364755  0.25005659  1
  Na  Na58  1  -0.00115572  0.83402604  0.50033490  1
  Na  Na59  1  0.00016373  0.83332070  0.75064805  1
  Na  Na60  1  0.49992230  0.16643759  -0.00014352  1
  Na  Na61  1  0.50142535  0.16587151  0.25029227  1
  Na  Na62  1  0.49972619  0.16673016  0.49968830  1
  Na  Na63  1  0.49924062  0.16691041  0.74963496  1
  Na  Na64  1  0.49881510  0.50114539  0.00063163  1
  Na  Na65  1  0.49977049  0.50100958  0.25129007  1
  Na  Na66  1  0.50163929  0.49970228  0.49987161  1
  Na  Na67  1  0.50182103  0.49917290  0.74872414  1
  Na  Na68  1  0.49976195  0.83319178  -0.00076046  1
  Na  Na69  1  0.49824156  0.83387245  0.25002359  1
  Na  Na70  1  0.49882904  0.83402435  0.50160037  1
  Na  Na71  1  0.50150637  0.83225200  0.74895842  1
  Na  Na72  1  0.25148635  0.16607679  0.12419283  1
  Na  Na73  1  0.25010652  0.16639555  0.37662946  1
  Na  Na74  1  0.25061957  0.16665668  0.62504108  1
  Na  Na75  1  0.25236584  0.16608587  0.87471441  1
  Na  Na76  1  0.25141336  0.49993204  0.12569070  1
  Na  Na77  1  0.25154429  0.49898791  0.37447302  1
  Na  Na78  1  0.25074301  0.49966358  0.62514520  1
  Na  Na79  1  0.25067045  0.50050898  0.87493589  1
  Na  Na80  1  0.25065240  0.83315897  0.12641550  1
  Na  Na81  1  0.24955201  0.83331281  0.37463420  1
  Na  Na82  1  0.24909215  0.83293329  0.62423706  1
  Na  Na83  1  0.24955858  0.83341913  0.87430403  1
  Na  Na84  1  0.74678090  0.16757922  0.12432506  1
  Na  Na85  1  0.75019104  0.16633489  0.37581477  1
  Na  Na86  1  0.75014843  0.16679069  0.62462445  1
  Na  Na87  1  0.75004831  0.16626127  0.87512884  1
  Na  Na88  1  0.74979994  0.50035332  0.12487546  1
  Na  Na89  1  0.75036513  0.49990018  0.37647789  1
  Na  Na90  1  0.74892233  0.50035654  0.62452232  1
  Na  Na91  1  0.74938651  0.50006389  0.87462417  1
  Na  Na92  1  0.75039632  0.83285074  0.12525888  1
  Na  Na93  1  0.75203966  0.83292605  0.37539114  1
  Na  Na94  1  0.75131567  0.83341724  0.62474147  1
  Na  Na95  1  0.74902339  0.83382850  0.87449292  1
  Mn  Mn96  1  0.10710516  0.41748076  0.37371459  1
  Mn  Mn97  1  0.60764954  0.08241526  0.37344283  1
  Mn  Mn98  1  0.60860893  0.41664091  0.37299434  1
  Mn  Mn99  1  0.89172678  0.24930098  0.12731706  1
  Mn  Mn100  1  0.14228944  0.58289356  0.74760143  1
  Mn  Mn101  1  0.14192062  0.58272229  0.49726812  1
  Mn  Mn102  1  0.14156605  0.58237337  0.24795870  1
  Mn  Mn103  1  0.60767989  0.75113317  0.37365077  1
  Mn  Mn104  1  0.64206813  0.58356643  0.74731946  1
  Mn  Mn105  1  0.39233942  0.91702285  0.62734903  1
  Mn  Mn106  1  0.35864866  0.41717406  0.00268031  1
  Mn  Mn107  1  0.39302171  0.25017579  0.12777975  1
  Mn  Mn108  1  0.39256601  0.58373823  0.37800433  1
  Mn  Mn109  1  0.14211603  0.91773653  0.24799652  1
  Mn  Mn110  1  0.64165598  0.91678683  0.24787424  1
  Mn  Mn111  1  0.89206743  0.58274262  0.87711176  1
  Mn  Mn112  1  0.39232633  0.24981894  0.37757984  1
  Mn  Mn113  1  0.14274958  0.58410248  0.99787836  1
  Mn  Mn114  1  0.60742878  0.08276971  0.87197284  1
  Mn  Mn115  1  0.10813386  0.41690758  0.12267306  1
  Mn  Mn116  1  0.85769875  0.41688940  0.00221321  1
  Mn  Mn117  1  0.14223230  0.91737703  0.74725853  1
  Mn  Mn118  1  0.10768693  0.41648586  0.62198659  1
  Mn  Mn119  1  0.89167955  0.58403080  0.62807870  1
  Mn  Mn120  1  0.14295460  0.24919125  0.99709892  1
  Mn  Mn121  1  0.35816761  0.41549098  0.25248245  1
  Mn  Mn122  1  0.35882667  0.41663964  0.75227753  1
  Mn  Mn123  1  0.64125154  0.58318591  0.99748371  1
  Mn  Mn124  1  0.39296161  0.58291015  0.62657471  1
  Mn  Mn125  1  0.64141349  0.91685859  0.99820139  1
  Mn  Mn126  1  0.10815487  0.41665166  0.87270643  1
  Mn  Mn127  1  0.10749082  0.75032395  0.12236054  1
  Mn  Mn128  1  0.85732819  0.08390102  0.25171378  1
  Mn  Mn129  1  0.89128735  0.58355308  0.12729296  1
  Mn  Mn130  1  0.85751449  0.41660704  0.25245946  1
  Mn  Mn131  1  0.39223361  0.58317600  0.87719677  1
  Mn  Mn132  1  0.85718801  0.74959674  0.25211325  1
  Mn  Mn133  1  0.10742479  0.08300889  0.37302198  1
  Mn  Mn134  1  0.89191795  0.91697545  0.87722106  1
  Mn  Mn135  1  0.39233367  0.91688405  0.87673394  1
  Mn  Mn136  1  0.85714398  0.41636369  0.75238509  1
  Mn  Mn137  1  0.85755236  0.08290303  0.00261293  1
  Mn  Mn138  1  0.64330954  0.91694998  0.49756626  1
  Mn  Mn139  1  0.10844617  0.08257594  0.12316112  1
  Mn  Mn140  1  0.60810927  0.41685853  0.12266004  1
  Mn  Mn141  1  0.35798727  0.75037117  0.25289834  1
  Mn  Mn142  1  0.60795186  0.41700622  0.87246157  1
  Mn  Mn143  1  0.10841439  0.08359434  0.87266487  1
  Fe  Fe144  1  0.60641039  0.08221835  0.12357054  1
  Fe  Fe145  1  0.10747172  0.74991371  0.87347738  1
  Fe  Fe146  1  0.89298595  0.24895725  0.62722056  1
  Fe  Fe147  1  0.64273439  0.24876056  0.74757841  1
  Fe  Fe148  1  0.85784863  0.74985123  0.50229984  1
  Fe  Fe149  1  0.35761953  0.75075232  0.00144639  1
  Fe  Fe150  1  0.89257718  0.91688429  0.12617904  1
  Fe  Fe151  1  0.39341094  0.25034496  0.87610399  1
  Fe  Fe152  1  0.85697228  0.41638662  0.50201237  1
  Fe  Fe153  1  0.39233556  0.91636472  0.12628825  1
  Fe  Fe154  1  0.35737947  0.08310170  0.75086597  1
  Fe  Fe155  1  0.39295002  0.58393483  0.12702573  1
  Fe  Fe156  1  0.85671153  0.75031121  0.00145251  1
  Fe  Fe157  1  0.35608634  0.74978494  0.50186357  1
  Fe  Fe158  1  0.89314755  0.91727191  0.62684770  1
  Fe  Fe159  1  0.89257972  0.25000580  0.87605571  1
  Fe  Fe160  1  0.35679868  0.08359854  0.50248496  1
  Fe  Fe161  1  0.14318056  0.24987912  0.49886012  1
  Fe  Fe162  1  0.10601056  0.74976727  0.37414587  1
  Fe  Fe163  1  0.85705104  0.08314104  0.75103469  1
  Fe  Fe164  1  0.14238997  0.24958483  0.24902147  1
  Fe  Fe165  1  0.89249849  0.91647139  0.37710378  1
  Fe  Fe166  1  0.14239813  0.91693545  0.49831008  1
  Fe  Fe167  1  0.14336426  0.24974387  0.74817249  1
  Fe  Fe168  1  0.64249227  0.58310011  0.24836375  1
  Fe  Fe169  1  0.60635937  0.75097814  0.12321502  1
  Fe  Fe170  1  0.64244784  0.24975359  0.99754046  1
  Fe  Fe171  1  0.39167588  0.91641043  0.37760882  1
  Fe  Fe172  1  0.35783209  0.08399129  0.25191737  1
  Fe  Fe173  1  0.35724412  0.75040936  0.75136160  1
  Fe  Fe174  1  0.89134186  0.58361074  0.37683782  1
  Fe  Fe175  1  0.60768461  0.75027552  0.62286766  1
  Fe  Fe176  1  0.89218141  0.24997130  0.37726970  1
  Fe  Fe177  1  0.64287934  0.25009098  0.24877974  1
  Fe  Fe178  1  0.85794833  0.08368164  0.50252960  1
  Fe  Fe179  1  0.14335605  0.91648765  0.99921072  1
  Fe  Fe180  1  0.10711292  0.08293275  0.62349196  1
  Fe  Fe181  1  0.60761311  0.08353261  0.62304085  1
  Fe  Fe182  1  0.85680165  0.75068419  0.75182875  1
  Fe  Fe183  1  0.35778204  0.08245225  0.00211728  1
  Fe  Fe184  1  0.64381373  0.24974085  0.49864132  1
  Fe  Fe185  1  0.10687926  0.75084019  0.62316380  1
  Fe  Fe186  1  0.39340249  0.25000306  0.62638729  1
  Fe  Fe187  1  0.64348447  0.58334573  0.49856206  1
  Fe  Fe188  1  0.60795109  0.41611909  0.62261195  1
  Fe  Fe189  1  0.60724184  0.75027714  0.87291896  1
  Fe  Fe190  1  0.64313487  0.91734859  0.74780161  1
  Fe  Fe191  1  0.35798539  0.41638240  0.50171769  1
  P  P192  1  0.05467707  0.24923891  0.11093437  1
  P  P193  1  0.05374287  0.25010688  0.36153374  1
  P  P194  1  0.05435129  0.24856103  0.61068827  1
  P  P195  1  0.05308066  0.24962895  0.85862351  1
  P  P196  1  0.05265169  0.58353320  0.10949654  1
  P  P197  1  0.05105135  0.58421506  0.36045611  1
  P  P198  1  0.05305770  0.58435034  0.61000788  1
  P  P199  1  0.05323998  0.58440423  0.85973932  1
  P  P200  1  0.05260109  0.91696138  0.10907975  1
  P  P201  1  0.05315248  0.91593760  0.36172435  1
  P  P202  1  0.05306515  0.91720887  0.60981769  1
  P  P203  1  0.05500882  0.91604769  0.86127463  1
  P  P204  1  0.55567007  0.24857271  0.11082507  1
  P  P205  1  0.55545993  0.24943420  0.36100162  1
  P  P206  1  0.55490006  0.24891628  0.61036617  1
  P  P207  1  0.55414205  0.24955549  0.85984415  1
  P  P208  1  0.55326987  0.58452400  0.11148346  1
  P  P209  1  0.55564876  0.58387626  0.36102976  1
  P  P210  1  0.55483921  0.58364401  0.60908637  1
  P  P211  1  0.55295117  0.58462744  0.85948074  1
  P  P212  1  0.55139675  0.91695162  0.11014545  1
  P  P213  1  0.55143238  0.91681558  0.36046471  1
  P  P214  1  0.55523284  0.91727380  0.61119294  1
  P  P215  1  0.55394228  0.91596103  0.85866522  1
  P  P216  1  0.44582711  0.08255368  0.13943835  1
  P  P217  1  0.44452789  0.08271190  0.39007582  1
  P  P218  1  0.44598349  0.08435968  0.63896311  1
  P  P219  1  0.44468300  0.08419373  0.88873592  1
  P  P220  1  0.44737902  0.41734814  0.14070304  1
  P  P221  1  0.44676490  0.41624548  0.39120675  1
  P  P222  1  0.44731593  0.41558137  0.63816700  1
  P  P223  1  0.44744140  0.41555292  0.88994391  1
  P  P224  1  0.44605414  0.75041076  0.13888700  1
  P  P225  1  0.44582715  0.75104153  0.39146341  1
  P  P226  1  0.44596867  0.75006088  0.63889005  1
  P  P227  1  0.44611625  0.75042014  0.88904174  1
  P  P228  1  0.94701476  0.08225356  0.14013507  1
  P  P229  1  0.94552923  0.08369240  0.39069759  1
  P  P230  1  0.94602541  0.08304133  0.63927113  1
  P  P231  1  0.94525259  0.08443918  0.88835485  1
  P  P232  1  0.94665149  0.41614715  0.14043739  1
  P  P233  1  0.94530393  0.41645470  0.39094773  1
  P  P234  1  0.94494244  0.41556741  0.63872586  1
  P  P235  1  0.94673660  0.41499704  0.88961860  1
  P  P236  1  0.94501998  0.75132312  0.13856865  1
  P  P237  1  0.94624651  0.74990686  0.39051099  1
  P  P238  1  0.94576983  0.75164427  0.63967331  1
  P  P239  1  0.94554547  0.75026355  0.88927677  1
  P  P240  1  0.19816846  0.08411264  0.23552220  1
  P  P241  1  0.19598059  0.08326266  0.48692543  1
  P  P242  1  0.19734846  0.08419865  0.73425895  1
  P  P243  1  0.19850795  0.08184997  0.98509706  1
  P  P244  1  0.19655295  0.41527863  0.23530420  1
  P  P245  1  0.19821756  0.41552680  0.48524794  1
  P  P246  1  0.19706698  0.41546489  0.73484155  1
  P  P247  1  0.19767224  0.41682525  0.98472494  1
  P  P248  1  0.19471838  0.75018710  0.23668561  1
  P  P249  1  0.19504984  0.75098317  0.48552815  1
  P  P250  1  0.19582656  0.75021269  0.73518792  1
  P  P251  1  0.19757451  0.75127804  0.98488603  1
  P  P252  1  0.69559696  0.08370102  0.23473570  1
  P  P253  1  0.69723250  0.08385173  0.48652068  1
  P  P254  1  0.69709491  0.08304549  0.73420240  1
  P  P255  1  0.69486595  0.08336296  0.98599586  1
  P  P256  1  0.69669777  0.41671143  0.23552343  1
  P  P257  1  0.69652106  0.41601927  0.48689586  1
  P  P258  1  0.69575356  0.41538405  0.73394261  1
  P  P259  1  0.69653823  0.41580000  0.98456402  1
  P  P260  1  0.69529615  0.74971330  0.23478328  1
  P  P261  1  0.69715324  0.75007888  0.48643368  1
  P  P262  1  0.69590753  0.75140161  0.73530738  1
  P  P263  1  0.69513998  0.75064505  0.98537151  1
  P  P264  1  0.30558970  0.24904815  0.01354507  1
  P  P265  1  0.30239076  0.24879181  0.26532618  1
  P  P266  1  0.30344758  0.24990891  0.51568389  1
  P  P267  1  0.30487696  0.24897206  0.76385496  1
  P  P268  1  0.30439689  0.58508467  0.01594633  1
  P  P269  1  0.30460856  0.58345008  0.26447924  1
  P  P270  1  0.30322571  0.58340627  0.51491727  1
  P  P271  1  0.30376448  0.58448068  0.76451788  1
  P  P272  1  0.30331692  0.91617485  0.01523721  1
  P  P273  1  0.30530894  0.91766267  0.26481259  1
  P  P274  1  0.30318376  0.91636875  0.51388111  1
  P  P275  1  0.30356357  0.91660348  0.76411165  1
  P  P276  1  0.80298938  0.24976359  0.01372149  1
  P  P277  1  0.80236615  0.24976536  0.26585785  1
  P  P278  1  0.80485209  0.24970024  0.51467108  1
  P  P279  1  0.80378987  0.24840734  0.76388191  1
  P  P280  1  0.80269747  0.58458797  0.01468353  1
  P  P281  1  0.80192773  0.58363009  0.26592887  1
  P  P282  1  0.80379008  0.58353286  0.51413404  1
  P  P283  1  0.80278952  0.58449603  0.76491647  1
  P  P284  1  0.80341711  0.91577154  0.01545960  1
  P  P285  1  0.80466957  0.91676747  0.26468655  1
  P  P286  1  0.80617270  0.91674680  0.51450070  1
  P  P287  1  0.80364683  0.91715065  0.76329912  1
  O  O288  1  0.05907004  0.24904056  0.18773228  1
  O  O289  1  0.05917482  0.24993926  0.43819055  1
  O  O290  1  0.05942279  0.24929749  0.68728756  1
  O  O291  1  0.05714030  0.24924218  0.93539661  1
  O  O292  1  0.05590429  0.58352955  0.18631918  1
  O  O293  1  0.05523586  0.58343678  0.43715491  1
  O  O294  1  0.05640867  0.58356311  0.68675511  1
  O  O295  1  0.05629463  0.58394232  0.93650022  1
  O  O296  1  0.05633176  0.91708899  0.18587327  1
  O  O297  1  0.05824561  0.91701005  0.43834005  1
  O  O298  1  0.05650990  0.91719805  0.68657267  1
  O  O299  1  0.05955190  0.91677550  0.93791713  1
  O  O300  1  0.55956111  0.24956494  0.18762936  1
  O  O301  1  0.56000499  0.24943775  0.43774540  1
  O  O302  1  0.55922755  0.24870012  0.68711062  1
  O  O303  1  0.55868561  0.24929501  0.93657284  1
  O  O304  1  0.55796585  0.58366222  0.18815941  1
  O  O305  1  0.56051134  0.58364596  0.43777532  1
  O  O306  1  0.55715002  0.58379179  0.68590664  1
  O  O307  1  0.55544773  0.58421119  0.93630297  1
  O  O308  1  0.55484997  0.91705885  0.18680471  1
  O  O309  1  0.55626158  0.91700405  0.43712129  1
  O  O310  1  0.55934134  0.91730323  0.68788089  1
  O  O311  1  0.55640899  0.91688060  0.93545249  1
  O  O312  1  0.44151327  0.08313152  0.06266490  1
  O  O313  1  0.44091120  0.08401429  0.31327316  1
  O  O314  1  0.44080147  0.08351973  0.56228487  1
  O  O315  1  0.44076352  0.08320512  0.81195659  1
  O  O316  1  0.44436884  0.41643835  0.06389843  1
  O  O317  1  0.44345963  0.41601171  0.31443133  1
  O  O318  1  0.44200978  0.41616688  0.56157226  1
  O  O319  1  0.44492540  0.41590396  0.81307192  1
  O  O320  1  0.44182740  0.75054202  0.06220160  1
  O  O321  1  0.44324202  0.75015391  0.31461476  1
  O  O322  1  0.44026910  0.75030349  0.56232696  1
  O  O323  1  0.44129217  0.75053894  0.81234914  1
  O  O324  1  0.94408531  0.08325664  0.06333130  1
  O  O325  1  0.94267369  0.08397413  0.31393314  1
  O  O326  1  0.94170994  0.08350336  0.56258219  1
  O  O327  1  0.94096216  0.08349717  0.81161908  1
  O  O328  1  0.94353123  0.41595540  0.06363246  1
  O  O329  1  0.94293135  0.41613283  0.31411960  1
  O  O330  1  0.94041861  0.41626965  0.56200680  1
  O  O331  1  0.94347051  0.41568096  0.81280529  1
  O  O332  1  0.94098302  0.75047434  0.06186483  1
  O  O333  1  0.94303290  0.74976273  0.31377489  1
  O  O334  1  0.94099055  0.75045285  0.56298537  1
  O  O335  1  0.94053089  0.75067891  0.81254808  1
  O  O336  1  0.19476818  0.08255421  0.06176245  1
  O  O337  1  0.19402297  0.08324147  0.31224036  1
  O  O338  1  0.19114462  0.08289943  0.56353535  1
  O  O339  1  0.19402304  0.08355122  0.81097427  1
  O  O340  1  0.19441781  0.41664251  0.06151156  1
  O  O341  1  0.19308856  0.41635855  0.31209245  1
  O  O342  1  0.19419866  0.41632218  0.56192228  1
  O  O343  1  0.19392229  0.41612680  0.81160145  1
  O  O344  1  0.19392932  0.75063999  0.06164510  1
  O  O345  1  0.18976895  0.74993568  0.31339447  1
  O  O346  1  0.19026472  0.75057431  0.56226078  1
  O  O347  1  0.19111668  0.75024488  0.81185510  1
  O  O348  1  0.69041966  0.08235197  0.06267319  1
  O  O349  1  0.69320826  0.08232753  0.31157366  1
  O  O350  1  0.69213944  0.08310233  0.56308992  1
  O  O351  1  0.69351083  0.08317226  0.81092854  1
  O  O352  1  0.69353808  0.41654013  0.06137018  1
  O  O353  1  0.69458307  0.41678698  0.31234827  1
  O  O354  1  0.69192369  0.41595076  0.56356283  1
  O  O355  1  0.69304250  0.41604665  0.81074865  1
  O  O356  1  0.68990052  0.75082584  0.06205078  1
  O  O357  1  0.69285111  0.75121252  0.31159790  1
  O  O358  1  0.69204746  0.75092738  0.56306942  1
  O  O359  1  0.69133908  0.75075986  0.81199802  1
  O  O360  1  0.30643286  0.24938082  0.18864490  1
  O  O361  1  0.30666617  0.24995727  0.43899639  1
  O  O362  1  0.30955509  0.24992726  0.68717847  1
  O  O363  1  0.30959680  0.25002203  0.93681427  1
  O  O364  1  0.30936342  0.58402339  0.18774855  1
  O  O365  1  0.30603630  0.58344316  0.43814031  1
  O  O366  1  0.30700349  0.58387355  0.68777685  1
  O  O367  1  0.30701429  0.58425361  0.93909186  1
  O  O368  1  0.30946578  0.91645493  0.18804374  1
  O  O369  1  0.30735337  0.91640227  0.43720064  1
  O  O370  1  0.30616812  0.91636883  0.68732167  1
  O  O371  1  0.30658366  0.91612669  0.93851666  1
  O  O372  1  0.80581044  0.24951036  0.18910854  1
  O  O373  1  0.80889061  0.24953502  0.43795420  1
  O  O374  1  0.80883420  0.24894658  0.68720345  1
  O  O375  1  0.80801266  0.24959737  0.93709857  1
  O  O376  1  0.80564996  0.58396162  0.18921037  1
  O  O377  1  0.80804603  0.58395158  0.43742679  1
  O  O378  1  0.80555967  0.58400382  0.68808991  1
  O  O379  1  0.80598662  0.58405427  0.93791597  1
  O  O380  1  0.80867829  0.91675727  0.18797985  1
  O  O381  1  0.80985440  0.91659866  0.43764926  1
  O  O382  1  0.80839857  0.91708173  0.68666449  1
  O  O383  1  0.80632657  0.91663985  0.93860978  1
  O  O384  1  0.23561489  0.24886420  0.03787994  1
  O  O385  1  0.23248700  0.24907783  0.29021556  1
  O  O386  1  0.23329392  0.24956136  0.54021855  1
  O  O387  1  0.23452444  0.24930133  0.78768884  1
  O  O388  1  0.23482273  0.58427617  0.04147075  1
  O  O389  1  0.23451487  0.58297185  0.28839637  1
  O  O390  1  0.23360541  0.58343359  0.54037900  1
  O  O391  1  0.23417057  0.58398657  0.78982445  1
  O  O392  1  0.23344333  0.91636622  0.04052064  1
  O  O393  1  0.23521141  0.91729891  0.28887485  1
  O  O394  1  0.23292861  0.91669853  0.53805845  1
  O  O395  1  0.23405119  0.91710055  0.78961105  1
  O  O396  1  0.73263637  0.24964636  0.03731667  1
  O  O397  1  0.73235345  0.24969399  0.29051109  1
  O  O398  1  0.73444675  0.24960967  0.53850156  1
  O  O399  1  0.73320283  0.24885130  0.78701764  1
  O  O400  1  0.73302286  0.58397928  0.03977476  1
  O  O401  1  0.73194015  0.58365581  0.29048717  1
  O  O402  1  0.73349641  0.58350527  0.53824031  1
  O  O403  1  0.73320392  0.58431402  0.79029402  1
  O  O404  1  0.73371713  0.91633074  0.04049828  1
  O  O405  1  0.73465806  0.91685424  0.28910462  1
  O  O406  1  0.73609400  0.91678953  0.53857034  1
  O  O407  1  0.73339991  0.91724780  0.78740024  1
  O  O408  1  0.26816924  0.08353874  0.21098868  1
  O  O409  1  0.26645327  0.08352011  0.46340606  1
  O  O410  1  0.26743764  0.08322007  0.70970770  1
  O  O411  1  0.26856861  0.08238866  0.96053612  1
  O  O412  1  0.26625078  0.41560545  0.21019981  1
  O  O413  1  0.26830203  0.41569206  0.46080357  1
  O  O414  1  0.26686595  0.41588107  0.70997114  1
  O  O415  1  0.26738276  0.41687397  0.95967992  1
  O  O416  1  0.26499434  0.75064170  0.21331154  1
  O  O417  1  0.26551004  0.75015166  0.46205117  1
  O  O418  1  0.26623258  0.75052122  0.71155518  1
  O  O419  1  0.26767444  0.75089364  0.96039099  1
  O  O420  1  0.76515767  0.08366905  0.20918205  1
  O  O421  1  0.76765751  0.08367193  0.46314820  1
  O  O422  1  0.76722038  0.08317632  0.70974737  1
  O  O423  1  0.76487326  0.08293652  0.96178880  1
  O  O424  1  0.76601427  0.41636501  0.20925819  1
  O  O425  1  0.76682379  0.41594967  0.46300531  1
  O  O426  1  0.76547737  0.41610558  0.70888427  1
  O  O427  1  0.76602233  0.41604194  0.95896094  1
  O  O428  1  0.76495777  0.74987614  0.20958846  1
  O  O429  1  0.76757232  0.75031906  0.46298105  1
  O  O430  1  0.76636119  0.75076082  0.71164310  1
  O  O431  1  0.76555762  0.75099642  0.96198850  1
  O  O432  1  0.01638758  0.08246034  0.16611907  1
  O  O433  1  0.01534064  0.08355431  0.41570092  1
  O  O434  1  0.01640341  0.08287786  0.66312852  1
  O  O435  1  0.01526864  0.08389480  0.91259384  1
  O  O436  1  0.01615787  0.41633618  0.16592270  1
  O  O437  1  0.01489111  0.41666135  0.41669783  1
  O  O438  1  0.01507029  0.41568929  0.66253154  1
  O  O439  1  0.01632225  0.41564978  0.91495259  1
  O  O440  1  0.01488998  0.75091719  0.16322528  1
  O  O441  1  0.01626627  0.75046239  0.41543293  1
  O  O442  1  0.01631405  0.75128683  0.66290879  1
  O  O443  1  0.01600127  0.75044357  0.91263190  1
  O  O444  1  0.51606978  0.08299970  0.16349853  1
  O  O445  1  0.51454338  0.08298925  0.41446216  1
  O  O446  1  0.51644169  0.08384996  0.66226904  1
  O  O447  1  0.51475977  0.08306442  0.91278426  1
  O  O448  1  0.51697901  0.41710226  0.16604993  1
  O  O449  1  0.51666390  0.41622529  0.41564865  1
  O  O450  1  0.51783908  0.41587949  0.66139646  1
  O  O451  1  0.51681327  0.41644796  0.91590649  1
  O  O452  1  0.51620814  0.75074686  0.16336574  1
  O  O453  1  0.51552520  0.75085179  0.41662196  1
  O  O454  1  0.51673951  0.75002519  0.66132733  1
  O  O455  1  0.51647250  0.75073876  0.91265551  1
  O  O456  1  0.48558656  0.24923160  0.08675496  1
  O  O457  1  0.48531513  0.24955914  0.33719930  1
  O  O458  1  0.48449045  0.24917165  0.58659151  1
  O  O459  1  0.48386950  0.24955404  0.83600428  1
  O  O460  1  0.48307579  0.58448725  0.08732001  1
  O  O461  1  0.48540085  0.58406244  0.33770269  1
  O  O462  1  0.48516690  0.58354992  0.58377386  1
  O  O463  1  0.48360346  0.58380937  0.83347853  1
  O  O464  1  0.48155192  0.91667505  0.08484565  1
  O  O465  1  0.48131417  0.91675279  0.33655240  1
  O  O466  1  0.48507764  0.91720911  0.58718595  1
  O  O467  1  0.48430703  0.91651641  0.83333209  1
  O  O468  1  0.98463669  0.24930846  0.08685248  1
  O  O469  1  0.98305967  0.24990237  0.33874186  1
  O  O470  1  0.98371836  0.24895979  0.58767631  1
  O  O471  1  0.98297272  0.24946731  0.83435404  1
  O  O472  1  0.98298947  0.58368793  0.08444422  1
  O  O473  1  0.98093389  0.58361759  0.33602963  1
  O  O474  1  0.98319150  0.58446916  0.58542889  1
  O  O475  1  0.98366017  0.58390844  0.83417925  1
  O  O476  1  0.98266309  0.91675784  0.08437559  1
  O  O477  1  0.98267971  0.91627660  0.33833777  1
  O  O478  1  0.98291609  0.91722155  0.58553549  1
  O  O479  1  0.98489831  0.91645936  0.83720358  1
  O  O480  1  0.08831748  0.31422035  0.07784279  1
  O  O481  1  0.08676216  0.31515213  0.32803822  1
  O  O482  1  0.08773144  0.31330567  0.57666735  1
  O  O483  1  0.08710184  0.31462463  0.82598683  1
  O  O484  1  0.08677139  0.64866788  0.07716542  1
  O  O485  1  0.08456052  0.64943438  0.32796008  1
  O  O486  1  0.08696787  0.64956506  0.57791967  1
  O  O487  1  0.08716587  0.64981385  0.82778977  1
  O  O488  1  0.08672204  0.98190767  0.07635008  1
  O  O489  1  0.08627399  0.98095514  0.32788510  1
  O  O490  1  0.08700118  0.98223125  0.57703833  1
  O  O491  1  0.08844831  0.98101181  0.82772944  1
  O  O492  1  0.58968290  0.31331867  0.07740241  1
  O  O493  1  0.58911618  0.31439736  0.32782682  1
  O  O494  1  0.58856516  0.31384332  0.57714103  1
  O  O495  1  0.58779008  0.31442551  0.82667282  1
  O  O496  1  0.58660204  0.64969258  0.07844979  1
  O  O497  1  0.58904214  0.64887656  0.32786037  1
  O  O498  1  0.58918775  0.64876174  0.57694231  1
  O  O499  1  0.58696018  0.64994129  0.82749962  1
  O  O500  1  0.58514716  0.98206782  0.07737435  1
  O  O501  1  0.58502607  0.98175274  0.32732132  1
  O  O502  1  0.58842909  0.98250774  0.57798249  1
  O  O503  1  0.58860404  0.98070666  0.82601170  1
  O  O504  1  0.41232253  0.01738953  0.17214428  1
  O  O505  1  0.41077647  0.01752242  0.42264243  1
  O  O506  1  0.41237937  0.01954484  0.67264153  1
  O  O507  1  0.41053559  0.01947013  0.92210993  1
  O  O508  1  0.41345294  0.35208323  0.17323011  1
  O  O509  1  0.41271839  0.35126804  0.42387766  1
  O  O510  1  0.41443212  0.35039174  0.67156037  1
  O  O511  1  0.41363192  0.35022561  0.92197304  1
  O  O512  1  0.41281572  0.68539645  0.17238738  1
  O  O513  1  0.41144848  0.68614647  0.42401219  1
  O  O514  1  0.41294400  0.68509908  0.67254050  1
  O  O515  1  0.41281493  0.68551265  0.92258549  1
  O  O516  1  0.91266235  0.01695564  0.17174424  1
  O  O517  1  0.91135087  0.01857300  0.42296826  1
  O  O518  1  0.91253164  0.01793236  0.67241477  1
  O  O519  1  0.91146653  0.01953561  0.92161792  1
  O  O520  1  0.91253437  0.35108832  0.17288774  1
  O  O521  1  0.91099536  0.35135484  0.42321257  1
  O  O522  1  0.91163308  0.35023677  0.67147981  1
  O  O523  1  0.91296252  0.34958904  0.92166535  1
  O  O524  1  0.91115560  0.68648975  0.17196969  1
  O  O525  1  0.91249511  0.68481160  0.42338357  1
  O  O526  1  0.91213747  0.68699009  0.67346265  1
  O  O527  1  0.91217464  0.68526186  0.92254562  1
  O  O528  1  0.16433613  0.01909236  0.20251260  1
  O  O529  1  0.16298616  0.01827170  0.45307086  1
  O  O530  1  0.16277016  0.01955963  0.70136061  1
  O  O531  1  0.16493004  0.01659226  0.95265551  1
  O  O532  1  0.16281014  0.34981760  0.20340622  1
  O  O533  1  0.16434497  0.35032432  0.45305711  1
  O  O534  1  0.16325528  0.35015327  0.70261677  1
  O  O535  1  0.16367978  0.35170454  0.95228238  1
  O  O536  1  0.16173118  0.68512301  0.20316119  1
  O  O537  1  0.16126698  0.68617354  0.45206324  1
  O  O538  1  0.16241704  0.68531843  0.70174772  1
  O  O539  1  0.16341994  0.68645340  0.95183757  1
  O  O540  1  0.66107528  0.01889077  0.20191920  1
  O  O541  1  0.66413452  0.01891591  0.45256564  1
  O  O542  1  0.66320224  0.01807033  0.70138491  1
  O  O543  1  0.66126928  0.01846807  0.95253841  1
  O  O544  1  0.66213891  0.35157873  0.20380607  1
  O  O545  1  0.66329623  0.35087262  0.45372023  1
  O  O546  1  0.66189985  0.35007957  0.70179530  1
  O  O547  1  0.66231428  0.35066978  0.95253170  1
  O  O548  1  0.66116278  0.68437187  0.20309579  1
  O  O549  1  0.66389651  0.68499659  0.45347638  1
  O  O550  1  0.66217651  0.68659295  0.70179194  1
  O  O551  1  0.66192679  0.68560634  0.95182753  1
  O  O552  1  0.33905894  0.31392174  0.04719497  1
  O  O553  1  0.33648555  0.31367542  0.29821755  1
  O  O554  1  0.33749614  0.31484531  0.54846772  1
  O  O555  1  0.33868571  0.31365981  0.79755000  1
  O  O556  1  0.33823447  0.65063196  0.04777640  1
  O  O557  1  0.33773918  0.64860134  0.29791661  1
  O  O558  1  0.33728386  0.64865046  0.54710736  1
  O  O559  1  0.33754434  0.64982790  0.79667925  1
  O  O560  1  0.33771721  0.98112964  0.04770731  1
  O  O561  1  0.33879090  0.98297295  0.29731582  1
  O  O562  1  0.33695711  0.98130847  0.54702981  1
  O  O563  1  0.33802741  0.98169172  0.79599262  1
  O  O564  1  0.83614227  0.31477189  0.04722094  1
  O  O565  1  0.83641118  0.31471233  0.29851033  1
  O  O566  1  0.83819273  0.31470487  0.54791836  1
  O  O567  1  0.83712231  0.31331268  0.79757248  1
  O  O568  1  0.83628518  0.64998524  0.04698242  1
  O  O569  1  0.83598146  0.64854245  0.29883145  1
  O  O570  1  0.83706170  0.64858955  0.54752275  1
  O  O571  1  0.83693312  0.64961803  0.79680507  1
  O  O572  1  0.83801744  0.98048672  0.04812532  1
  O  O573  1  0.83864596  0.98165114  0.29767878  1
  O  O574  1  0.83980438  0.98190292  0.54742768  1
  O  O575  1  0.83701775  0.98224665  0.79652649  1
  O  O576  1  0.41228070  0.14740756  0.17316242  1
  O  O577  1  0.41068955  0.14753110  0.42347504  1
  O  O578  1  0.41285636  0.14950927  0.67209771  1
  O  O579  1  0.41177978  0.14956353  0.92159488  1
  O  O580  1  0.41325696  0.48250388  0.17255910  1
  O  O581  1  0.41267940  0.48125760  0.42371340  1
  O  O582  1  0.41421237  0.48056830  0.67188490  1
  O  O583  1  0.41272681  0.48053127  0.92189306  1
  O  O584  1  0.41239173  0.81548926  0.17185425  1
  O  O585  1  0.41151107  0.81614551  0.42343949  1
  O  O586  1  0.41304638  0.81508511  0.67280487  1
  O  O587  1  0.41257168  0.81535479  0.92247348  1
  O  O588  1  0.91253956  0.14713867  0.17270372  1
  O  O589  1  0.91145058  0.14866782  0.42343995  1
  O  O590  1  0.91245528  0.14795619  0.67264909  1
  O  O591  1  0.91194249  0.14973366  0.92115240  1
  O  O592  1  0.91224941  0.48129840  0.17244787  1
  O  O593  1  0.91065791  0.48155516  0.42278518  1
  O  O594  1  0.91155238  0.48058830  0.67207328  1
  O  O595  1  0.91231722  0.47999342  0.92197119  1
  O  O596  1  0.91167639  0.81666235  0.17129278  1
  O  O597  1  0.91206420  0.81483811  0.42310957  1
  O  O598  1  0.91277279  0.81701559  0.67270113  1
  O  O599  1  0.91201305  0.81514421  0.92275115  1
  O  O600  1  0.08808544  0.18411990  0.07765995  1
  O  O601  1  0.08696240  0.18515246  0.32779091  1
  O  O602  1  0.08725955  0.18326672  0.57742678  1
  O  O603  1  0.08722285  0.18472478  0.82575605  1
  O  O604  1  0.08680282  0.51853719  0.07714743  1
  O  O605  1  0.08508206  0.51917183  0.32772142  1
  O  O606  1  0.08674517  0.51921886  0.57708662  1
  O  O607  1  0.08755845  0.51938427  0.82733121  1
  O  O608  1  0.08691495  0.85211572  0.07639067  1
  O  O609  1  0.08610412  0.85081388  0.32854936  1
  O  O610  1  0.08696480  0.85220524  0.57705131  1
  O  O611  1  0.08819346  0.85075481  0.82833360  1
  O  O612  1  0.58873146  0.18317370  0.07794602  1
  O  O613  1  0.58887127  0.18443268  0.32785342  1
  O  O614  1  0.58823881  0.18382677  0.57699031  1
  O  O615  1  0.58755073  0.18456467  0.82632893  1
  O  O616  1  0.58657986  0.51950997  0.07788510  1
  O  O617  1  0.58893435  0.51880828  0.32761742  1
  O  O618  1  0.58920865  0.51853926  0.57699214  1
  O  O619  1  0.58777163  0.51976326  0.82744429  1
  O  O620  1  0.58551445  0.85197743  0.07756731  1
  O  O621  1  0.58510712  0.85182802  0.32752218  1
  O  O622  1  0.58862381  0.85213006  0.57809100  1
  O  O623  1  0.58816296  0.85077699  0.82678320  1
  O  O624  1  0.33921659  0.18375289  0.04609678  1
  O  O625  1  0.33624556  0.18372274  0.29792603  1
  O  O626  1  0.33752951  0.18486986  0.54832487  1
  O  O627  1  0.33809937  0.18358290  0.79654759  1
  O  O628  1  0.33946271  0.52047712  0.04840186  1
  O  O629  1  0.33848642  0.51846462  0.29723797  1
  O  O630  1  0.33749609  0.51824261  0.54710524  1
  O  O631  1  0.33806109  0.51943070  0.79691109  1
  O  O632  1  0.33733577  0.85114023  0.04796251  1
  O  O633  1  0.33910182  0.85288518  0.29839026  1
  O  O634  1  0.33645801  0.85122303  0.54704917  1
  O  O635  1  0.33751928  0.85148267  0.79654553  1
  O  O636  1  0.83613782  0.18475814  0.04741151  1
  O  O637  1  0.83645496  0.18487262  0.29861356  1
  O  O638  1  0.83834509  0.18471787  0.54810859  1
  O  O639  1  0.83678694  0.18323922  0.79714547  1
  O  O640  1  0.83695916  0.51962076  0.04718500  1
  O  O641  1  0.83603297  0.51866305  0.29850588  1
  O  O642  1  0.83698394  0.51830890  0.54708287  1
  O  O643  1  0.83682692  0.51922026  0.79702636  1
  O  O644  1  0.83739160  0.85053385  0.04748518  1
  O  O645  1  0.83843660  0.85175940  0.29777575  1
  O  O646  1  0.83982562  0.85180119  0.54763851  1
  O  O647  1  0.83688471  0.85205511  0.79667801  1
  O  O648  1  0.16451517  0.14921007  0.20299548  1
  O  O649  1  0.16284624  0.14851132  0.45381099  1
  O  O650  1  0.16371047  0.14939752  0.70173956  1
  O  O651  1  0.16450450  0.14665206  0.95191006  1
  O  O652  1  0.16244343  0.48028368  0.20260477  1
  O  O653  1  0.16433496  0.48050835  0.45216956  1
  O  O654  1  0.16280205  0.48033634  0.70214574  1
  O  O655  1  0.16364809  0.48203848  0.95255595  1
  O  O656  1  0.16149227  0.81535826  0.20350276  1
  O  O657  1  0.16208641  0.81630717  0.45238965  1
  O  O658  1  0.16227924  0.81519629  0.70177345  1
  O  O659  1  0.16371481  0.81641471  0.95238978  1
  O  O660  1  0.66127680  0.14894105  0.20319845  1
  O  O661  1  0.66393383  0.14893493  0.45348671  1
  O  O662  1  0.66304979  0.14797049  0.70133990  1
  O  O663  1  0.66152721  0.14857354  0.95298660  1
  O  O664  1  0.66255381  0.48202296  0.20345963  1
  O  O665  1  0.66335875  0.48112278  0.45364895  1
  O  O666  1  0.66111015  0.48023057  0.70154792  1
  O  O667  1  0.66225798  0.48094998  0.95234096  1
  O  O668  1  0.66086410  0.81448839  0.20184821  1
  O  O669  1  0.66406959  0.81505521  0.45255305  1
  O  O670  1  0.66286870  0.81656877  0.70197048  1
  O  O671  1  0.66162146  0.81547565  0.95180710  1
