# generated using pymatgen
data_Na2MnFe(PO4)2
_symmetry_space_group_name_H-M   'P 1'
_cell_length_a   21.07886726
_cell_length_b   18.93089265
_cell_length_c   20.03828033
_cell_angle_alpha   89.99936424
_cell_angle_beta   90.00661939
_cell_angle_gamma   89.99904750
_symmetry_Int_Tables_number   1
_chemical_formula_structural   Na2MnFe(PO4)2
_chemical_formula_sum   'Na96 Mn48 Fe48 P96 O384'
_cell_volume   7996.11085818
_cell_formula_units_Z   48
loop_
 _symmetry_equiv_pos_site_id
 _symmetry_equiv_pos_as_xyz
  1  'x, y, z'
loop_
 _atom_site_type_symbol
 _atom_site_label
 _atom_site_symmetry_multiplicity
 _atom_site_fract_x
 _atom_site_fract_y
 _atom_site_fract_z
 _atom_site_occupancy
  Na  Na0  1  -0.00058189  -0.00049492  -0.00003209  1
  Na  Na1  1  -0.00199659  0.00002013  0.24912435  1
  Na  Na2  1  -0.00159645  -0.00020231  0.50058368  1
  Na  Na3  1  -0.00010172  -0.00001888  0.74954302  1
  Na  Na4  1  0.00203849  0.33335167  -0.00060583  1
  Na  Na5  1  0.00182771  0.33368311  0.25099699  1
  Na  Na6  1  -0.00137757  0.33278579  0.49957803  1
  Na  Na7  1  -0.00038211  0.33309382  0.75011828  1
  Na  Na8  1  0.00011286  0.66551387  -0.00023622  1
  Na  Na9  1  -0.00008340  0.66655344  0.25057117  1
  Na  Na10  1  0.00080867  0.66663959  0.50046290  1
  Na  Na11  1  0.00337706  0.66755510  0.74986911  1
  Na  Na12  1  0.49769274  -0.00070291  0.00050831  1
  Na  Na13  1  0.50072143  0.00009524  0.24991954  1
  Na  Na14  1  0.50121210  0.00063084  0.50006511  1
  Na  Na15  1  0.49809486  -0.00045989  0.74996320  1
  Na  Na16  1  0.49773819  0.33331621  0.00007166  1
  Na  Na17  1  0.50032477  0.33336861  0.24989623  1
  Na  Na18  1  0.50014380  0.33337628  0.49949216  1
  Na  Na19  1  0.49779510  0.33352544  0.74967930  1
  Na  Na20  1  0.50193459  0.66705590  0.00026603  1
  Na  Na21  1  0.50319586  0.66673400  0.25034937  1
  Na  Na22  1  0.50318646  0.66699173  0.49928040  1
  Na  Na23  1  0.50115881  0.66673663  0.75024619  1
  Na  Na24  1  0.25113827  -0.00000180  0.12614003  1
  Na  Na25  1  0.25036458  0.00027114  0.37373670  1
  Na  Na26  1  0.25140116  0.00004046  0.62437065  1
  Na  Na27  1  0.25204918  -0.00010872  0.87593257  1
  Na  Na28  1  0.24871340  0.33320943  0.12529911  1
  Na  Na29  1  0.24842489  0.33298826  0.37406371  1
  Na  Na30  1  0.25059492  0.33386147  0.62529787  1
  Na  Na31  1  0.24977240  0.33359164  0.87571097  1
  Na  Na32  1  0.24914343  0.66639951  0.12633260  1
  Na  Na33  1  0.24645368  0.66559896  0.37453205  1
  Na  Na34  1  0.24694176  0.66607165  0.62409901  1
  Na  Na35  1  0.24782972  0.66608482  0.87508777  1
  Na  Na36  1  0.74962107  -0.00027512  0.12507900  1
  Na  Na37  1  0.74996892  0.00021316  0.37510848  1
  Na  Na38  1  0.75020987  -0.00046133  0.62468716  1
  Na  Na39  1  0.75172348  0.00060010  0.87523834  1
  Na  Na40  1  0.75044219  0.33329829  0.12468118  1
  Na  Na41  1  0.75008102  0.33262805  0.37435002  1
  Na  Na42  1  0.75188317  0.33378865  0.62509683  1
  Na  Na43  1  0.75051247  0.33344179  0.87502041  1
  Na  Na44  1  0.74891276  0.66647808  0.12570396  1
  Na  Na45  1  0.74919390  0.66602336  0.37385471  1
  Na  Na46  1  0.74966824  0.66630699  0.62534584  1
  Na  Na47  1  0.74816975  0.66604103  0.87606242  1
  Na  Na48  1  -0.00105396  0.16706396  0.00073475  1
  Na  Na49  1  -0.00035175  0.16637338  0.25017295  1
  Na  Na50  1  -0.00023326  0.16620503  0.49883229  1
  Na  Na51  1  -0.00039675  0.16700292  0.75025652  1
  Na  Na52  1  0.00309753  0.49901631  -0.00058907  1
  Na  Na53  1  -0.00044234  0.50106935  0.25058361  1
  Na  Na54  1  -0.00081656  0.50051529  0.50099801  1
  Na  Na55  1  0.00053232  0.50015755  0.74937871  1
  Na  Na56  1  0.00109564  0.83346630  -0.00044863  1
  Na  Na57  1  -0.00093055  0.83325764  0.24948138  1
  Na  Na58  1  -0.00045098  0.83315091  0.50096690  1
  Na  Na59  1  0.00133655  0.83368678  0.74946633  1
  Na  Na60  1  0.49743224  0.16732525  -0.00014819  1
  Na  Na61  1  0.50142851  0.16619287  0.24978623  1
  Na  Na62  1  0.50169042  0.16627020  0.49976104  1
  Na  Na63  1  0.49876196  0.16635669  0.74946953  1
  Na  Na64  1  0.49796490  0.50057939  0.00020544  1
  Na  Na65  1  0.50015977  0.49998945  0.24989920  1
  Na  Na66  1  0.50012270  0.49979638  0.49960059  1
  Na  Na67  1  0.49841753  0.50019435  0.75027252  1
  Na  Na68  1  0.50134037  0.83344390  0.00067757  1
  Na  Na69  1  0.50359781  0.83289642  0.25065482  1
  Na  Na70  1  0.50267560  0.83303686  0.49951419  1
  Na  Na71  1  0.49986194  0.83380505  0.75015516  1
  Na  Na72  1  0.24992896  0.16634081  0.12617268  1
  Na  Na73  1  0.24652458  0.16797913  0.37358425  1
  Na  Na74  1  0.25107577  0.16553305  0.62450112  1
  Na  Na75  1  0.25109983  0.16585316  0.87515161  1
  Na  Na76  1  0.24906078  0.50037966  0.12551068  1
  Na  Na77  1  0.24926379  0.50036396  0.37427549  1
  Na  Na78  1  0.24992517  0.49988404  0.62524571  1
  Na  Na79  1  0.24935491  0.49987828  0.87606289  1
  Na  Na80  1  0.25001033  0.83357297  0.12614266  1
  Na  Na81  1  0.24894100  0.83322463  0.37452253  1
  Na  Na82  1  0.24828165  0.83422525  0.62392021  1
  Na  Na83  1  0.24983905  0.83383024  0.87549903  1
  Na  Na84  1  0.75281515  0.16542785  0.12551387  1
  Na  Na85  1  0.74932535  0.16725137  0.37428393  1
  Na  Na86  1  0.75071275  0.16676373  0.62537263  1
  Na  Na87  1  0.75115307  0.16710615  0.87463594  1
  Na  Na88  1  0.74926968  0.50090656  0.12526083  1
  Na  Na89  1  0.75075636  0.50052949  0.37443447  1
  Na  Na90  1  0.75151512  0.49999046  0.62427314  1
  Na  Na91  1  0.75067468  0.49985627  0.87549353  1
  Na  Na92  1  0.74714435  0.83410687  0.12461434  1
  Na  Na93  1  0.74867163  0.83395457  0.37454646  1
  Na  Na94  1  0.74983242  0.83349566  0.62533436  1
  Na  Na95  1  0.74902027  0.83323788  0.87621049  1
  Mn  Mn96  1  0.64217439  0.58247731  0.74800636  1
  Mn  Mn97  1  0.85879541  0.41680689  0.00260850  1
  Mn  Mn98  1  0.35670350  0.41688759  0.25199352  1
  Mn  Mn99  1  0.39082878  0.24965794  0.87756904  1
  Mn  Mn100  1  0.64218544  0.91712629  0.74860367  1
  Mn  Mn101  1  0.85679074  0.75008203  0.00213573  1
  Mn  Mn102  1  0.10861534  0.75019287  0.87283286  1
  Mn  Mn103  1  0.60752898  0.08355397  0.12210231  1
  Mn  Mn104  1  0.35816316  0.74950118  0.25263777  1
  Mn  Mn105  1  0.60698040  0.41668213  0.87280097  1
  Mn  Mn106  1  0.89215384  0.91665988  0.62734998  1
  Mn  Mn107  1  0.39225229  0.91596363  0.62625210  1
  Mn  Mn108  1  0.39131787  0.58455470  0.87751995  1
  Mn  Mn109  1  0.35763394  0.08372430  0.25289270  1
  Mn  Mn110  1  0.89268137  0.58312497  0.62732292  1
  Mn  Mn111  1  0.10775497  0.41628814  0.62238204  1
  Mn  Mn112  1  0.64213111  0.25003147  0.99794880  1
  Mn  Mn113  1  0.39384988  0.91650203  0.37714908  1
  Mn  Mn114  1  0.60881816  0.74980550  0.62260065  1
  Mn  Mn115  1  0.10724532  0.41681019  0.37333334  1
  Mn  Mn116  1  0.60702176  0.41674422  0.12233865  1
  Mn  Mn117  1  0.89227714  0.25007787  0.37740108  1
  Mn  Mn118  1  0.35764308  0.74979383  0.50163669  1
  Mn  Mn119  1  0.35723760  0.74995763  0.75193612  1
  Mn  Mn120  1  0.39273389  0.58381828  0.37719615  1
  Mn  Mn121  1  0.60699462  0.08330514  0.87327663  1
  Mn  Mn122  1  0.39163089  0.25014306  0.62601811  1
  Mn  Mn123  1  0.64232851  0.25054212  0.74783256  1
  Mn  Mn124  1  0.10842702  0.08308972  0.87334703  1
  Mn  Mn125  1  0.10839117  0.08351696  0.62228786  1
  Mn  Mn126  1  0.10693427  0.08343092  0.12238091  1
  Mn  Mn127  1  0.39179414  0.58409141  0.62630683  1
  Mn  Mn128  1  0.60865435  0.41629103  0.37291257  1
  Mn  Mn129  1  0.85697145  0.75051330  0.25210216  1
  Mn  Mn130  1  0.14158670  0.91730158  0.49634468  1
  Mn  Mn131  1  0.89147574  0.91618907  0.12679369  1
  Mn  Mn132  1  0.35809187  0.74965743  0.00319788  1
  Mn  Mn133  1  0.10759750  0.74979292  0.12237620  1
  Mn  Mn134  1  0.85823008  0.41630925  0.25163884  1
  Mn  Mn135  1  0.85848202  0.74942480  0.75281904  1
  Mn  Mn136  1  0.60807256  0.41656507  0.62280471  1
  Mn  Mn137  1  0.89335507  0.58381548  0.87741151  1
  Mn  Mn138  1  0.89286891  0.24974337  0.87774406  1
  Mn  Mn139  1  0.14251609  0.24924573  0.74695308  1
  Mn  Mn140  1  0.60791053  0.08366755  0.62280218  1
  Mn  Mn141  1  0.14134519  0.91663198  0.24805082  1
  Mn  Mn142  1  0.39230626  0.24967390  0.37725062  1
  Mn  Mn143  1  0.85842883  0.08338060  0.75254852  1
  Fe  Fe144  1  0.89251646  0.58431786  0.37695939  1
  Fe  Fe145  1  0.64344751  0.91695438  0.49819222  1
  Fe  Fe146  1  0.64363503  0.58302803  0.49815227  1
  Fe  Fe147  1  0.85713348  0.74997409  0.50124094  1
  Fe  Fe148  1  0.35694003  0.41639678  0.50103613  1
  Fe  Fe149  1  0.85694649  0.08361024  0.50120728  1
  Fe  Fe150  1  0.60691355  0.75026086  0.87347651  1
  Fe  Fe151  1  0.10633982  0.08216597  0.37361793  1
  Fe  Fe152  1  0.85743928  0.08310080  0.00156377  1
  Fe  Fe153  1  0.35745246  0.08303634  0.75152742  1
  Fe  Fe154  1  0.39260417  0.58392566  0.12699900  1
  Fe  Fe155  1  0.14305378  0.24944368  0.99900400  1
  Fe  Fe156  1  0.10763663  0.75046991  0.62264945  1
  Fe  Fe157  1  0.64315081  0.58269782  0.24760875  1
  Fe  Fe158  1  0.14139572  0.58296697  0.24789403  1
  Fe  Fe159  1  0.14299357  0.58364643  0.74794062  1
  Fe  Fe160  1  0.85726195  0.41661428  0.50168150  1
  Fe  Fe161  1  0.60919515  0.75019842  0.37344176  1
  Fe  Fe162  1  0.14220139  0.25004599  0.49872573  1
  Fe  Fe163  1  0.85669970  0.08320464  0.25190854  1
  Fe  Fe164  1  0.35585736  0.41652611  0.00211490  1
  Fe  Fe165  1  0.14230618  0.58256793  0.49772613  1
  Fe  Fe166  1  0.64336833  0.25017920  0.49857089  1
  Fe  Fe167  1  0.35662458  0.41680593  0.75165721  1
  Fe  Fe168  1  0.89334060  0.25097096  0.12657863  1
  Fe  Fe169  1  0.64305228  0.91735459  0.24805705  1
  Fe  Fe170  1  0.39209395  0.91581620  0.87721659  1
  Fe  Fe171  1  0.39157945  0.25012457  0.12717246  1
  Fe  Fe172  1  0.60708634  0.74976848  0.12331552  1
  Fe  Fe173  1  0.89162762  0.91594853  0.37655163  1
  Fe  Fe174  1  0.14175428  0.25029567  0.24738144  1
  Fe  Fe175  1  0.64206553  0.91719910  0.99761978  1
  Fe  Fe176  1  0.10823277  0.41632121  0.87272733  1
  Fe  Fe177  1  0.60869196  0.08344191  0.37348809  1
  Fe  Fe178  1  0.10717510  0.41674767  0.12325837  1
  Fe  Fe179  1  0.14354559  0.91698920  0.99843613  1
  Fe  Fe180  1  0.89230067  0.24993638  0.62596624  1
  Fe  Fe181  1  0.89318590  0.91637407  0.87688550  1
  Fe  Fe182  1  0.39337811  0.91593710  0.12708129  1
  Fe  Fe183  1  0.14276371  0.58347783  0.99893032  1
  Fe  Fe184  1  0.85806005  0.41698081  0.75212565  1
  Fe  Fe185  1  0.35697486  0.08360539  0.00232145  1
  Fe  Fe186  1  0.64223323  0.58287775  0.99851280  1
  Fe  Fe187  1  0.14319830  0.91672840  0.74883768  1
  Fe  Fe188  1  0.35738124  0.08404825  0.50030929  1
  Fe  Fe189  1  0.10600014  0.75071552  0.37384782  1
  Fe  Fe190  1  0.64308975  0.25011211  0.24727980  1
  Fe  Fe191  1  0.89283568  0.58267596  0.12616193  1
  P  P192  1  0.05381263  0.25065572  0.11059854  1
  P  P193  1  0.05520801  0.24886573  0.36079281  1
  P  P194  1  0.05232747  0.24992038  0.60895028  1
  P  P195  1  0.05549703  0.25006286  0.86114627  1
  P  P196  1  0.05359750  0.58245328  0.11059254  1
  P  P197  1  0.05358253  0.58403133  0.36108387  1
  P  P198  1  0.05562756  0.58379510  0.61049514  1
  P  P199  1  0.05618269  0.58252081  0.86041999  1
  P  P200  1  0.05349481  0.91676516  0.10896652  1
  P  P201  1  0.05087581  0.91660542  0.36003518  1
  P  P202  1  0.05485075  0.91655032  0.61095374  1
  P  P203  1  0.05445040  0.91710340  0.86040073  1
  P  P204  1  0.55235466  0.25005061  0.11062756  1
  P  P205  1  0.55591848  0.24922990  0.36025943  1
  P  P206  1  0.55375329  0.25038380  0.60898498  1
  P  P207  1  0.55222862  0.24995165  0.85969824  1
  P  P208  1  0.55369565  0.58359734  0.11070050  1
  P  P209  1  0.55624931  0.58340185  0.36037295  1
  P  P210  1  0.55413698  0.58277951  0.60888979  1
  P  P211  1  0.55393609  0.58377153  0.86128914  1
  P  P212  1  0.55438649  0.91647753  0.11078573  1
  P  P213  1  0.55673043  0.91734344  0.36072954  1
  P  P214  1  0.55447245  0.91688970  0.60917669  1
  P  P215  1  0.55279026  0.91652097  0.86133444  1
  P  P216  1  0.44476038  0.08333170  0.13903489  1
  P  P217  1  0.44834850  0.08348324  0.39031695  1
  P  P218  1  0.44466331  0.08337448  0.63897327  1
  P  P219  1  0.44400625  0.08221655  0.88980802  1
  P  P220  1  0.44426563  0.41691543  0.13884601  1
  P  P221  1  0.44614268  0.41661957  0.39031099  1
  P  P222  1  0.44443475  0.41700999  0.63923772  1
  P  P223  1  0.44368297  0.41708067  0.88997723  1
  P  P224  1  0.44809871  0.74993227  0.14038873  1
  P  P225  1  0.44928699  0.74993087  0.38986658  1
  P  P226  1  0.44729001  0.74977361  0.63997643  1
  P  P227  1  0.44751348  0.75076405  0.89042068  1
  P  P228  1  0.94404805  0.08420427  0.13941758  1
  P  P229  1  0.94526711  0.08229687  0.38911956  1
  P  P230  1  0.94547032  0.08439691  0.63855181  1
  P  P231  1  0.94649227  0.08230699  0.89094927  1
  P  P232  1  0.94839218  0.41657052  0.13988002  1
  P  P233  1  0.94581818  0.41771551  0.39067379  1
  P  P234  1  0.94482745  0.41565385  0.63930272  1
  P  P235  1  0.94786816  0.41693028  0.88911941  1
  P  P236  1  0.94620912  0.74883584  0.13977749  1
  P  P237  1  0.94645164  0.75007669  0.39045239  1
  P  P238  1  0.94696211  0.74971729  0.63905727  1
  P  P239  1  0.94734975  0.75081944  0.89023482  1
  P  P240  1  0.19442259  0.08356221  0.23612456  1
  P  P241  1  0.19715145  0.08408130  0.48373783  1
  P  P242  1  0.19812711  0.08194821  0.73513197  1
  P  P243  1  0.19793178  0.08312848  0.98591853  1
  P  P244  1  0.19468227  0.41696381  0.23461739  1
  P  P245  1  0.19743971  0.41642340  0.48495097  1
  P  P246  1  0.19643793  0.41711450  0.73616381  1
  P  P247  1  0.19530530  0.41647900  0.98648445  1
  P  P248  1  0.19455140  0.74945652  0.23645972  1
  P  P249  1  0.19451745  0.74941985  0.48482215  1
  P  P250  1  0.19588301  0.75065418  0.73422159  1
  P  P251  1  0.19696350  0.75027032  0.98571138  1
  P  P252  1  0.69632873  0.08351795  0.23597886  1
  P  P253  1  0.69757365  0.08367834  0.48486857  1
  P  P254  1  0.69694755  0.08341461  0.73514039  1
  P  P255  1  0.69775432  0.08321934  0.98498384  1
  P  P256  1  0.69661176  0.41646051  0.23471775  1
  P  P257  1  0.69838199  0.41656210  0.48511977  1
  P  P258  1  0.69827543  0.41677630  0.73486085  1
  P  P259  1  0.69680186  0.41733451  0.98508228  1
  P  P260  1  0.69445599  0.75006403  0.23552338  1
  P  P261  1  0.69773799  0.74988952  0.48453108  1
  P  P262  1  0.69589823  0.75005456  0.73644959  1
  P  P263  1  0.69361217  0.74974663  0.98625582  1
  P  P264  1  0.30233071  0.25000312  0.01592156  1
  P  P265  1  0.30269695  0.25035031  0.26403670  1
  P  P266  1  0.30172455  0.24981858  0.51395512  1
  P  P267  1  0.30326598  0.24985060  0.76469182  1
  P  P268  1  0.30228860  0.58293488  0.01602195  1
  P  P269  1  0.30294221  0.58348956  0.26416050  1
  P  P270  1  0.30174437  0.58287270  0.51424894  1
  P  P271  1  0.30181324  0.58323098  0.76480210  1
  P  P272  1  0.30422395  0.91692935  0.01525909  1
  P  P273  1  0.30478739  0.91616025  0.26434825  1
  P  P274  1  0.30332625  0.91748074  0.51379038  1
  P  P275  1  0.30313984  0.91670786  0.76527921  1
  P  P276  1  0.80436866  0.24947739  0.01580932  1
  P  P277  1  0.80391769  0.24954233  0.26348570  1
  P  P278  1  0.80303098  0.24977596  0.51494815  1
  P  P279  1  0.80513092  0.25111385  0.76405582  1
  P  P280  1  0.80270505  0.58366703  0.01576768  1
  P  P281  1  0.80442416  0.58326214  0.26398552  1
  P  P282  1  0.80406250  0.58408296  0.51338751  1
  P  P283  1  0.80386593  0.58263217  0.76547631  1
  P  P284  1  0.80273201  0.91699165  0.01374724  1
  P  P285  1  0.80255670  0.91725641  0.26514859  1
  P  P286  1  0.80377535  0.91629302  0.51337479  1
  P  P287  1  0.80425528  0.91621207  0.76631501  1
  O  O288  1  0.05791548  0.24974544  0.18739455  1
  O  O289  1  0.05921946  0.24977941  0.43757451  1
  O  O290  1  0.05641778  0.24985202  0.68573101  1
  O  O291  1  0.05989032  0.24923991  0.93792967  1
  O  O292  1  0.05761156  0.58337744  0.18737349  1
  O  O293  1  0.05828087  0.58269623  0.43780993  1
  O  O294  1  0.05978711  0.58295733  0.68731276  1
  O  O295  1  0.06008198  0.58318055  0.93727853  1
  O  O296  1  0.05638686  0.91690373  0.18577556  1
  O  O297  1  0.05450650  0.91700910  0.43676159  1
  O  O298  1  0.05931306  0.91744113  0.68767443  1
  O  O299  1  0.05975509  0.91726722  0.93708919  1
  O  O300  1  0.55818225  0.24992656  0.18727655  1
  O  O301  1  0.56051663  0.25009941  0.43705185  1
  O  O302  1  0.55662247  0.25055041  0.68579557  1
  O  O303  1  0.55565342  0.25010669  0.93652078  1
  O  O304  1  0.55871303  0.58234841  0.18740400  1
  O  O305  1  0.56072079  0.58254255  0.43716614  1
  O  O306  1  0.55693898  0.58244210  0.68573982  1
  O  O307  1  0.55798987  0.58250763  0.93804321  1
  O  O308  1  0.55926139  0.91773673  0.18750279  1
  O  O309  1  0.56059412  0.91739740  0.43756010  1
  O  O310  1  0.55704578  0.91710672  0.68601336  1
  O  O311  1  0.55768161  0.91773213  0.93806310  1
  O  O312  1  0.44041780  0.08379739  0.06222690  1
  O  O313  1  0.44399312  0.08373209  0.31357502  1
  O  O314  1  0.44044049  0.08368627  0.56219788  1
  O  O315  1  0.44023856  0.08300669  0.81293733  1
  O  O316  1  0.43979884  0.41672653  0.06207419  1
  O  O317  1  0.44250796  0.41658296  0.31351592  1
  O  O318  1  0.43990882  0.41674696  0.56242129  1
  O  O319  1  0.43936731  0.41718275  0.81311477  1
  O  O320  1  0.44443376  0.74985080  0.06368056  1
  O  O321  1  0.44494728  0.74969705  0.31319180  1
  O  O322  1  0.44382308  0.74955879  0.56319021  1
  O  O323  1  0.44355669  0.75006988  0.81372744  1
  O  O324  1  0.94027469  0.08305540  0.06261782  1
  O  O325  1  0.94058894  0.08310146  0.31237035  1
  O  O326  1  0.94077719  0.08372109  0.56177667  1
  O  O327  1  0.94388814  0.08315567  0.81409138  1
  O  O328  1  0.94532535  0.41644873  0.06312877  1
  O  O329  1  0.94330092  0.41690040  0.31385420  1
  O  O330  1  0.94032804  0.41656928  0.56249249  1
  O  O331  1  0.94283120  0.41711931  0.81245832  1
  O  O332  1  0.94303183  0.74943585  0.06303230  1
  O  O333  1  0.94281390  0.75001575  0.31371804  1
  O  O334  1  0.94146642  0.74962026  0.56242388  1
  O  O335  1  0.94481825  0.75025284  0.81341224  1
  O  O336  1  0.19402887  0.08301185  0.06258643  1
  O  O337  1  0.18982182  0.08248528  0.31281894  1
  O  O338  1  0.19402332  0.08292638  0.56052522  1
  O  O339  1  0.19448776  0.08255250  0.81180496  1
  O  O340  1  0.19096792  0.41657784  0.06323243  1
  O  O341  1  0.19217416  0.41713445  0.31138758  1
  O  O342  1  0.19422057  0.41647897  0.56171533  1
  O  O343  1  0.19226416  0.41646280  0.81288366  1
  O  O344  1  0.19418798  0.75032612  0.06250308  1
  O  O345  1  0.18973567  0.75036423  0.31317843  1
  O  O346  1  0.19082637  0.75054584  0.56162970  1
  O  O347  1  0.19373125  0.75076476  0.81108486  1
  O  O348  1  0.69394468  0.08348106  0.06174012  1
  O  O349  1  0.69238969  0.08367559  0.31266575  1
  O  O350  1  0.69423685  0.08351336  0.56157614  1
  O  O351  1  0.69339443  0.08354227  0.81190043  1
  O  O352  1  0.69316197  0.41683794  0.06184448  1
  O  O353  1  0.69427113  0.41643246  0.31148606  1
  O  O354  1  0.69489836  0.41670938  0.56176553  1
  O  O355  1  0.69379173  0.41673504  0.81154563  1
  O  O356  1  0.69003984  0.74985673  0.06316017  1
  O  O357  1  0.69158113  0.74995711  0.31238968  1
  O  O358  1  0.69482257  0.74983176  0.56132448  1
  O  O359  1  0.69117722  0.75018517  0.81321641  1
  O  O360  1  0.30794403  0.24997891  0.18739745  1
  O  O361  1  0.30491455  0.24981127  0.43724807  1
  O  O362  1  0.30591228  0.24992304  0.68790640  1
  O  O363  1  0.30546425  0.24994088  0.93918153  1
  O  O364  1  0.30860874  0.58416943  0.18753164  1
  O  O365  1  0.30573868  0.58386106  0.43754106  1
  O  O366  1  0.30542985  0.58395019  0.68811779  1
  O  O367  1  0.30571812  0.58403470  0.93928415  1
  O  O368  1  0.30960377  0.91578303  0.18759036  1
  O  O369  1  0.30692335  0.91641913  0.43702777  1
  O  O370  1  0.30660848  0.91584046  0.68854352  1
  O  O371  1  0.30860659  0.91567081  0.93850631  1
  O  O372  1  0.80904483  0.25061914  0.18691259  1
  O  O373  1  0.80628712  0.24967106  0.43812587  1
  O  O374  1  0.80884585  0.25022490  0.68730325  1
  O  O375  1  0.80736351  0.25056912  0.93896670  1
  O  O376  1  0.80948979  0.58319287  0.18731999  1
  O  O377  1  0.80837791  0.58427933  0.43663459  1
  O  O378  1  0.80700682  0.58359980  0.68865253  1
  O  O379  1  0.80720505  0.58363190  0.93908221  1
  O  O380  1  0.80600858  0.91621093  0.18842187  1
  O  O381  1  0.80802367  0.91619346  0.43665007  1
  O  O382  1  0.80724925  0.91603146  0.68941058  1
  O  O383  1  0.80815322  0.91620521  0.93719695  1
  O  O384  1  0.23216567  0.24984871  0.04058188  1
  O  O385  1  0.23215556  0.25071548  0.28693656  1
  O  O386  1  0.23193245  0.24974567  0.53962802  1
  O  O387  1  0.23374528  0.24965549  0.79043414  1
  O  O388  1  0.23203782  0.58331506  0.04028712  1
  O  O389  1  0.23235856  0.58281843  0.28698843  1
  O  O390  1  0.23164757  0.58288400  0.53871114  1
  O  O391  1  0.23180591  0.58338280  0.78959796  1
  O  O392  1  0.23383060  0.91674699  0.03913725  1
  O  O393  1  0.23456224  0.91658315  0.28786858  1
  O  O394  1  0.23352378  0.91741371  0.53853861  1
  O  O395  1  0.23308031  0.91656116  0.79001786  1
  O  O396  1  0.73460539  0.24969810  0.04087488  1
  O  O397  1  0.73356244  0.24990329  0.28706664  1
  O  O398  1  0.73296497  0.24992268  0.53972077  1
  O  O399  1  0.73528050  0.25056586  0.78887996  1
  O  O400  1  0.73239038  0.58376096  0.03950544  1
  O  O401  1  0.73383778  0.58315497  0.28694409  1
  O  O402  1  0.73381700  0.58359812  0.53764206  1
  O  O403  1  0.73423065  0.58269457  0.79061779  1
  O  O404  1  0.73227374  0.91670224  0.03727145  1
  O  O405  1  0.73241854  0.91705619  0.28939015  1
  O  O406  1  0.73351733  0.91653192  0.53765563  1
  O  O407  1  0.73453215  0.91682673  0.79124056  1
  O  O408  1  0.26458785  0.08336650  0.21241626  1
  O  O409  1  0.26709459  0.08389048  0.45860241  1
  O  O410  1  0.26812557  0.08247377  0.71040203  1
  O  O411  1  0.26802581  0.08333630  0.96140853  1
  O  O412  1  0.26434621  0.41682075  0.20937614  1
  O  O413  1  0.26723309  0.41650910  0.45947872  1
  O  O414  1  0.26662441  0.41682366  0.71194403  1
  O  O415  1  0.26576427  0.41656098  0.96271076  1
  O  O416  1  0.26466810  0.74974478  0.21252743  1
  O  O417  1  0.26448866  0.74978147  0.46023850  1
  O  O418  1  0.26536762  0.75026472  0.70826504  1
  O  O419  1  0.26650517  0.74978336  0.96006812  1
  O  O420  1  0.76654969  0.08308219  0.21172730  1
  O  O421  1  0.76771822  0.08373723  0.46011565  1
  O  O422  1  0.76669781  0.08308051  0.71028402  1
  O  O423  1  0.76781074  0.08373453  0.96045919  1
  O  O424  1  0.76617536  0.41669270  0.20912213  1
  O  O425  1  0.76839943  0.41647259  0.46005983  1
  O  O426  1  0.76832979  0.41697917  0.71055587  1
  O  O427  1  0.76667871  0.41677391  0.96046885  1
  O  O428  1  0.76434901  0.75031985  0.21067553  1
  O  O429  1  0.76763539  0.74995851  0.45922161  1
  O  O430  1  0.76588601  0.74992783  0.71225579  1
  O  O431  1  0.76365547  0.74966904  0.96189429  1
  O  O432  1  0.01416364  0.08343402  0.16346148  1
  O  O433  1  0.01567719  0.08281572  0.41287208  1
  O  O434  1  0.01550221  0.08385658  0.66278022  1
  O  O435  1  0.01613803  0.08309162  0.91628180  1
  O  O436  1  0.01816452  0.41698342  0.16533852  1
  O  O437  1  0.01552911  0.41691361  0.41594986  1
  O  O438  1  0.01504372  0.41654075  0.66305408  1
  O  O439  1  0.01823051  0.41641223  0.91270741  1
  O  O440  1  0.01585485  0.74974942  0.16499174  1
  O  O441  1  0.01657596  0.74991558  0.41500020  1
  O  O442  1  0.01740776  0.75008183  0.66236422  1
  O  O443  1  0.01696728  0.74997996  0.91563042  1
  O  O444  1  0.51488954  0.08303076  0.16302776  1
  O  O445  1  0.51861009  0.08341526  0.41410733  1
  O  O446  1  0.51474384  0.08325647  0.66311866  1
  O  O447  1  0.51394456  0.08318087  0.91442601  1
  O  O448  1  0.51432699  0.41692887  0.16305702  1
  O  O449  1  0.51614181  0.41654208  0.41454801  1
  O  O450  1  0.51455482  0.41677434  0.66322103  1
  O  O451  1  0.51379645  0.41698084  0.91390792  1
  O  O452  1  0.51823483  0.74989761  0.16490230  1
  O  O453  1  0.51960390  0.75013723  0.41365507  1
  O  O454  1  0.51697380  0.75002940  0.66497719  1
  O  O455  1  0.51748046  0.75050927  0.91513677  1
  O  O456  1  0.48184218  0.25015581  0.08753583  1
  O  O457  1  0.48568136  0.24991593  0.33647221  1
  O  O458  1  0.48402533  0.25005662  0.58388812  1
  O  O459  1  0.48247173  0.24983822  0.83486963  1
  O  O460  1  0.48317662  0.58357861  0.08726412  1
  O  O461  1  0.48604651  0.58302562  0.33648417  1
  O  O462  1  0.48446397  0.58339411  0.58366630  1
  O  O463  1  0.48397800  0.58365261  0.83676260  1
  O  O464  1  0.48385170  0.91660956  0.08746373  1
  O  O465  1  0.48670980  0.91685332  0.33627346  1
  O  O466  1  0.48483928  0.91672236  0.58382949  1
  O  O467  1  0.48254888  0.91640572  0.83735831  1
  O  O468  1  0.98359279  0.25013932  0.08647386  1
  O  O469  1  0.98500022  0.24988633  0.33681697  1
  O  O470  1  0.98228646  0.24989919  0.58457517  1
  O  O471  1  0.98545353  0.24994008  0.83708387  1
  O  O472  1  0.98340488  0.58246130  0.08618907  1
  O  O473  1  0.98308013  0.58395978  0.33758242  1
  O  O474  1  0.98543390  0.58312889  0.58673294  1
  O  O475  1  0.98619882  0.58391700  0.83603034  1
  O  O476  1  0.98363714  0.91648467  0.08433011  1
  O  O477  1  0.98089199  0.91637822  0.33506699  1
  O  O478  1  0.98471611  0.91663546  0.58699532  1
  O  O479  1  0.98406764  0.91693634  0.83690145  1
  O  O480  1  0.08725821  0.31587941  0.07789124  1
  O  O481  1  0.08919662  0.31373084  0.32759193  1
  O  O482  1  0.08629565  0.31499415  0.57623209  1
  O  O483  1  0.08890646  0.31527919  0.82823408  1
  O  O484  1  0.08729580  0.64729847  0.07708350  1
  O  O485  1  0.08686757  0.64918671  0.32808178  1
  O  O486  1  0.08882044  0.64901960  0.57760878  1
  O  O487  1  0.09065865  0.64720667  0.82745561  1
  O  O488  1  0.08750546  0.98181470  0.07631213  1
  O  O489  1  0.08476535  0.98159474  0.32720789  1
  O  O490  1  0.08807516  0.98152606  0.57722916  1
  O  O491  1  0.08776753  0.98207004  0.82674273  1
  O  O492  1  0.58548537  0.31505680  0.07706262  1
  O  O493  1  0.58978563  0.31404975  0.32674069  1
  O  O494  1  0.58791014  0.31535461  0.57632132  1
  O  O495  1  0.58611987  0.31511185  0.82711999  1
  O  O496  1  0.58708384  0.64887536  0.07800374  1
  O  O497  1  0.58976212  0.64862804  0.32765078  1
  O  O498  1  0.58906375  0.64762019  0.57681781  1
  O  O499  1  0.58752831  0.64924060  0.82903323  1
  O  O500  1  0.58762798  0.98125607  0.07661133  1
  O  O501  1  0.58996492  0.98265034  0.32755046  1
  O  O502  1  0.58888133  0.98181160  0.57670652  1
  O  O503  1  0.58591822  0.98152743  0.82758747  1
  O  O504  1  0.41139431  0.01797547  0.17175350  1
  O  O505  1  0.41444725  0.01856210  0.42311755  1
  O  O506  1  0.41099721  0.01832219  0.67209136  1
  O  O507  1  0.41067229  0.01681293  0.92241999  1
  O  O508  1  0.41088409  0.35175847  0.17206536  1
  O  O509  1  0.41213929  0.35159828  0.42302864  1
  O  O510  1  0.41057557  0.35202766  0.67232572  1
  O  O511  1  0.40991949  0.35204635  0.92304469  1
  O  O512  1  0.41429540  0.68479876  0.17313503  1
  O  O513  1  0.41568912  0.68490156  0.42289861  1
  O  O514  1  0.41336522  0.68469573  0.67270169  1
  O  O515  1  0.41370738  0.68574723  0.92350746  1
  O  O516  1  0.90987394  0.01947153  0.17272192  1
  O  O517  1  0.91195771  0.01721807  0.42224238  1
  O  O518  1  0.91179849  0.01942967  0.67181856  1
  O  O519  1  0.91243892  0.01694156  0.92293870  1
  O  O520  1  0.91462488  0.35134170  0.17255690  1
  O  O521  1  0.91121044  0.35278392  0.42304196  1
  O  O522  1  0.91190037  0.35019626  0.67212616  1
  O  O523  1  0.91435173  0.35205388  0.92254780  1
  O  O524  1  0.91266469  0.68351804  0.17220164  1
  O  O525  1  0.91258819  0.68505802  0.42337734  1
  O  O526  1  0.91418263  0.68450501  0.67270772  1
  O  O527  1  0.91270746  0.68603846  0.92261135  1
  O  O528  1  0.16103443  0.01870056  0.20249358  1
  O  O529  1  0.16270526  0.01931759  0.45062375  1
  O  O530  1  0.16445285  0.01683403  0.70248333  1
  O  O531  1  0.16448482  0.01796133  0.95290592  1
  O  O532  1  0.16029851  0.35191347  0.20229520  1
  O  O533  1  0.16328692  0.35131112  0.45272513  1
  O  O534  1  0.16289500  0.35217848  0.70265028  1
  O  O535  1  0.16218405  0.35124421  0.95321481  1
  O  O536  1  0.16119827  0.68404922  0.20369384  1
  O  O537  1  0.16072236  0.68408583  0.45260078  1
  O  O538  1  0.16110228  0.68567128  0.70228076  1
  O  O539  1  0.16241852  0.68523194  0.95373677  1
  O  O540  1  0.66279545  0.01838081  0.20294043  1
  O  O541  1  0.66377640  0.01862782  0.45198310  1
  O  O542  1  0.66289234  0.01833630  0.70268281  1
  O  O543  1  0.66398591  0.01807480  0.95235250  1
  O  O544  1  0.66235051  0.35135685  0.20241274  1
  O  O545  1  0.66448879  0.35142591  0.45254989  1
  O  O546  1  0.66457580  0.35171673  0.70190209  1
  O  O547  1  0.66265238  0.35233665  0.95242113  1
  O  O548  1  0.66067566  0.68483029  0.20286062  1
  O  O549  1  0.66354713  0.68489160  0.45197195  1
  O  O550  1  0.66236038  0.68496435  0.70334708  1
  O  O551  1  0.65988952  0.68457965  0.95354027  1
  O  O552  1  0.33605821  0.31520415  0.04854527  1
  O  O553  1  0.33598808  0.31531026  0.29734587  1
  O  O554  1  0.33580137  0.31488766  0.54646343  1
  O  O555  1  0.33722338  0.31503305  0.79710097  1
  O  O556  1  0.33644096  0.64767923  0.04928522  1
  O  O557  1  0.33577054  0.64843062  0.29830117  1
  O  O558  1  0.33532775  0.64796650  0.54742380  1
  O  O559  1  0.33545655  0.64839369  0.79785507  1
  O  O560  1  0.33765962  0.98219467  0.04792813  1
  O  O561  1  0.33840284  0.98126824  0.29723911  1
  O  O562  1  0.33720940  0.98288379  0.54567580  1
  O  O563  1  0.33721168  0.98174864  0.79770505  1
  O  O564  1  0.83886097  0.31438662  0.04858298  1
  O  O565  1  0.83741654  0.31433546  0.29727309  1
  O  O566  1  0.83724376  0.31475370  0.54740388  1
  O  O567  1  0.83873955  0.31643425  0.79670832  1
  O  O568  1  0.83643322  0.64860446  0.04885361  1
  O  O569  1  0.83737828  0.64842034  0.29765322  1
  O  O570  1  0.83713755  0.64926760  0.54684679  1
  O  O571  1  0.83787534  0.64763136  0.79827481  1
  O  O572  1  0.83584485  0.98218124  0.04698820  1
  O  O573  1  0.83647842  0.98231558  0.29762274  1
  O  O574  1  0.83722934  0.98144450  0.54637274  1
  O  O575  1  0.83899526  0.98109498  0.79841678  1
  O  O576  1  0.41148143  0.14848899  0.17241522  1
  O  O577  1  0.41449945  0.14847008  0.42332739  1
  O  O578  1  0.41098866  0.14838022  0.67215961  1
  O  O579  1  0.40961483  0.14689441  0.92304841  1
  O  O580  1  0.41100960  0.48233236  0.17176405  1
  O  O581  1  0.41213880  0.48160865  0.42301049  1
  O  O582  1  0.41092740  0.48213669  0.67240675  1
  O  O583  1  0.40992521  0.48200983  0.92315510  1
  O  O584  1  0.41453622  0.81513663  0.17308861  1
  O  O585  1  0.41562937  0.81493142  0.42274285  1
  O  O586  1  0.41313619  0.81487940  0.67230842  1
  O  O587  1  0.41378211  0.81586758  0.92312862  1
  O  O588  1  0.91097023  0.14965815  0.17221886  1
  O  O589  1  0.91177770  0.14734886  0.42259268  1
  O  O590  1  0.91233405  0.14977525  0.67142236  1
  O  O591  1  0.91171776  0.14701082  0.92346785  1
  O  O592  1  0.91394243  0.48150620  0.17213421  1
  O  O593  1  0.91195632  0.48297388  0.42276009  1
  O  O594  1  0.91096747  0.48045264  0.67279694  1
  O  O595  1  0.91499572  0.48209757  0.92277763  1
  O  O596  1  0.91165793  0.81377246  0.17226549  1
  O  O597  1  0.91260164  0.81515728  0.42320193  1
  O  O598  1  0.91359708  0.81467282  0.67247591  1
  O  O599  1  0.91347983  0.81615880  0.92243050  1
  O  O600  1  0.08759927  0.18586652  0.07701459  1
  O  O601  1  0.08811972  0.18350724  0.32780996  1
  O  O602  1  0.08650159  0.18509510  0.57614602  1
  O  O603  1  0.08876467  0.18492151  0.82773356  1
  O  O604  1  0.08739319  0.51738345  0.07787325  1
  O  O605  1  0.08692476  0.51910987  0.32729299  1
  O  O606  1  0.08929586  0.51885889  0.57700703  1
  O  O607  1  0.08914224  0.51701845  0.82758111  1
  O  O608  1  0.08795602  0.85192188  0.07656521  1
  O  O609  1  0.08488134  0.85142495  0.32770234  1
  O  O610  1  0.08814237  0.85132055  0.57799757  1
  O  O611  1  0.08800716  0.85210170  0.82707544  1
  O  O612  1  0.58537241  0.18497476  0.07696691  1
  O  O613  1  0.58911738  0.18386122  0.32728478  1
  O  O614  1  0.58830902  0.18548098  0.57667653  1
  O  O615  1  0.58627691  0.18482220  0.82736618  1
  O  O616  1  0.58700069  0.51887989  0.07653182  1
  O  O617  1  0.58988664  0.51847880  0.32682233  1
  O  O618  1  0.58825944  0.51775670  0.57625746  1
  O  O619  1  0.58744512  0.51886239  0.82765402  1
  O  O620  1  0.58760119  0.85117765  0.07803055  1
  O  O621  1  0.59073188  0.85236699  0.32793438  1
  O  O622  1  0.58912632  0.85198961  0.57693574  1
  O  O623  1  0.58639260  0.85128314  0.82868894  1
  O  O624  1  0.33645899  0.18509370  0.04864965  1
  O  O625  1  0.33566485  0.18535924  0.29786664  1
  O  O626  1  0.33594803  0.18466984  0.54619752  1
  O  O627  1  0.33748783  0.18463918  0.79679713  1
  O  O628  1  0.33590275  0.51768959  0.04841105  1
  O  O629  1  0.33629715  0.51844029  0.29734187  1
  O  O630  1  0.33550185  0.51768308  0.54660985  1
  O  O631  1  0.33559745  0.51820188  0.79743301  1
  O  O632  1  0.33788158  0.85209176  0.04900146  1
  O  O633  1  0.33800688  0.85113212  0.29779616  1
  O  O634  1  0.33714855  0.85244266  0.54684744  1
  O  O635  1  0.33708772  0.85175441  0.79851069  1
  O  O636  1  0.83857471  0.18426717  0.04763064  1
  O  O637  1  0.83692106  0.18424778  0.29676197  1
  O  O638  1  0.83696311  0.18469306  0.54757287  1
  O  O639  1  0.83913833  0.18623410  0.79720139  1
  O  O640  1  0.83657791  0.51861706  0.04876341  1
  O  O641  1  0.83789020  0.51844808  0.29754363  1
  O  O642  1  0.83775216  0.51901225  0.54629617  1
  O  O643  1  0.83815004  0.51739207  0.79743705  1
  O  O644  1  0.83576530  0.85199331  0.04772776  1
  O  O645  1  0.83645288  0.85234710  0.29834875  1
  O  O646  1  0.83699802  0.85106081  0.54660687  1
  O  O647  1  0.83827675  0.85120513  0.79899146  1
  O  O648  1  0.16115032  0.14897504  0.20331369  1
  O  O649  1  0.16274030  0.14924180  0.45206063  1
  O  O650  1  0.16412795  0.14690934  0.70208250  1
  O  O651  1  0.16417425  0.14821433  0.95316583  1
  O  O652  1  0.16046038  0.48208012  0.20224833  1
  O  O653  1  0.16319060  0.48140896  0.45239303  1
  O  O654  1  0.16305869  0.48221226  0.70314858  1
  O  O655  1  0.16204548  0.48162501  0.95325133  1
  O  O656  1  0.16102481  0.81433226  0.20292847  1
  O  O657  1  0.16033734  0.81416803  0.45142387  1
  O  O658  1  0.16163748  0.81591804  0.70215654  1
  O  O659  1  0.16303692  0.81552678  0.95332249  1
  O  O660  1  0.66299682  0.14860484  0.20254409  1
  O  O661  1  0.66364280  0.14872213  0.45215529  1
  O  O662  1  0.66309654  0.14851293  0.70247415  1
  O  O663  1  0.66376253  0.14825212  0.95233921  1
  O  O664  1  0.66224795  0.48163316  0.20265225  1
  O  O665  1  0.66462273  0.48160208  0.45225499  1
  O  O666  1  0.66446432  0.48174094  0.70187090  1
  O  O667  1  0.66311737  0.48272827  0.95280747  1
  O  O668  1  0.66043176  0.81515832  0.20296982  1
  O  O669  1  0.66348875  0.81496966  0.45216137  1
  O  O670  1  0.66250604  0.81518929  0.70328807  1
  O  O671  1  0.65989020  0.81485479  0.95328108  1
