# generated using pymatgen
data_Na2MnFe(PO4)2
_symmetry_space_group_name_H-M   'P 1'
_cell_length_a   21.08171953
_cell_length_b   18.93331868
_cell_length_c   20.04108653
_cell_angle_alpha   89.99983087
_cell_angle_beta   89.99905781
_cell_angle_gamma   90.00028257
_symmetry_Int_Tables_number   1
_chemical_formula_structural   Na2MnFe(PO4)2
_chemical_formula_sum   'Na96 Mn48 Fe48 P96 O384'
_cell_volume   7999.33784428
_cell_formula_units_Z   48
loop_
 _symmetry_equiv_pos_site_id
 _symmetry_equiv_pos_as_xyz
  1  'x, y, z'
loop_
 _atom_site_type_symbol
 _atom_site_label
 _atom_site_symmetry_multiplicity
 _atom_site_fract_x
 _atom_site_fract_y
 _atom_site_fract_z
 _atom_site_occupancy
  Na  Na0  1  -0.00037812  -0.00070925  -0.00167809  1
  Na  Na1  1  -0.00054081  -0.00040243  0.24999463  1
  Na  Na2  1  -0.00234954  -0.00063551  0.50093015  1
  Na  Na3  1  -0.00213348  -0.00089395  0.75104015  1
  Na  Na4  1  0.00304965  0.33505121  -0.00131301  1
  Na  Na5  1  0.00046376  0.33321834  0.24999926  1
  Na  Na6  1  -0.00006878  0.33340042  0.50021089  1
  Na  Na7  1  -0.00046331  0.33325859  0.75053845  1
  Na  Na8  1  -0.00012598  0.66681178  -0.00140321  1
  Na  Na9  1  0.00018818  0.66647336  0.24947066  1
  Na  Na10  1  -0.00023922  0.66611652  0.50139769  1
  Na  Na11  1  -0.00092357  0.66622171  0.74980471  1
  Na  Na12  1  0.49920960  -0.00121094  -0.00067765  1
  Na  Na13  1  0.50020819  -0.00002915  0.25063919  1
  Na  Na14  1  0.50282920  -0.00006839  0.50113665  1
  Na  Na15  1  0.50206451  -0.00060282  0.74968079  1
  Na  Na16  1  0.50156967  0.33482888  -0.00079216  1
  Na  Na17  1  0.49829183  0.33280780  0.24995624  1
  Na  Na18  1  0.50159655  0.33425664  0.50062334  1
  Na  Na19  1  0.50161867  0.33418571  0.75049590  1
  Na  Na20  1  0.49750285  0.66590426  0.00032318  1
  Na  Na21  1  0.49879723  0.66630959  0.24979805  1
  Na  Na22  1  0.50151153  0.66695486  0.49949817  1
  Na  Na23  1  0.50027616  0.66663492  0.75003467  1
  Na  Na24  1  0.25089045  -0.00051347  0.12463616  1
  Na  Na25  1  0.25082049  -0.00034452  0.37526593  1
  Na  Na26  1  0.24975795  -0.00098506  0.62413057  1
  Na  Na27  1  0.25025810  -0.00109967  0.87549527  1
  Na  Na28  1  0.24937930  0.33320724  0.12460687  1
  Na  Na29  1  0.25141202  0.33425140  0.37544302  1
  Na  Na30  1  0.25001887  0.33366386  0.62543692  1
  Na  Na31  1  0.25029216  0.33424738  0.87496616  1
  Na  Na32  1  0.25068686  0.66714664  0.12444761  1
  Na  Na33  1  0.24821712  0.66604906  0.37395972  1
  Na  Na34  1  0.24834892  0.66607004  0.62648196  1
  Na  Na35  1  0.25054618  0.66715087  0.87498653  1
  Na  Na36  1  0.75094043  -0.00024365  0.12509333  1
  Na  Na37  1  0.74862598  -0.00032038  0.37442199  1
  Na  Na38  1  0.74877749  -0.00068106  0.62518661  1
  Na  Na39  1  0.75146525  0.00000628  0.87616956  1
  Na  Na40  1  0.74734897  0.33323931  0.12470388  1
  Na  Na41  1  0.75009665  0.33439220  0.37543485  1
  Na  Na42  1  0.74694786  0.33285230  0.62476573  1
  Na  Na43  1  0.74655969  0.33341730  0.87540685  1
  Na  Na44  1  0.75235508  0.66643846  0.12432559  1
  Na  Na45  1  0.75059727  0.66628559  0.37489379  1
  Na  Na46  1  0.75071902  0.66675958  0.62584011  1
  Na  Na47  1  0.75248824  0.66716703  0.87430082  1
  Na  Na48  1  0.00167839  0.16602129  -0.00151470  1
  Na  Na49  1  -0.00112404  0.16765036  0.24997953  1
  Na  Na50  1  -0.00013329  0.16659197  0.50042803  1
  Na  Na51  1  -0.00122457  0.16741684  0.75083048  1
  Na  Na52  1  0.00020504  0.50024197  -0.00140634  1
  Na  Na53  1  -0.00036229  0.50041449  0.25081428  1
  Na  Na54  1  -0.00154508  0.50081261  0.50101065  1
  Na  Na55  1  -0.00152209  0.50067757  0.75016505  1
  Na  Na56  1  0.00079413  0.83286843  -0.00159952  1
  Na  Na57  1  0.00184912  0.83239457  0.24873578  1
  Na  Na58  1  -0.00063650  0.83330529  0.50115701  1
  Na  Na59  1  -0.00108344  0.83377968  0.75050029  1
  Na  Na60  1  0.50240272  0.16577830  -0.00069305  1
  Na  Na61  1  0.50096551  0.16653185  0.25009037  1
  Na  Na62  1  0.50301283  0.16655207  0.50126421  1
  Na  Na63  1  0.50298272  0.16658875  0.75049604  1
  Na  Na64  1  0.49816942  0.50002166  -0.00029304  1
  Na  Na65  1  0.49903725  0.49986331  0.25021192  1
  Na  Na66  1  0.50072065  0.49982638  0.49885566  1
  Na  Na67  1  0.49883162  0.50070540  0.75040601  1
  Na  Na68  1  0.49865065  0.83342248  0.00003744  1
  Na  Na69  1  0.49733781  0.83427877  0.25004133  1
  Na  Na70  1  0.50117677  0.83342588  0.50091125  1
  Na  Na71  1  0.50248686  0.83212028  0.74928748  1
  Na  Na72  1  0.24924765  0.16746543  0.12490326  1
  Na  Na73  1  0.25049018  0.16701160  0.37529009  1
  Na  Na74  1  0.24878916  0.16737233  0.62466024  1
  Na  Na75  1  0.24965400  0.16673491  0.87443829  1
  Na  Na76  1  0.25222529  0.49914045  0.12349014  1
  Na  Na77  1  0.24953419  0.50062166  0.37477471  1
  Na  Na78  1  0.25081322  0.50004069  0.62618175  1
  Na  Na79  1  0.25136937  0.50018842  0.87532486  1
  Na  Na80  1  0.24961373  0.83360977  0.12528081  1
  Na  Na81  1  0.24920589  0.83348252  0.37457428  1
  Na  Na82  1  0.24933195  0.83304203  0.62504761  1
  Na  Na83  1  0.24955829  0.83340541  0.87571545  1
  Na  Na84  1  0.74781690  0.16726239  0.12595142  1
  Na  Na85  1  0.74845412  0.16660482  0.37507168  1
  Na  Na86  1  0.74808520  0.16721253  0.62433702  1
  Na  Na87  1  0.74861754  0.16689245  0.87608766  1
  Na  Na88  1  0.75079954  0.50048252  0.12385437  1
  Na  Na89  1  0.75039275  0.50056515  0.37499532  1
  Na  Na90  1  0.75031487  0.49991761  0.62537560  1
  Na  Na91  1  0.75080425  0.50003258  0.87550146  1
  Na  Na92  1  0.75210996  0.83256521  0.12423272  1
  Na  Na93  1  0.74934381  0.83357004  0.37482327  1
  Na  Na94  1  0.74892719  0.83325662  0.62598132  1
  Na  Na95  1  0.75050309  0.83317279  0.87448881  1
  Mn  Mn96  1  0.60751265  0.41644122  0.37206504  1
  Mn  Mn97  1  0.64174332  0.91570275  0.24713390  1
  Mn  Mn98  1  0.35892132  0.08423553  0.25268351  1
  Mn  Mn99  1  0.89249484  0.25044832  0.12663269  1
  Mn  Mn100  1  0.85774204  0.41650265  0.00230347  1
  Mn  Mn101  1  0.10757517  0.08290403  0.37283015  1
  Mn  Mn102  1  0.14246559  0.24975378  0.74741971  1
  Mn  Mn103  1  0.35860023  0.08311586  0.75160977  1
  Mn  Mn104  1  0.10677123  0.08335432  0.62332174  1
  Mn  Mn105  1  0.39167281  0.58363703  0.37802574  1
  Mn  Mn106  1  0.60738361  0.74970261  0.12205529  1
  Mn  Mn107  1  0.10757934  0.41693295  0.37298263  1
  Mn  Mn108  1  0.10732130  0.41657841  0.62365648  1
  Mn  Mn109  1  0.39316740  0.24971234  0.87720580  1
  Mn  Mn110  1  0.39363561  0.91620730  0.62761176  1
  Mn  Mn111  1  0.85746866  0.75030716  0.50218664  1
  Mn  Mn112  1  0.85763080  0.08372815  0.00295279  1
  Mn  Mn113  1  0.64149973  0.25068692  0.24784738  1
  Mn  Mn114  1  0.10807515  0.08319167  0.12247381  1
  Mn  Mn115  1  0.35730844  0.74936203  0.50209271  1
  Mn  Mn116  1  0.10777920  0.08289043  0.87192160  1
  Mn  Mn117  1  0.89096319  0.25013351  0.62753634  1
  Mn  Mn118  1  0.35817516  0.75025359  0.75211679  1
  Mn  Mn119  1  0.39241955  0.24971985  0.12664203  1
  Mn  Mn120  1  0.85743332  0.08378086  0.25194302  1
  Mn  Mn121  1  0.35847264  0.08346483  0.50288696  1
  Mn  Mn122  1  0.85642756  0.08326844  0.50217909  1
  Mn  Mn123  1  0.39353897  0.25036375  0.62721264  1
  Mn  Mn124  1  0.64263230  0.58358151  0.24721264  1
  Mn  Mn125  1  0.89155992  0.25058622  0.87764044  1
  Mn  Mn126  1  0.64246685  0.91584458  0.99807120  1
  Mn  Mn127  1  0.14181449  0.58263221  0.24709453  1
  Mn  Mn128  1  0.64229873  0.58377965  0.99778998  1
  Mn  Mn129  1  0.10670934  0.75009544  0.62337917  1
  Mn  Mn130  1  0.35719024  0.74960569  0.25225769  1
  Mn  Mn131  1  0.85930519  0.74993358  0.25213917  1
  Mn  Mn132  1  0.14143307  0.91655228  0.49785009  1
  Mn  Mn133  1  0.85699786  0.41655506  0.50249278  1
  Mn  Mn134  1  0.60840989  0.08227583  0.87230542  1
  Mn  Mn135  1  0.64227801  0.58344355  0.74792475  1
  Mn  Mn136  1  0.85834542  0.41618156  0.25119123  1
  Mn  Mn137  1  0.14222338  0.25014805  0.24816179  1
  Mn  Mn138  1  0.14287746  0.58342897  0.99742640  1
  Mn  Mn139  1  0.14231700  0.91724299  0.24770609  1
  Mn  Mn140  1  0.35796872  0.08342395  0.00216843  1
  Mn  Mn141  1  0.89195901  0.91635287  0.37748246  1
  Mn  Mn142  1  0.60788018  0.75035173  0.37219187  1
  Mn  Mn143  1  0.35773732  0.41735824  0.50267934  1
  Fe  Fe144  1  0.14271441  0.24983086  0.99831456  1
  Fe  Fe145  1  0.89334413  0.58340598  0.87618955  1
  Fe  Fe146  1  0.60723241  0.08309600  0.12351227  1
  Fe  Fe147  1  0.14311269  0.58349583  0.74854670  1
  Fe  Fe148  1  0.89211718  0.25035632  0.37692510  1
  Fe  Fe149  1  0.10693742  0.74982021  0.37373640  1
  Fe  Fe150  1  0.85628942  0.41606855  0.75204871  1
  Fe  Fe151  1  0.64279735  0.91618590  0.49815720  1
  Fe  Fe152  1  0.35735661  0.41637679  0.25114810  1
  Fe  Fe153  1  0.39301667  0.91725830  0.37721202  1
  Fe  Fe154  1  0.14248509  0.25033657  0.49793546  1
  Fe  Fe155  1  0.39251184  0.58344488  0.12668386  1
  Fe  Fe156  1  0.14178689  0.58291809  0.49888063  1
  Fe  Fe157  1  0.60668395  0.08308040  0.37326981  1
  Fe  Fe158  1  0.60740051  0.41797367  0.62384123  1
  Fe  Fe159  1  0.60746303  0.74932474  0.87419447  1
  Fe  Fe160  1  0.10791496  0.41775261  0.87264957  1
  Fe  Fe161  1  0.60896973  0.08315967  0.62343601  1
  Fe  Fe162  1  0.64284147  0.24990583  0.74840565  1
  Fe  Fe163  1  0.64279662  0.58355764  0.49847592  1
  Fe  Fe164  1  0.10827341  0.41714834  0.12297833  1
  Fe  Fe165  1  0.85631015  0.08373334  0.75117695  1
  Fe  Fe166  1  0.60664171  0.41830970  0.87312477  1
  Fe  Fe167  1  0.89187730  0.58345020  0.62730386  1
  Fe  Fe168  1  0.39278322  0.91583924  0.87591602  1
  Fe  Fe169  1  0.10715230  0.74953561  0.87310058  1
  Fe  Fe170  1  0.10731277  0.74980765  0.12237675  1
  Fe  Fe171  1  0.89382528  0.58334216  0.12620455  1
  Fe  Fe172  1  0.64177367  0.25023139  0.99872687  1
  Fe  Fe173  1  0.85832067  0.75005715  0.00128561  1
  Fe  Fe174  1  0.39244603  0.58422044  0.87634211  1
  Fe  Fe175  1  0.64226134  0.25016625  0.49719128  1
  Fe  Fe176  1  0.89103968  0.91649370  0.62784054  1
  Fe  Fe177  1  0.14295122  0.91692614  0.99800354  1
  Fe  Fe178  1  0.60640991  0.41693303  0.12326768  1
  Fe  Fe179  1  0.64341002  0.91670463  0.74924155  1
  Fe  Fe180  1  0.39290734  0.24912551  0.37750198  1
  Fe  Fe181  1  0.39277564  0.58356239  0.62621872  1
  Fe  Fe182  1  0.89267100  0.91590677  0.87675563  1
  Fe  Fe183  1  0.60832840  0.74882902  0.62315972  1
  Fe  Fe184  1  0.14236968  0.91656011  0.74841891  1
  Fe  Fe185  1  0.35718988  0.75021954  0.00133310  1
  Fe  Fe186  1  0.89297955  0.58312522  0.37713475  1
  Fe  Fe187  1  0.39235220  0.91665092  0.12656015  1
  Fe  Fe188  1  0.89386983  0.91632170  0.12620747  1
  Fe  Fe189  1  0.35801952  0.41676123  0.75177176  1
  Fe  Fe190  1  0.85689616  0.75007200  0.75217596  1
  Fe  Fe191  1  0.35721819  0.41650373  0.00167848  1
  P  P192  1  0.05411254  0.25082021  0.10890531  1
  P  P193  1  0.05298241  0.25009147  0.36118554  1
  P  P194  1  0.05323067  0.25015022  0.60961111  1
  P  P195  1  0.05480482  0.25098381  0.86089065  1
  P  P196  1  0.05276761  0.58325012  0.10915430  1
  P  P197  1  0.05336200  0.58399981  0.36146208  1
  P  P198  1  0.05336833  0.58315032  0.61143773  1
  P  P199  1  0.05359186  0.58369312  0.85951238  1
  P  P200  1  0.05332965  0.91611442  0.10869818  1
  P  P201  1  0.05291363  0.91559326  0.36006064  1
  P  P202  1  0.05205199  0.91675881  0.61176117  1
  P  P203  1  0.05412676  0.91554863  0.86051723  1
  P  P204  1  0.55363426  0.25037135  0.10941850  1
  P  P205  1  0.55318414  0.24936517  0.36116610  1
  P  P206  1  0.55650154  0.25091271  0.61125045  1
  P  P207  1  0.55580258  0.25118895  0.86074467  1
  P  P208  1  0.55179079  0.58257849  0.10992693  1
  P  P209  1  0.55420239  0.58344121  0.36042746  1
  P  P210  1  0.55304119  0.58304302  0.60994770  1
  P  P211  1  0.55218267  0.58385842  0.86031273  1
  P  P212  1  0.55178962  0.91688399  0.10989856  1
  P  P213  1  0.55350847  0.91719035  0.36123331  1
  P  P214  1  0.55681473  0.91593659  0.61140608  1
  P  P215  1  0.55322303  0.91481669  0.85966646  1
  P  P216  1  0.44799897  0.08281106  0.13964596  1
  P  P217  1  0.44795496  0.08346907  0.39081750  1
  P  P218  1  0.44960134  0.08348279  0.64008186  1
  P  P219  1  0.44713145  0.08209050  0.88946811  1
  P  P220  1  0.44554127  0.41709773  0.13896722  1
  P  P221  1  0.44512141  0.41558048  0.38895140  1
  P  P222  1  0.44746138  0.41777643  0.64039695  1
  P  P223  1  0.44556585  0.41755450  0.88905810  1
  P  P224  1  0.44483704  0.74995189  0.13861968  1
  P  P225  1  0.44653300  0.75082546  0.39031157  1
  P  P226  1  0.44836901  0.74885115  0.63961660  1
  P  P227  1  0.44707013  0.75015719  0.88988377  1
  P  P228  1  0.94696691  0.08262926  0.13951890  1
  P  P229  1  0.94605812  0.08416817  0.39036304  1
  P  P230  1  0.94483447  0.08288663  0.64114851  1
  P  P231  1  0.94447575  0.08279757  0.88840953  1
  P  P232  1  0.94874827  0.41747398  0.13929607  1
  P  P233  1  0.94612478  0.41670768  0.39018812  1
  P  P234  1  0.94515304  0.41713956  0.64106335  1
  P  P235  1  0.94640538  0.41745405  0.88842119  1
  P  P236  1  0.94720926  0.74997231  0.13771362  1
  P  P237  1  0.94795460  0.74902243  0.39040402  1
  P  P238  1  0.94478245  0.74999352  0.64092260  1
  P  P239  1  0.94567635  0.74977362  0.88843141  1
  P  P240  1  0.19756290  0.08345456  0.23479666  1
  P  P241  1  0.19656262  0.08392220  0.48505519  1
  P  P242  1  0.19712895  0.08176636  0.73453710  1
  P  P243  1  0.19657703  0.08299153  0.98476187  1
  P  P244  1  0.19740291  0.41674349  0.23406135  1
  P  P245  1  0.19619271  0.41715326  0.48559332  1
  P  P246  1  0.19699449  0.41800517  0.73647806  1
  P  P247  1  0.19609099  0.41659186  0.98524607  1
  P  P248  1  0.19439917  0.74984269  0.23497385  1
  P  P249  1  0.19532924  0.74879534  0.48469993  1
  P  P250  1  0.19508843  0.75011326  0.73675203  1
  P  P251  1  0.19575106  0.75056115  0.98550378  1
  P  P252  1  0.69433809  0.08308099  0.23537799  1
  P  P253  1  0.69412073  0.08285401  0.48542206  1
  P  P254  1  0.69724445  0.08303053  0.73514247  1
  P  P255  1  0.69503834  0.08336439  0.98662409  1
  P  P256  1  0.69622313  0.41728936  0.23371489  1
  P  P257  1  0.69467877  0.41761782  0.48628122  1
  P  P258  1  0.69563901  0.41696806  0.73603228  1
  P  P259  1  0.69426561  0.41680347  0.98560223  1
  P  P260  1  0.69752529  0.74961840  0.23393660  1
  P  P261  1  0.69551932  0.74949887  0.48618801  1
  P  P262  1  0.69602343  0.75019097  0.73642452  1
  P  P263  1  0.69804442  0.74960066  0.98405327  1
  P  P264  1  0.30232816  0.25071758  0.01438834  1
  P  P265  1  0.30436496  0.25116733  0.26566621  1
  P  P266  1  0.30344054  0.25018450  0.51449738  1
  P  P267  1  0.30404295  0.25070088  0.76487992  1
  P  P268  1  0.30564479  0.58385228  0.01376030  1
  P  P269  1  0.30441131  0.58232307  0.26350158  1
  P  P270  1  0.30184897  0.58375350  0.51622175  1
  P  P271  1  0.30458450  0.58316769  0.76449556  1
  P  P272  1  0.30415342  0.91547621  0.01408804  1
  P  P273  1  0.30539337  0.91685515  0.26479434  1
  P  P274  1  0.30452112  0.91615962  0.51442351  1
  P  P275  1  0.30287165  0.91616657  0.76549754  1
  P  P276  1  0.80125961  0.25046391  0.01543840  1
  P  P277  1  0.80344580  0.25035641  0.26578757  1
  P  P278  1  0.80218603  0.25004117  0.51384290  1
  P  P279  1  0.80142994  0.25031267  0.76511310  1
  P  P280  1  0.80589977  0.58416139  0.01386362  1
  P  P281  1  0.80595172  0.58306023  0.26435875  1
  P  P282  1  0.80374604  0.58349214  0.51482320  1
  P  P283  1  0.80501977  0.58297291  0.76460480  1
  P  P284  1  0.80561202  0.91542325  0.01438398  1
  P  P285  1  0.80451950  0.91650550  0.26382763  1
  P  P286  1  0.80217431  0.91649850  0.51576749  1
  P  P287  1  0.80381935  0.91672022  0.76466461  1
  O  O288  1  0.05662703  0.25011294  0.18577406  1
  O  O289  1  0.05824244  0.25010807  0.43783825  1
  O  O290  1  0.05675295  0.25019950  0.68646251  1
  O  O291  1  0.05955665  0.25035293  0.93760608  1
  O  O292  1  0.05579600  0.58308255  0.18613888  1
  O  O293  1  0.05758275  0.58317070  0.43810263  1
  O  O294  1  0.05871465  0.58299666  0.68808209  1
  O  O295  1  0.05727786  0.58352745  0.93597669  1
  O  O296  1  0.05676801  0.91693066  0.18545191  1
  O  O297  1  0.05547665  0.91653434  0.43688663  1
  O  O298  1  0.05737519  0.91692204  0.68839096  1
  O  O299  1  0.05924208  0.91643037  0.93714544  1
  O  O300  1  0.55584527  0.25057751  0.18626641  1
  O  O301  1  0.55798768  0.25057821  0.43790238  1
  O  O302  1  0.56017814  0.25046104  0.68816766  1
  O  O303  1  0.55908084  0.25030279  0.93754551  1
  O  O304  1  0.55564394  0.58318396  0.18655127  1
  O  O305  1  0.55890825  0.58350741  0.43722945  1
  O  O306  1  0.55635290  0.58316866  0.68633836  1
  O  O307  1  0.55572473  0.58359116  0.93722966  1
  O  O308  1  0.55535443  0.91616131  0.18659954  1
  O  O309  1  0.55843427  0.91600664  0.43790799  1
  O  O310  1  0.56076141  0.91615176  0.68820311  1
  O  O311  1  0.55662592  0.91565801  0.93641187  1
  O  O312  1  0.44423718  0.08335884  0.06291221  1
  O  O313  1  0.44466129  0.08369815  0.31405509  1
  O  O314  1  0.44536679  0.08351778  0.56340901  1
  O  O315  1  0.44439329  0.08309368  0.81270286  1
  O  O316  1  0.44100459  0.41620453  0.06216955  1
  O  O317  1  0.44116959  0.41632022  0.31221817  1
  O  O318  1  0.44386206  0.41696189  0.56360412  1
  O  O319  1  0.44116287  0.41668200  0.81233634  1
  O  O320  1  0.44104250  0.75010450  0.06176990  1
  O  O321  1  0.44301220  0.74981016  0.31355607  1
  O  O322  1  0.44421953  0.74958045  0.56291653  1
  O  O323  1  0.44409834  0.75014647  0.81340773  1
  O  O324  1  0.94419158  0.08339173  0.06267619  1
  O  O325  1  0.94322549  0.08383252  0.31355949  1
  O  O326  1  0.94183277  0.08342189  0.56434778  1
  O  O327  1  0.93962997  0.08392484  0.81170771  1
  O  O328  1  0.94482274  0.41676788  0.06261379  1
  O  O329  1  0.94379946  0.41629505  0.31341369  1
  O  O330  1  0.94222399  0.41642078  0.56428213  1
  O  O331  1  0.94079601  0.41602452  0.81183818  1
  O  O332  1  0.94300009  0.75002600  0.06105809  1
  O  O333  1  0.94509677  0.74969711  0.31359574  1
  O  O334  1  0.94235272  0.75005992  0.56415538  1
  O  O335  1  0.94086884  0.75020763  0.81174074  1
  O  O336  1  0.19383514  0.08289292  0.06154353  1
  O  O337  1  0.19401304  0.08302412  0.31155177  1
  O  O338  1  0.19297206  0.08325302  0.56182393  1
  O  O339  1  0.19406110  0.08220816  0.81133928  1
  O  O340  1  0.19143406  0.41743295  0.06197434  1
  O  O341  1  0.19320937  0.41737418  0.31075464  1
  O  O342  1  0.19328641  0.41694807  0.56236090  1
  O  O343  1  0.19221973  0.41785068  0.81317065  1
  O  O344  1  0.19103968  0.74981127  0.06224646  1
  O  O345  1  0.19011204  0.74966129  0.31171275  1
  O  O346  1  0.19236737  0.74971085  0.56155457  1
  O  O347  1  0.19127008  0.74997885  0.81356847  1
  O  O348  1  0.69079063  0.08243569  0.06339180  1
  O  O349  1  0.69004183  0.08289663  0.31217928  1
  O  O350  1  0.69111917  0.08314442  0.56234364  1
  O  O351  1  0.69426676  0.08267647  0.81194328  1
  O  O352  1  0.68993572  0.41801273  0.06233507  1
  O  O353  1  0.69315917  0.41743975  0.31056263  1
  O  O354  1  0.69117037  0.41783205  0.56304407  1
  O  O355  1  0.69095153  0.41845385  0.81273807  1
  O  O356  1  0.69371908  0.74935280  0.06072539  1
  O  O357  1  0.69365798  0.74976230  0.31074322  1
  O  O358  1  0.69215187  0.74904025  0.56302754  1
  O  O359  1  0.69121542  0.74922674  0.81307275  1
  O  O360  1  0.30727185  0.24995829  0.18883740  1
  O  O361  1  0.30872471  0.24973918  0.43785088  1
  O  O362  1  0.30740085  0.25033833  0.68808306  1
  O  O363  1  0.30646277  0.25023850  0.93774628  1
  O  O364  1  0.30856767  0.58316026  0.18678461  1
  O  O365  1  0.30579442  0.58390556  0.43945141  1
  O  O366  1  0.30926623  0.58380526  0.68783179  1
  O  O367  1  0.30931984  0.58414736  0.93686218  1
  O  O368  1  0.30964900  0.91703058  0.18793292  1
  O  O369  1  0.30932351  0.91646641  0.43766970  1
  O  O370  1  0.30724978  0.91585501  0.68875836  1
  O  O371  1  0.30904616  0.91584791  0.93743645  1
  O  O372  1  0.80685681  0.25040137  0.18898444  1
  O  O373  1  0.80759686  0.25023661  0.43724452  1
  O  O374  1  0.80462205  0.25057716  0.68839055  1
  O  O375  1  0.80537636  0.25070798  0.93872848  1
  O  O376  1  0.81070753  0.58310770  0.18755859  1
  O  O377  1  0.80869070  0.58356594  0.43811894  1
  O  O378  1  0.80839697  0.58305716  0.68761317  1
  O  O379  1  0.81001493  0.58327925  0.93710869  1
  O  O380  1  0.80956239  0.91621003  0.18711420  1
  O  O381  1  0.80610070  0.91639291  0.43900711  1
  O  O382  1  0.80751448  0.91642320  0.68788788  1
  O  O383  1  0.80944004  0.91592674  0.93755766  1
  O  O384  1  0.23225369  0.25041753  0.03884688  1
  O  O385  1  0.23463876  0.25066093  0.29079503  1
  O  O386  1  0.23303006  0.25050343  0.53791447  1
  O  O387  1  0.23427624  0.25056651  0.78978091  1
  O  O388  1  0.23565600  0.58345391  0.03803008  1
  O  O389  1  0.23429107  0.58291127  0.28769990  1
  O  O390  1  0.23179731  0.58306220  0.54059523  1
  O  O391  1  0.23419595  0.58380264  0.78837640  1
  O  O392  1  0.23368543  0.91627825  0.03767185  1
  O  O393  1  0.23522071  0.91677229  0.28847695  1
  O  O394  1  0.23431109  0.91592948  0.53803117  1
  O  O395  1  0.23269095  0.91597694  0.78958104  1
  O  O396  1  0.73118696  0.25046573  0.03968598  1
  O  O397  1  0.73356060  0.25050211  0.29036308  1
  O  O398  1  0.73169479  0.24974884  0.53695357  1
  O  O399  1  0.73138393  0.25020060  0.79000653  1
  O  O400  1  0.73570280  0.58358459  0.03785617  1
  O  O401  1  0.73576919  0.58340002  0.28799598  1
  O  O402  1  0.73341030  0.58333276  0.53853812  1
  O  O403  1  0.73513534  0.58343964  0.78905213  1
  O  O404  1  0.73554393  0.91597620  0.03861023  1
  O  O405  1  0.73439852  0.91655540  0.28762310  1
  O  O406  1  0.73204554  0.91637467  0.53987842  1
  O  O407  1  0.73346382  0.91655235  0.78890698  1
  O  O408  1  0.26728652  0.08377817  0.20983227  1
  O  O409  1  0.26638318  0.08345223  0.46022203  1
  O  O410  1  0.26670074  0.08258352  0.70901403  1
  O  O411  1  0.26623979  0.08298644  0.95937705  1
  O  O412  1  0.26746405  0.41627601  0.20977850  1
  O  O413  1  0.26581417  0.41758338  0.46019451  1
  O  O414  1  0.26732700  0.41730020  0.71261241  1
  O  O415  1  0.26669801  0.41736691  0.96199239  1
  O  O416  1  0.26451524  0.74996630  0.21117781  1
  O  O417  1  0.26494557  0.74959872  0.45927062  1
  O  O418  1  0.26492636  0.74998860  0.71205129  1
  O  O419  1  0.26625679  0.74997261  0.96205036  1
  O  O420  1  0.76443069  0.08359411  0.21145844  1
  O  O421  1  0.76397482  0.08312537  0.46055087  1
  O  O422  1  0.76714009  0.08323538  0.70994984  1
  O  O423  1  0.76503469  0.08316060  0.96239013  1
  O  O424  1  0.76593055  0.41671746  0.20871519  1
  O  O425  1  0.76451730  0.41744076  0.46142591  1
  O  O426  1  0.76601941  0.41695468  0.71221318  1
  O  O427  1  0.76446856  0.41708098  0.96177216  1
  O  O428  1  0.76737499  0.74940424  0.20955039  1
  O  O429  1  0.76525674  0.74985194  0.46100379  1
  O  O430  1  0.76661932  0.74979341  0.71311330  1
  O  O431  1  0.76820261  0.74993665  0.96003732  1
  O  O432  1  0.01647530  0.08328323  0.16518595  1
  O  O433  1  0.01557050  0.08308952  0.41600840  1
  O  O434  1  0.01450557  0.08348685  0.66641613  1
  O  O435  1  0.01473523  0.08260128  0.91191160  1
  O  O436  1  0.01867443  0.41703083  0.16430424  1
  O  O437  1  0.01558477  0.41710679  0.41609040  1
  O  O438  1  0.01490988  0.41679644  0.66605493  1
  O  O439  1  0.01699872  0.41793350  0.91134528  1
  O  O440  1  0.01742715  0.74975610  0.16204036  1
  O  O441  1  0.01755810  0.74953961  0.41613995  1
  O  O442  1  0.01447095  0.74995122  0.66617707  1
  O  O443  1  0.01621576  0.74961397  0.91180953  1
  O  O444  1  0.51793611  0.08321410  0.16452893  1
  O  O445  1  0.51787409  0.08330577  0.41580043  1
  O  O446  1  0.51986060  0.08318082  0.66409550  1
  O  O447  1  0.51684863  0.08199093  0.91460706  1
  O  O448  1  0.51587560  0.41650727  0.16286788  1
  O  O449  1  0.51509824  0.41643020  0.41328642  1
  O  O450  1  0.51755388  0.41755711  0.66484111  1
  O  O451  1  0.51601132  0.41761426  0.91258432  1
  O  O452  1  0.51467714  0.75007906  0.16347013  1
  O  O453  1  0.51631332  0.75050403  0.41503807  1
  O  O454  1  0.51857291  0.74898480  0.66376774  1
  O  O455  1  0.51703447  0.74967879  0.91528285  1
  O  O456  1  0.48410815  0.25033074  0.08349642  1
  O  O457  1  0.48307506  0.24935472  0.33700913  1
  O  O458  1  0.48646549  0.25092477  0.58680133  1
  O  O459  1  0.48588094  0.25031408  0.83611993  1
  O  O460  1  0.48173242  0.58296633  0.08540378  1
  O  O461  1  0.48408257  0.58324453  0.33678502  1
  O  O462  1  0.48300919  0.58326690  0.58468143  1
  O  O463  1  0.48212375  0.58396452  0.83580916  1
  O  O464  1  0.48175086  0.91630956  0.08522005  1
  O  O465  1  0.48323286  0.91712202  0.33742016  1
  O  O466  1  0.48668832  0.91611373  0.58724545  1
  O  O467  1  0.48326205  0.91551180  0.83476676  1
  O  O468  1  0.98454936  0.25042100  0.08311337  1
  O  O469  1  0.98267281  0.25052893  0.33748935  1
  O  O470  1  0.98326053  0.25013815  0.58533847  1
  O  O471  1  0.98457483  0.25062769  0.83724389  1
  O  O472  1  0.98295770  0.58360185  0.08396377  1
  O  O473  1  0.98328911  0.58328210  0.33693865  1
  O  O474  1  0.98270100  0.58358210  0.58861332  1
  O  O475  1  0.98329626  0.58371901  0.83532814  1
  O  O476  1  0.98331623  0.91614824  0.08396688  1
  O  O477  1  0.98344481  0.91582256  0.33430393  1
  O  O478  1  0.98155310  0.91623431  0.58847047  1
  O  O479  1  0.98343379  0.91588086  0.83766876  1
  O  O480  1  0.08846764  0.31606318  0.07706090  1
  O  O481  1  0.08651271  0.31510738  0.32787285  1
  O  O482  1  0.08726330  0.31527705  0.57717034  1
  O  O483  1  0.08803541  0.31625448  0.82793591  1
  O  O484  1  0.08697411  0.64817697  0.07675580  1
  O  O485  1  0.08657793  0.64928930  0.32842290  1
  O  O486  1  0.08674540  0.64803077  0.57793229  1
  O  O487  1  0.08734407  0.64884716  0.82666832  1
  O  O488  1  0.08736088  0.98106360  0.07573618  1
  O  O489  1  0.08730677  0.98051776  0.32742991  1
  O  O490  1  0.08497624  0.98175577  0.57798217  1
  O  O491  1  0.08736424  0.98033235  0.82644938  1
  O  O492  1  0.58800012  0.31551415  0.07730848  1
  O  O493  1  0.58652856  0.31423185  0.32737973  1
  O  O494  1  0.58990950  0.31630491  0.57863132  1
  O  O495  1  0.58907661  0.31669960  0.82834452  1
  O  O496  1  0.58570178  0.64752852  0.07680288  1
  O  O497  1  0.58753283  0.64852732  0.32715435  1
  O  O498  1  0.58758913  0.64789243  0.57716149  1
  O  O499  1  0.58613628  0.64888603  0.82793616  1
  O  O500  1  0.58546158  0.98204569  0.07742325  1
  O  O501  1  0.58673337  0.98254269  0.32849005  1
  O  O502  1  0.59043394  0.98095455  0.57830098  1
  O  O503  1  0.58789867  0.97951312  0.82679434  1
  O  O504  1  0.41417826  0.01776654  0.17216725  1
  O  O505  1  0.41404800  0.01832291  0.42329972  1
  O  O506  1  0.41574648  0.01844515  0.67274693  1
  O  O507  1  0.41295002  0.01678276  0.92119492  1
  O  O508  1  0.41181253  0.35228330  0.17239668  1
  O  O509  1  0.41210368  0.35020124  0.42197032  1
  O  O510  1  0.41348578  0.35291446  0.67352457  1
  O  O511  1  0.41239412  0.35257987  0.92292944  1
  O  O512  1  0.41123413  0.68463486  0.17131563  1
  O  O513  1  0.41255404  0.68572077  0.42313882  1
  O  O514  1  0.41457608  0.68375282  0.67214407  1
  O  O515  1  0.41243183  0.68533310  0.92248780  1
  O  O516  1  0.91309622  0.01712719  0.17133847  1
  O  O517  1  0.91130417  0.01923866  0.42255513  1
  O  O518  1  0.91073843  0.01768578  0.67333528  1
  O  O519  1  0.91117785  0.01742392  0.92102154  1
  O  O520  1  0.91457115  0.35255005  0.17209713  1
  O  O521  1  0.91182816  0.35167284  0.42265477  1
  O  O522  1  0.91069021  0.35226964  0.67376747  1
  O  O523  1  0.91355919  0.35263052  0.92284534  1
  O  O524  1  0.91378119  0.68487171  0.17090691  1
  O  O525  1  0.91387926  0.68381926  0.42253012  1
  O  O526  1  0.91046603  0.68485782  0.67313870  1
  O  O527  1  0.91249194  0.68460716  0.92161928  1
  O  O528  1  0.16370156  0.01841802  0.20198540  1
  O  O529  1  0.16248034  0.01880302  0.45247504  1
  O  O530  1  0.16319545  0.01639358  0.70246644  1
  O  O531  1  0.16246950  0.01774779  0.95246128  1
  O  O532  1  0.16317984  0.35180377  0.20161644  1
  O  O533  1  0.16233787  0.35199953  0.45292564  1
  O  O534  1  0.16328605  0.35316541  0.70316887  1
  O  O535  1  0.16298917  0.35146187  0.95207518  1
  O  O536  1  0.16090060  0.68478484  0.20154422  1
  O  O537  1  0.16155780  0.68318354  0.45283791  1
  O  O538  1  0.16131884  0.68489878  0.70403170  1
  O  O539  1  0.16222135  0.68573505  0.95184266  1
  O  O540  1  0.66094568  0.01810086  0.20189375  1
  O  O541  1  0.66063987  0.01739592  0.45294861  1
  O  O542  1  0.66328245  0.01792817  0.70267614  1
  O  O543  1  0.66172101  0.01830399  0.95306327  1
  O  O544  1  0.66141461  0.35240060  0.20173308  1
  O  O545  1  0.66091329  0.35241014  0.45347918  1
  O  O546  1  0.66216756  0.35178738  0.70335356  1
  O  O547  1  0.66067104  0.35162052  0.95302887  1
  O  O548  1  0.66354809  0.68462723  0.20124759  1
  O  O549  1  0.66192542  0.68431400  0.45334465  1
  O  O550  1  0.66268287  0.68541916  0.70244015  1
  O  O551  1  0.66427827  0.68457015  0.95090201  1
  O  O552  1  0.33592300  0.31589259  0.04705137  1
  O  O553  1  0.33823187  0.31658629  0.29751052  1
  O  O554  1  0.33679988  0.31532925  0.54769275  1
  O  O555  1  0.33800180  0.31583606  0.79725199  1
  O  O556  1  0.33905096  0.64902967  0.04680643  1
  O  O557  1  0.33794792  0.64718099  0.29708561  1
  O  O558  1  0.33547030  0.64886099  0.54921067  1
  O  O559  1  0.33825919  0.64803285  0.79801526  1
  O  O560  1  0.33796933  0.98027200  0.04763751  1
  O  O561  1  0.33914444  0.98177577  0.29804707  1
  O  O562  1  0.33797522  0.98116989  0.54779904  1
  O  O563  1  0.33684853  0.98117172  0.79819991  1
  O  O564  1  0.83505675  0.31550599  0.04822272  1
  O  O565  1  0.83760913  0.31538874  0.29831182  1
  O  O566  1  0.83497250  0.31508183  0.54772332  1
  O  O567  1  0.83512760  0.31545294  0.79803764  1
  O  O568  1  0.83920082  0.64956804  0.04655225  1
  O  O569  1  0.83975198  0.64788832  0.29779309  1
  O  O570  1  0.83716606  0.64846582  0.54822947  1
  O  O571  1  0.83921714  0.64794580  0.79724986  1
  O  O572  1  0.83961325  0.98014691  0.04767683  1
  O  O573  1  0.83772605  0.98165913  0.29705510  1
  O  O574  1  0.83593914  0.98153488  0.54857785  1
  O  O575  1  0.83723290  0.98179366  0.79763008  1
  O  O576  1  0.41422577  0.14799391  0.17236887  1
  O  O577  1  0.41420666  0.14866590  0.42351554  1
  O  O578  1  0.41619143  0.14866336  0.67286713  1
  O  O579  1  0.41330848  0.14714724  0.92237649  1
  O  O580  1  0.41224571  0.48233342  0.17191472  1
  O  O581  1  0.41122544  0.48049985  0.42220372  1
  O  O582  1  0.41342127  0.48299138  0.67256648  1
  O  O583  1  0.41201840  0.48267410  0.92187003  1
  O  O584  1  0.41097613  0.81498184  0.17135236  1
  O  O585  1  0.41277841  0.81604866  0.42260513  1
  O  O586  1  0.41473749  0.81376363  0.67291067  1
  O  O587  1  0.41300055  0.81535829  0.92249663  1
  O  O588  1  0.91230903  0.14753257  0.17174842  1
  O  O589  1  0.91225246  0.14950366  0.42268512  1
  O  O590  1  0.91021433  0.14780582  0.67362709  1
  O  O591  1  0.91137817  0.14779840  0.92226161  1
  O  O592  1  0.91502096  0.48272688  0.17169486  1
  O  O593  1  0.91173031  0.48197512  0.42210746  1
  O  O594  1  0.91103112  0.48234343  0.67311247  1
  O  O595  1  0.91324283  0.48274155  0.92132484  1
  O  O596  1  0.91400684  0.81514695  0.17109908  1
  O  O597  1  0.91338429  0.81390462  0.42282178  1
  O  O598  1  0.91037041  0.81492404  0.67337430  1
  O  O599  1  0.91244670  0.81469647  0.92213930  1
  O  O600  1  0.08878624  0.18592166  0.07649234  1
  O  O601  1  0.08605882  0.18500933  0.32761735  1
  O  O602  1  0.08734273  0.18517997  0.57708331  1
  O  O603  1  0.08810472  0.18584400  0.82752655  1
  O  O604  1  0.08671516  0.51815169  0.07684306  1
  O  O605  1  0.08725174  0.51920637  0.32786594  1
  O  O606  1  0.08621768  0.51811473  0.57764492  1
  O  O607  1  0.08751469  0.51878997  0.82632794  1
  O  O608  1  0.08742517  0.85105849  0.07623563  1
  O  O609  1  0.08711831  0.85028954  0.32830567  1
  O  O610  1  0.08557236  0.85179977  0.57847715  1
  O  O611  1  0.08707715  0.85029954  0.82728181  1
  O  O612  1  0.58811928  0.18525036  0.07745752  1
  O  O613  1  0.58675217  0.18412947  0.32865691  1
  O  O614  1  0.59024257  0.18585185  0.57834855  1
  O  O615  1  0.59020816  0.18645050  0.82770681  1
  O  O616  1  0.58534779  0.51744515  0.07719506  1
  O  O617  1  0.58765641  0.51841935  0.32725843  1
  O  O618  1  0.58693918  0.51784995  0.57715174  1
  O  O619  1  0.58594973  0.51894888  0.82742539  1
  O  O620  1  0.58590429  0.85199347  0.07695384  1
  O  O621  1  0.58681223  0.85242705  0.32715970  1
  O  O622  1  0.59017799  0.85062856  0.57846318  1
  O  O623  1  0.58718930  0.84955108  0.82758023  1
  O  O624  1  0.33612259  0.18571235  0.04739685  1
  O  O625  1  0.33904296  0.18648321  0.29860792  1
  O  O626  1  0.33676871  0.18527561  0.54818081  1
  O  O627  1  0.33801330  0.18549473  0.79731344  1
  O  O628  1  0.33957903  0.51874444  0.04638131  1
  O  O629  1  0.33759207  0.51697678  0.29626883  1
  O  O630  1  0.33647882  0.51904153  0.54886719  1
  O  O631  1  0.33791662  0.51803590  0.79763178  1
  O  O632  1  0.33696885  0.85012023  0.04745305  1
  O  O633  1  0.33883707  0.85177073  0.29789401  1
  O  O634  1  0.33785824  0.85105683  0.54770739  1
  O  O635  1  0.33677108  0.85128621  0.79863246  1
  O  O636  1  0.83497904  0.18543387  0.04820309  1
  O  O637  1  0.83746177  0.18536321  0.29850087  1
  O  O638  1  0.83530226  0.18507758  0.54743972  1
  O  O639  1  0.83525602  0.18519620  0.79760114  1
  O  O640  1  0.83977985  0.51945369  0.04741978  1
  O  O641  1  0.83918028  0.51788427  0.29760145  1
  O  O642  1  0.83735050  0.51861918  0.54825267  1
  O  O643  1  0.83862317  0.51779949  0.79743786  1
  O  O644  1  0.83908443  0.85003246  0.04697471  1
  O  O645  1  0.83780435  0.85139972  0.29726164  1
  O  O646  1  0.83605797  0.85158574  0.54872546  1
  O  O647  1  0.83745352  0.85164660  0.79783260  1
  O  O648  1  0.16331408  0.14857646  0.20272803  1
  O  O649  1  0.16284546  0.14923814  0.45267903  1
  O  O650  1  0.16250494  0.14677840  0.70248887  1
  O  O651  1  0.16238100  0.14807583  0.95247582  1
  O  O652  1  0.16379594  0.48175977  0.20059324  1
  O  O653  1  0.16193415  0.48237983  0.45342740  1
  O  O654  1  0.16393719  0.48327382  0.70328284  1
  O  O655  1  0.16264946  0.48150795  0.95156912  1
  O  O656  1  0.16081145  0.81483130  0.20179201  1
  O  O657  1  0.16051577  0.81344843  0.45203574  1
  O  O658  1  0.16136508  0.81522635  0.70380875  1
  O  O659  1  0.16245099  0.81569331  0.95241089  1
  O  O660  1  0.66037505  0.14807633  0.20262158  1
  O  O661  1  0.65991899  0.14775104  0.45267552  1
  O  O662  1  0.66303165  0.14804053  0.70275445  1
  O  O663  1  0.66152972  0.14858716  0.95399499  1
  O  O664  1  0.66225395  0.48226545  0.20095035  1
  O  O665  1  0.66121680  0.48281934  0.45332011  1
  O  O666  1  0.66229088  0.48176735  0.70210378  1
  O  O667  1  0.66072984  0.48172643  0.95172300  1
  O  O668  1  0.66366906  0.81469125  0.20122754  1
  O  O669  1  0.66175835  0.81484329  0.45368293  1
  O  O670  1  0.66302424  0.81540039  0.70334421  1
  O  O671  1  0.66385835  0.81448113  0.95133513  1
