# generated using pymatgen
data_Na2MnFe(PO4)2
_symmetry_space_group_name_H-M   'P 1'
_cell_length_a   21.09008862
_cell_length_b   18.94293332
_cell_length_c   20.04823519
_cell_angle_alpha   90.00099849
_cell_angle_beta   89.99675983
_cell_angle_gamma   90.00082215
_symmetry_Int_Tables_number   1
_chemical_formula_structural   Na2MnFe(PO4)2
_chemical_formula_sum   'Na96 Mn48 Fe48 P96 O384'
_cell_volume   8009.43318654
_cell_formula_units_Z   48
loop_
 _symmetry_equiv_pos_site_id
 _symmetry_equiv_pos_as_xyz
  1  'x, y, z'
loop_
 _atom_site_type_symbol
 _atom_site_label
 _atom_site_symmetry_multiplicity
 _atom_site_fract_x
 _atom_site_fract_y
 _atom_site_fract_z
 _atom_site_occupancy
  Na  Na0  1  -0.00178723  0.00007553  -0.00001156  1
  Na  Na1  1  -0.00068330  -0.00001303  0.24992882  1
  Na  Na2  1  -0.00065793  -0.00048883  0.50007851  1
  Na  Na3  1  -0.00172893  -0.00050068  0.74963122  1
  Na  Na4  1  0.00002628  0.33304393  0.00084851  1
  Na  Na5  1  0.00063605  0.33385411  0.24975937  1
  Na  Na6  1  0.00130862  0.33415286  0.49974769  1
  Na  Na7  1  0.00163237  0.33401193  0.74948002  1
  Na  Na8  1  -0.00211641  0.66515127  0.00095680  1
  Na  Na9  1  -0.00071585  0.66607447  0.25012814  1
  Na  Na10  1  -0.00107391  0.66561459  0.49924246  1
  Na  Na11  1  -0.00072004  0.66597783  0.75015113  1
  Na  Na12  1  0.50323835  0.00084948  -0.00065605  1
  Na  Na13  1  0.50130111  -0.00008252  0.25011193  1
  Na  Na14  1  0.49860188  -0.00062440  0.50061157  1
  Na  Na15  1  0.49989964  -0.00004772  0.75000546  1
  Na  Na16  1  0.50144121  0.33422072  0.00016405  1
  Na  Na17  1  0.50074064  0.33431072  0.24916390  1
  Na  Na18  1  0.49829129  0.33365713  0.50035427  1
  Na  Na19  1  0.49975617  0.33398728  0.75061049  1
  Na  Na20  1  0.50065006  0.66546533  0.00063648  1
  Na  Na21  1  0.50207725  0.66691069  0.24984815  1
  Na  Na22  1  0.50036298  0.66613301  0.49934796  1
  Na  Na23  1  0.50108652  0.66617270  0.75020258  1
  Na  Na24  1  0.24881101  -0.00039560  0.12505113  1
  Na  Na25  1  0.25391398  0.00074799  0.37502255  1
  Na  Na26  1  0.25354300  0.00046984  0.62505899  1
  Na  Na27  1  0.25078628  0.00098810  0.87543866  1
  Na  Na28  1  0.24795893  0.33403562  0.12513116  1
  Na  Na29  1  0.24894784  0.33381672  0.37512691  1
  Na  Na30  1  0.24979756  0.33377048  0.62540548  1
  Na  Na31  1  0.24829373  0.33362451  0.87472236  1
  Na  Na32  1  0.25041304  0.66652173  0.12448687  1
  Na  Na33  1  0.25004775  0.66632300  0.37601071  1
  Na  Na34  1  0.25021155  0.66655919  0.62493390  1
  Na  Na35  1  0.24970944  0.66602699  0.87422717  1
  Na  Na36  1  0.74853418  -0.00045877  0.12468419  1
  Na  Na37  1  0.74903745  -0.00027793  0.37437316  1
  Na  Na38  1  0.74792134  -0.00057921  0.62513181  1
  Na  Na39  1  0.74836310  -0.00015928  0.87589510  1
  Na  Na40  1  0.74941690  0.33329851  0.12492994  1
  Na  Na41  1  0.74914799  0.33363607  0.37385285  1
  Na  Na42  1  0.74965363  0.33389184  0.62570258  1
  Na  Na43  1  0.74962817  0.33334674  0.87569505  1
  Na  Na44  1  0.75103129  0.66601461  0.12538403  1
  Na  Na45  1  0.74924270  0.66513628  0.37466133  1
  Na  Na46  1  0.75099691  0.66596306  0.62386996  1
  Na  Na47  1  0.75097893  0.66567520  0.87513694  1
  Na  Na48  1  0.00038128  0.16754432  0.00023410  1
  Na  Na49  1  0.00207226  0.16640560  0.25029281  1
  Na  Na50  1  0.00014509  0.16750919  0.50048165  1
  Na  Na51  1  0.00017061  0.16735471  0.75034808  1
  Na  Na52  1  -0.00192905  0.49968947  0.00150813  1
  Na  Na53  1  -0.00059237  0.49919630  0.24947744  1
  Na  Na54  1  -0.00108758  0.49969403  0.49909499  1
  Na  Na55  1  -0.00099971  0.49930961  0.74966771  1
  Na  Na56  1  -0.00171298  0.83407631  0.00001316  1
  Na  Na57  1  -0.00199173  0.83447562  0.24995527  1
  Na  Na58  1  0.00090734  0.83263849  0.49966515  1
  Na  Na59  1  0.00003595  0.83311874  0.74931660  1
  Na  Na60  1  0.50400156  0.16635744  -0.00054066  1
  Na  Na61  1  0.50297665  0.16641551  0.24968147  1
  Na  Na62  1  0.49750534  0.16825950  0.50044345  1
  Na  Na63  1  0.50044094  0.16693542  0.75045317  1
  Na  Na64  1  0.50035704  0.49904858  0.00031410  1
  Na  Na65  1  0.50122419  0.49854486  0.24941582  1
  Na  Na66  1  0.49833278  0.49989448  0.50022528  1
  Na  Na67  1  0.49884775  0.49952061  0.74966780  1
  Na  Na68  1  0.50200166  0.83322769  0.00042789  1
  Na  Na69  1  0.49989218  0.83390043  0.24999753  1
  Na  Na70  1  0.50041301  0.83362352  0.49965849  1
  Na  Na71  1  0.50086644  0.83401185  0.75063443  1
  Na  Na72  1  0.24714173  0.16786537  0.12433203  1
  Na  Na73  1  0.25064970  0.16715829  0.37441697  1
  Na  Na74  1  0.25271029  0.16605546  0.62486012  1
  Na  Na75  1  0.24838194  0.16786903  0.87555088  1
  Na  Na76  1  0.24827193  0.49949829  0.12512687  1
  Na  Na77  1  0.25015059  0.49914639  0.37552371  1
  Na  Na78  1  0.25150464  0.49846137  0.62576206  1
  Na  Na79  1  0.24931443  0.49911636  0.87479260  1
  Na  Na80  1  0.25163383  0.83276308  0.12522551  1
  Na  Na81  1  0.25223771  0.83271435  0.37614797  1
  Na  Na82  1  0.25030076  0.83382252  0.62444971  1
  Na  Na83  1  0.24988235  0.83379804  0.87422412  1
  Na  Na84  1  0.74858490  0.16794722  0.12424835  1
  Na  Na85  1  0.74820014  0.16805238  0.37424910  1
  Na  Na86  1  0.74999616  0.16690519  0.62547762  1
  Na  Na87  1  0.74886824  0.16766808  0.87624422  1
  Na  Na88  1  0.75123333  0.49903766  0.12478220  1
  Na  Na89  1  0.75077554  0.49949887  0.37439507  1
  Na  Na90  1  0.75098518  0.49944122  0.62502854  1
  Na  Na91  1  0.75043719  0.49972548  0.87514821  1
  Na  Na92  1  0.74915878  0.83428480  0.12582601  1
  Na  Na93  1  0.74818974  0.83430997  0.37416938  1
  Na  Na94  1  0.74778221  0.83421379  0.62414831  1
  Na  Na95  1  0.74957408  0.83397411  0.87534360  1
  Mn  Mn96  1  0.10770153  0.74981128  0.37217682  1
  Mn  Mn97  1  0.10870154  0.08309514  0.37311591  1
  Mn  Mn98  1  0.60668442  0.08386650  0.62283192  1
  Mn  Mn99  1  0.35805398  0.08433531  0.00264595  1
  Mn  Mn100  1  0.14128819  0.58325822  0.99772704  1
  Mn  Mn101  1  0.14130199  0.91675244  0.99780515  1
  Mn  Mn102  1  0.35797567  0.74986443  0.75247173  1
  Mn  Mn103  1  0.60747814  0.08386450  0.37282396  1
  Mn  Mn104  1  0.14347220  0.91719118  0.49782878  1
  Mn  Mn105  1  0.85712823  0.74974766  0.25261814  1
  Mn  Mn106  1  0.60905585  0.74921234  0.87207787  1
  Mn  Mn107  1  0.39263247  0.58321937  0.87716368  1
  Mn  Mn108  1  0.14261818  0.91633078  0.24829390  1
  Mn  Mn109  1  0.85777154  0.75038060  0.75179587  1
  Mn  Mn110  1  0.64325562  0.58303058  0.99774900  1
  Mn  Mn111  1  0.39211165  0.58296585  0.12763444  1
  Mn  Mn112  1  0.85808584  0.74985141  0.00256325  1
  Mn  Mn113  1  0.39245099  0.58339656  0.37632483  1
  Mn  Mn114  1  0.39332330  0.91655963  0.87772808  1
  Mn  Mn115  1  0.60675153  0.41669559  0.62298056  1
  Mn  Mn116  1  0.85742266  0.08412665  0.25200649  1
  Mn  Mn117  1  0.85711919  0.74976604  0.50186720  1
  Mn  Mn118  1  0.85693441  0.08348307  0.75222203  1
  Mn  Mn119  1  0.35820629  0.08377360  0.25120163  1
  Mn  Mn120  1  0.64229401  0.58287612  0.49770211  1
  Mn  Mn121  1  0.10706087  0.08327393  0.87226414  1
  Mn  Mn122  1  0.10766081  0.75046270  0.12318417  1
  Mn  Mn123  1  0.10694859  0.74958864  0.87267266  1
  Mn  Mn124  1  0.85712142  0.08406646  0.00240788  1
  Mn  Mn125  1  0.89243563  0.25040633  0.62736690  1
  Mn  Mn126  1  0.35820405  0.74952198  0.00205563  1
  Mn  Mn127  1  0.39272196  0.24983846  0.12657943  1
  Mn  Mn128  1  0.64128045  0.25047651  0.49820642  1
  Mn  Mn129  1  0.35874905  0.74946905  0.50293645  1
  Mn  Mn130  1  0.89161034  0.91603849  0.62676774  1
  Mn  Mn131  1  0.39316343  0.91709918  0.12685136  1
  Mn  Mn132  1  0.14217149  0.91740751  0.74787382  1
  Mn  Mn133  1  0.60812794  0.74975481  0.12268565  1
  Mn  Mn134  1  0.14330290  0.24940387  0.49818490  1
  Mn  Mn135  1  0.14150284  0.58302926  0.74742843  1
  Mn  Mn136  1  0.60777546  0.74959866  0.62263803  1
  Mn  Mn137  1  0.39216996  0.24994510  0.37598711  1
  Mn  Mn138  1  0.85745801  0.08390227  0.50212830  1
  Mn  Mn139  1  0.10873003  0.08282091  0.62261099  1
  Mn  Mn140  1  0.85785555  0.41598549  0.75256402  1
  Mn  Mn141  1  0.39271758  0.25017781  0.87770622  1
  Mn  Mn142  1  0.89219841  0.24982058  0.37696243  1
  Mn  Mn143  1  0.14228185  0.58318407  0.49821769  1
  Fe  Fe144  1  0.10632065  0.41642418  0.12329379  1
  Fe  Fe145  1  0.14231370  0.58335886  0.24881882  1
  Fe  Fe146  1  0.14227639  0.25045586  0.24813341  1
  Fe  Fe147  1  0.60845782  0.08399123  0.12315573  1
  Fe  Fe148  1  0.89134369  0.91685859  0.87648303  1
  Fe  Fe149  1  0.39347799  0.91640567  0.62753229  1
  Fe  Fe150  1  0.35730609  0.41637104  0.50155003  1
  Fe  Fe151  1  0.64263408  0.91651935  0.74813633  1
  Fe  Fe152  1  0.89272248  0.58327293  0.37636861  1
  Fe  Fe153  1  0.64248288  0.91691928  0.24800727  1
  Fe  Fe154  1  0.39187260  0.25043740  0.62801288  1
  Fe  Fe155  1  0.64317177  0.58303929  0.74790883  1
  Fe  Fe156  1  0.64261115  0.25044149  0.74843946  1
  Fe  Fe157  1  0.35653039  0.41638784  0.00166557  1
  Fe  Fe158  1  0.89210949  0.58271399  0.87645160  1
  Fe  Fe159  1  0.60780512  0.08404401  0.87219122  1
  Fe  Fe160  1  0.64246485  0.25075380  0.24754133  1
  Fe  Fe161  1  0.14175905  0.25027445  0.99804882  1
  Fe  Fe162  1  0.10689902  0.08329034  0.12373845  1
  Fe  Fe163  1  0.39377842  0.91637978  0.37618553  1
  Fe  Fe164  1  0.35869353  0.08398197  0.50197406  1
  Fe  Fe165  1  0.64341187  0.91677369  0.99814050  1
  Fe  Fe166  1  0.64346248  0.25049729  0.99792286  1
  Fe  Fe167  1  0.89303308  0.24986826  0.12691598  1
  Fe  Fe168  1  0.35794009  0.74912284  0.25165343  1
  Fe  Fe169  1  0.89177118  0.91662150  0.37685160  1
  Fe  Fe170  1  0.35752759  0.08406426  0.75254724  1
  Fe  Fe171  1  0.64173994  0.91677736  0.49753104  1
  Fe  Fe172  1  0.60766600  0.41660782  0.87326003  1
  Fe  Fe173  1  0.85688335  0.41622190  0.25155189  1
  Fe  Fe174  1  0.10730624  0.74950874  0.62358871  1
  Fe  Fe175  1  0.89195284  0.91721324  0.12682264  1
  Fe  Fe176  1  0.85748982  0.41589705  0.00170619  1
  Fe  Fe177  1  0.10720864  0.41707294  0.37299923  1
  Fe  Fe178  1  0.89289200  0.58320466  0.62635843  1
  Fe  Fe179  1  0.10721755  0.41752142  0.62298470  1
  Fe  Fe180  1  0.35647536  0.41700693  0.25127389  1
  Fe  Fe181  1  0.64329896  0.58250552  0.24823439  1
  Fe  Fe182  1  0.85753118  0.41606312  0.50104115  1
  Fe  Fe183  1  0.60778031  0.41638723  0.12283479  1
  Fe  Fe184  1  0.14281549  0.24969086  0.74848424  1
  Fe  Fe185  1  0.89275127  0.58291818  0.12773843  1
  Fe  Fe186  1  0.60751522  0.41728855  0.37297738  1
  Fe  Fe187  1  0.60734777  0.74930303  0.37272532  1
  Fe  Fe188  1  0.10630717  0.41683067  0.87379421  1
  Fe  Fe189  1  0.35629512  0.41596633  0.75247587  1
  Fe  Fe190  1  0.89268069  0.25034467  0.87685600  1
  Fe  Fe191  1  0.39240376  0.58343599  0.62735456  1
  P  P192  1  0.05420728  0.25032020  0.11118040  1
  P  P193  1  0.05445365  0.25093142  0.35974907  1
  P  P194  1  0.05513026  0.25082764  0.61124152  1
  P  P195  1  0.05368971  0.25118463  0.86081415  1
  P  P196  1  0.05322216  0.58246376  0.11193697  1
  P  P197  1  0.05271947  0.58228050  0.35947647  1
  P  P198  1  0.05220835  0.58294028  0.60998632  1
  P  P199  1  0.05140044  0.58181734  0.86034575  1
  P  P200  1  0.05173736  0.91742950  0.11037445  1
  P  P201  1  0.05200899  0.91668239  0.36011978  1
  P  P202  1  0.05348014  0.91586328  0.60969685  1
  P  P203  1  0.05106780  0.91684235  0.85987334  1
  P  P204  1  0.55591753  0.25071346  0.11027167  1
  P  P205  1  0.55386840  0.25162152  0.35923471  1
  P  P206  1  0.55210869  0.25045275  0.61150745  1
  P  P207  1  0.55567756  0.25077426  0.86080094  1
  P  P208  1  0.55501744  0.58192128  0.11116258  1
  P  P209  1  0.55429268  0.58266850  0.35939432  1
  P  P210  1  0.55291474  0.58282239  0.61095615  1
  P  P211  1  0.55468053  0.58162132  0.85935927  1
  P  P212  1  0.55599397  0.91754113  0.11043511  1
  P  P213  1  0.55434988  0.91598108  0.36057115  1
  P  P214  1  0.55407395  0.91678985  0.61065722  1
  P  P215  1  0.55612309  0.91753656  0.86058899  1
  P  P216  1  0.44921446  0.08399218  0.13959591  1
  P  P217  1  0.44627546  0.08296106  0.39010421  1
  P  P218  1  0.44445850  0.08365008  0.63993431  1
  P  P219  1  0.44736490  0.08392543  0.88921704  1
  P  P220  1  0.44596266  0.41616474  0.13922102  1
  P  P221  1  0.44595214  0.41671587  0.38886343  1
  P  P222  1  0.44385358  0.41667624  0.63966246  1
  P  P223  1  0.44616244  0.41640949  0.88980457  1
  P  P224  1  0.44657005  0.74978586  0.14079456  1
  P  P225  1  0.44694398  0.75004271  0.38855288  1
  P  P226  1  0.44699628  0.74986704  0.64020633  1
  P  P227  1  0.44798625  0.74967393  0.89041853  1
  P  P228  1  0.94720052  0.08428265  0.13982304  1
  P  P229  1  0.94683960  0.08303395  0.39008058  1
  P  P230  1  0.94676800  0.08352855  0.64020222  1
  P  P231  1  0.94576849  0.08405724  0.88988593  1
  P  P232  1  0.94514787  0.41570709  0.13934985  1
  P  P233  1  0.94585927  0.41694121  0.38870932  1
  P  P234  1  0.94638478  0.41723266  0.63859017  1
  P  P235  1  0.94668652  0.41604507  0.89040469  1
  P  P236  1  0.94608574  0.75004879  0.14036833  1
  P  P237  1  0.94605383  0.74981032  0.38969271  1
  P  P238  1  0.94743717  0.74883957  0.63936959  1
  P  P239  1  0.94594966  0.74975851  0.88985102  1
  P  P240  1  0.19626678  0.08395086  0.23446825  1
  P  P241  1  0.19954349  0.08326728  0.48495428  1
  P  P242  1  0.19813857  0.08424602  0.73512307  1
  P  P243  1  0.19480551  0.08424795  0.98611028  1
  P  P244  1  0.19494466  0.41714742  0.23590506  1
  P  P245  1  0.19605781  0.41677997  0.48574697  1
  P  P246  1  0.19494070  0.41584619  0.73595504  1
  P  P247  1  0.19482809  0.41603587  0.98560106  1
  P  P248  1  0.19822183  0.74912919  0.23534751  1
  P  P249  1  0.19583601  0.74981933  0.48613506  1
  P  P250  1  0.19594289  0.74998251  0.73411705  1
  P  P251  1  0.19664298  0.74992955  0.98451909  1
  P  P252  1  0.69576118  0.08373279  0.23431823  1
  P  P253  1  0.69609406  0.08327102  0.48495494  1
  P  P254  1  0.69491986  0.08402674  0.73624600  1
  P  P255  1  0.69458767  0.08385915  0.98585300  1
  P  P256  1  0.69580960  0.41707704  0.23541575  1
  P  P257  1  0.69699751  0.41677830  0.48429247  1
  P  P258  1  0.69539940  0.41669946  0.73632880  1
  P  P259  1  0.69649240  0.41601711  0.98567041  1
  P  P260  1  0.69517631  0.74938148  0.23635263  1
  P  P261  1  0.69547557  0.75019393  0.48384507  1
  P  P262  1  0.69699390  0.74931925  0.73457072  1
  P  P263  1  0.69724523  0.75025410  0.98521892  1
  P  P264  1  0.30185352  0.25137210  0.01484860  1
  P  P265  1  0.30198289  0.25135760  0.26404575  1
  P  P266  1  0.30488363  0.25068444  0.51503684  1
  P  P267  1  0.30344099  0.25031308  0.76444787  1
  P  P268  1  0.30311106  0.58169131  0.01483987  1
  P  P269  1  0.30191999  0.58265517  0.26484669  1
  P  P270  1  0.30439328  0.58214988  0.51566924  1
  P  P271  1  0.30403008  0.58221292  0.76410602  1
  P  P272  1  0.30330713  0.91710248  0.01515840  1
  P  P273  1  0.30476093  0.91587318  0.26546695  1
  P  P274  1  0.30670487  0.91716802  0.51443931  1
  P  P275  1  0.30504444  0.91749974  0.76428535  1
  P  P276  1  0.80436396  0.25099140  0.01448867  1
  P  P277  1  0.80310855  0.25088953  0.26317530  1
  P  P278  1  0.80287587  0.25130248  0.51498394  1
  P  P279  1  0.80256039  0.25016879  0.76607388  1
  P  P280  1  0.80589979  0.58182451  0.01468309  1
  P  P281  1  0.80426776  0.58196929  0.26420820  1
  P  P282  1  0.80531597  0.58187575  0.51394332  1
  P  P283  1  0.80408957  0.58292461  0.76419292  1
  P  P284  1  0.80379245  0.91707195  0.01471311  1
  P  P285  1  0.80357102  0.91720312  0.26416249  1
  P  P286  1  0.80234061  0.91671918  0.51365177  1
  P  P287  1  0.80196049  0.91682483  0.76530268  1
  O  O288  1  0.05874639  0.25041811  0.18787445  1
  O  O289  1  0.05761334  0.25034267  0.43652127  1
  O  O290  1  0.05920456  0.24984196  0.68802733  1
  O  O291  1  0.05805615  0.25039653  0.93755478  1
  O  O292  1  0.05835881  0.58319341  0.18852188  1
  O  O293  1  0.05659728  0.58260398  0.43614554  1
  O  O294  1  0.05541940  0.58262519  0.68646806  1
  O  O295  1  0.05486997  0.58227659  0.93715156  1
  O  O296  1  0.05611103  0.91683723  0.18699564  1
  O  O297  1  0.05684023  0.91669338  0.43672814  1
  O  O298  1  0.05659111  0.91689763  0.68649282  1
  O  O299  1  0.05497491  0.91721139  0.93653375  1
  O  O300  1  0.55951855  0.25095796  0.18710794  1
  O  O301  1  0.55607249  0.25116414  0.43612453  1
  O  O302  1  0.55768112  0.25057652  0.68808297  1
  O  O303  1  0.55973244  0.25099716  0.93755012  1
  O  O304  1  0.55934496  0.58236411  0.18786385  1
  O  O305  1  0.55661665  0.58234162  0.43610401  1
  O  O306  1  0.55833126  0.58266863  0.68754601  1
  O  O307  1  0.55779892  0.58223258  0.93616359  1
  O  O308  1  0.55957719  0.91679198  0.18730247  1
  O  O309  1  0.55835396  0.91675907  0.43732429  1
  O  O310  1  0.55919407  0.91672412  0.68736339  1
  O  O311  1  0.56023433  0.91658450  0.93734825  1
  O  O312  1  0.44515204  0.08431003  0.06292817  1
  O  O313  1  0.44377450  0.08377899  0.31324185  1
  O  O314  1  0.44127785  0.08404230  0.56308643  1
  O  O315  1  0.44177900  0.08423747  0.81259022  1
  O  O316  1  0.44071810  0.41624644  0.06264536  1
  O  O317  1  0.44081343  0.41671390  0.31215095  1
  O  O318  1  0.44044975  0.41645393  0.56286270  1
  O  O319  1  0.44070967  0.41609325  0.81316104  1
  O  O320  1  0.44354824  0.74938328  0.06401072  1
  O  O321  1  0.44192594  0.74924432  0.31188377  1
  O  O322  1  0.44479144  0.74965059  0.56343910  1
  O  O323  1  0.44430795  0.74986470  0.81366930  1
  O  O324  1  0.94337138  0.08461153  0.06311448  1
  O  O325  1  0.94352263  0.08378253  0.31332134  1
  O  O326  1  0.94340717  0.08385108  0.56343736  1
  O  O327  1  0.94284529  0.08419489  0.81313937  1
  O  O328  1  0.94091326  0.41556490  0.06266613  1
  O  O329  1  0.94101102  0.41603230  0.31202916  1
  O  O330  1  0.94188999  0.41609788  0.56190138  1
  O  O331  1  0.94361846  0.41566477  0.81403464  1
  O  O332  1  0.94341069  0.74993492  0.06360943  1
  O  O333  1  0.94297775  0.75004108  0.31294192  1
  O  O334  1  0.94353839  0.74965113  0.56271946  1
  O  O335  1  0.94356805  0.74989338  0.81306142  1
  O  O336  1  0.19003728  0.08323185  0.06284367  1
  O  O337  1  0.19395935  0.08315592  0.31124356  1
  O  O338  1  0.19538594  0.08282919  0.56163391  1
  O  O339  1  0.19366898  0.08367966  0.81180705  1
  O  O340  1  0.18995804  0.41681767  0.06230762  1
  O  O341  1  0.19088120  0.41721829  0.31262249  1
  O  O342  1  0.19126347  0.41727249  0.56249249  1
  O  O343  1  0.19006022  0.41690774  0.81260447  1
  O  O344  1  0.19323990  0.74995976  0.06134546  1
  O  O345  1  0.19432726  0.74981974  0.31208121  1
  O  O346  1  0.19081407  0.74969053  0.56283145  1
  O  O347  1  0.19244762  0.74974662  0.81094422  1
  O  O348  1  0.69137081  0.08388498  0.06263837  1
  O  O349  1  0.69296754  0.08372425  0.31117020  1
  O  O350  1  0.69288783  0.08364661  0.56172675  1
  O  O351  1  0.69189132  0.08419847  0.81306685  1
  O  O352  1  0.69204905  0.41668481  0.06234396  1
  O  O353  1  0.69148488  0.41705255  0.31206191  1
  O  O354  1  0.69269965  0.41702544  0.56101283  1
  O  O355  1  0.69184434  0.41681379  0.81310628  1
  O  O356  1  0.69430023  0.74956596  0.06199383  1
  O  O357  1  0.69149879  0.74933936  0.31309381  1
  O  O358  1  0.69280185  0.74947330  0.56068706  1
  O  O359  1  0.69483125  0.74909326  0.81138659  1
  O  O360  1  0.30588140  0.25084519  0.18727296  1
  O  O361  1  0.30718919  0.25088095  0.43863057  1
  O  O362  1  0.30788221  0.25033538  0.68774951  1
  O  O363  1  0.30606194  0.25073810  0.93822789  1
  O  O364  1  0.30544860  0.58263822  0.18817374  1
  O  O365  1  0.30733727  0.58304003  0.43890958  1
  O  O366  1  0.30831695  0.58314079  0.68733043  1
  O  O367  1  0.30639627  0.58208247  0.93810001  1
  O  O368  1  0.30749463  0.91666860  0.18864786  1
  O  O369  1  0.31086190  0.91609865  0.43766393  1
  O  O370  1  0.30933223  0.91641873  0.68754024  1
  O  O371  1  0.30687016  0.91741530  0.93837964  1
  O  O372  1  0.80833414  0.25008614  0.18661832  1
  O  O373  1  0.80594395  0.25076543  0.43817257  1
  O  O374  1  0.80675677  0.25041390  0.68935728  1
  O  O375  1  0.80920239  0.25046844  0.93785712  1
  O  O376  1  0.80908663  0.58274138  0.18746759  1
  O  O377  1  0.80928509  0.58275221  0.43718391  1
  O  O378  1  0.80898300  0.58285472  0.68745433  1
  O  O379  1  0.80965406  0.58238446  0.93785813  1
  O  O380  1  0.80885547  0.91725388  0.18747712  1
  O  O381  1  0.80769251  0.91666417  0.43698682  1
  O  O382  1  0.80589747  0.91681357  0.68858153  1
  O  O383  1  0.80861363  0.91709331  0.93799890  1
  O  O384  1  0.23172002  0.25101931  0.03902102  1
  O  O385  1  0.23195597  0.25087751  0.28863505  1
  O  O386  1  0.23523206  0.25021855  0.54087621  1
  O  O387  1  0.23317225  0.25056983  0.78843061  1
  O  O388  1  0.23340654  0.58241306  0.03987723  1
  O  O389  1  0.23206140  0.58256343  0.29005174  1
  O  O390  1  0.23467091  0.58259080  0.54078006  1
  O  O391  1  0.23407734  0.58238991  0.78825814  1
  O  O392  1  0.23358973  0.91659331  0.04009078  1
  O  O393  1  0.23511503  0.91672478  0.29093823  1
  O  O394  1  0.23661624  0.91675813  0.53855511  1
  O  O395  1  0.23501103  0.91735419  0.78853745  1
  O  O396  1  0.73381061  0.25045741  0.03755634  1
  O  O397  1  0.73261753  0.25096669  0.28649543  1
  O  O398  1  0.73328800  0.25090799  0.54043702  1
  O  O399  1  0.73236909  0.25052848  0.79002966  1
  O  O400  1  0.73588667  0.58252831  0.03887014  1
  O  O401  1  0.73385994  0.58223936  0.28759138  1
  O  O402  1  0.73526142  0.58256349  0.53810835  1
  O  O403  1  0.73376581  0.58255289  0.78786258  1
  O  O404  1  0.73333920  0.91724076  0.03794117  1
  O  O405  1  0.73288294  0.91716643  0.28681977  1
  O  O406  1  0.73189994  0.91655565  0.53698224  1
  O  O407  1  0.73180661  0.91685915  0.78940813  1
  O  O408  1  0.26590227  0.08376252  0.20882503  1
  O  O409  1  0.26962682  0.08406233  0.46076192  1
  O  O410  1  0.26827591  0.08394651  0.71109398  1
  O  O411  1  0.26489113  0.08461705  0.96214975  1
  O  O412  1  0.26522177  0.41691780  0.21169641  1
  O  O413  1  0.26648739  0.41646272  0.46236607  1
  O  O414  1  0.26543397  0.41600280  0.71263839  1
  O  O415  1  0.26514642  0.41622512  0.96187274  1
  O  O416  1  0.26825137  0.74931126  0.21078388  1
  O  O417  1  0.26608701  0.74947993  0.46281674  1
  O  O418  1  0.26581251  0.74998483  0.70959527  1
  O  O419  1  0.26627358  0.74974327  0.95935756  1
  O  O420  1  0.76537109  0.08378555  0.20891306  1
  O  O421  1  0.76556285  0.08373940  0.45930916  1
  O  O422  1  0.76458849  0.08358740  0.71092122  1
  O  O423  1  0.76458810  0.08400366  0.96138799  1
  O  O424  1  0.76618119  0.41666179  0.21153032  1
  O  O425  1  0.76711030  0.41669057  0.46010103  1
  O  O426  1  0.76514782  0.41649438  0.71165607  1
  O  O427  1  0.76688118  0.41625195  0.96200510  1
  O  O428  1  0.76503587  0.74977611  0.21154969  1
  O  O429  1  0.76511465  0.74974057  0.45858172  1
  O  O430  1  0.76631419  0.74991772  0.70831252  1
  O  O431  1  0.76679547  0.74995140  0.95986478  1
  O  O432  1  0.01725192  0.08397035  0.16438353  1
  O  O433  1  0.01652478  0.08342236  0.41529321  1
  O  O434  1  0.01644103  0.08329948  0.66528554  1
  O  O435  1  0.01535200  0.08392169  0.91528962  1
  O  O436  1  0.01561178  0.41607048  0.16293539  1
  O  O437  1  0.01633255  0.41681513  0.41218021  1
  O  O438  1  0.01662606  0.41712596  0.66266645  1
  O  O439  1  0.01663300  0.41621889  0.91576974  1
  O  O440  1  0.01562977  0.75013385  0.16601226  1
  O  O441  1  0.01572383  0.74935511  0.41483950  1
  O  O442  1  0.01734309  0.74921493  0.66423000  1
  O  O443  1  0.01530724  0.74949517  0.91607120  1
  O  O444  1  0.51923959  0.08388023  0.16401199  1
  O  O445  1  0.51587114  0.08395935  0.41571870  1
  O  O446  1  0.51437875  0.08356134  0.66457274  1
  O  O447  1  0.51792401  0.08405896  0.91196261  1
  O  O448  1  0.51658784  0.41610407  0.16205353  1
  O  O449  1  0.51639495  0.41714317  0.41238008  1
  O  O450  1  0.51387634  0.41654455  0.66404123  1
  O  O451  1  0.51674635  0.41637523  0.91271776  1
  O  O452  1  0.51640084  0.75017025  0.16540009  1
  O  O453  1  0.51726589  0.74944992  0.41227062  1
  O  O454  1  0.51647341  0.74999847  0.66603504  1
  O  O455  1  0.51775259  0.74918651  0.91516990  1
  O  O456  1  0.48600747  0.25058542  0.08558520  1
  O  O457  1  0.48447494  0.25048371  0.33353534  1
  O  O458  1  0.48170866  0.25072013  0.58833792  1
  O  O459  1  0.48559188  0.25054598  0.83673496  1
  O  O460  1  0.48505462  0.58216596  0.08696665  1
  O  O461  1  0.48469732  0.58271143  0.33376872  1
  O  O462  1  0.48258900  0.58277700  0.58746239  1
  O  O463  1  0.48492939  0.58252908  0.83455180  1
  O  O464  1  0.48607439  0.91678589  0.08588474  1
  O  O465  1  0.48408457  0.91662935  0.33651772  1
  O  O466  1  0.48361264  0.91676238  0.58759520  1
  O  O467  1  0.48607096  0.91718051  0.83653373  1
  O  O468  1  0.98378213  0.25052078  0.08751133  1
  O  O469  1  0.98468022  0.25041896  0.33479792  1
  O  O470  1  0.98525567  0.25089377  0.58674572  1
  O  O471  1  0.98333549  0.25071509  0.83703898  1
  O  O472  1  0.98270883  0.58220051  0.08870834  1
  O  O473  1  0.98251262  0.58267900  0.33532587  1
  O  O474  1  0.98238993  0.58276283  0.58456696  1
  O  O475  1  0.98142608  0.58224126  0.83557585  1
  O  O476  1  0.98148464  0.91717973  0.08626373  1
  O  O477  1  0.98173369  0.91671998  0.33629404  1
  O  O478  1  0.98373928  0.91609291  0.58467736  1
  O  O479  1  0.98096041  0.91677196  0.83542786  1
  O  O480  1  0.08750538  0.31547942  0.07787373  1
  O  O481  1  0.08823760  0.31621017  0.32740574  1
  O  O482  1  0.08877497  0.31613726  0.57883940  1
  O  O483  1  0.08698140  0.31645698  0.82806118  1
  O  O484  1  0.08605541  0.64746068  0.07807200  1
  O  O485  1  0.08676989  0.64716293  0.32651332  1
  O  O486  1  0.08617622  0.64806413  0.57747264  1
  O  O487  1  0.08555376  0.64660330  0.82763084  1
  O  O488  1  0.08512188  0.98260398  0.07756858  1
  O  O489  1  0.08570450  0.98166821  0.32725698  1
  O  O490  1  0.08764861  0.98090069  0.57704450  1
  O  O491  1  0.08486381  0.98184860  0.82690669  1
  O  O492  1  0.58971782  0.31579969  0.07733952  1
  O  O493  1  0.58783521  0.31692418  0.32712631  1
  O  O494  1  0.58540039  0.31526628  0.57777166  1
  O  O495  1  0.58910191  0.31589138  0.82762179  1
  O  O496  1  0.58867013  0.64690999  0.07800309  1
  O  O497  1  0.58880815  0.64768447  0.32727567  1
  O  O498  1  0.58622813  0.64779388  0.57756989  1
  O  O499  1  0.58946924  0.64623792  0.82662984  1
  O  O500  1  0.58941043  0.98280379  0.07785263  1
  O  O501  1  0.58811317  0.98085567  0.32726813  1
  O  O502  1  0.58713237  0.98186002  0.57713567  1
  O  O503  1  0.58934037  0.98286927  0.82772984  1
  O  O504  1  0.41539288  0.01897658  0.17219802  1
  O  O505  1  0.41270341  0.01750258  0.42209274  1
  O  O506  1  0.41086604  0.01836080  0.67246200  1
  O  O507  1  0.41447117  0.01889846  0.92278672  1
  O  O508  1  0.41273085  0.35123025  0.17285648  1
  O  O509  1  0.41275809  0.35170418  0.42217751  1
  O  O510  1  0.41011005  0.35175290  0.67303125  1
  O  O511  1  0.41297621  0.35151666  0.92362376  1
  O  O512  1  0.41269414  0.68469444  0.17358238  1
  O  O513  1  0.41341043  0.68517378  0.42205337  1
  O  O514  1  0.41273320  0.68472873  0.67235669  1
  O  O515  1  0.41385649  0.68458105  0.92269648  1
  O  O516  1  0.91310141  0.01930255  0.17221200  1
  O  O517  1  0.91267436  0.01788371  0.42214544  1
  O  O518  1  0.91232970  0.01841897  0.67214820  1
  O  O519  1  0.91139812  0.01898376  0.92199929  1
  O  O520  1  0.91203085  0.35060654  0.17282003  1
  O  O521  1  0.91255850  0.35212802  0.42263336  1
  O  O522  1  0.91303056  0.35254272  0.67255054  1
  O  O523  1  0.91268054  0.35102630  0.92348372  1
  O  O524  1  0.91191296  0.68482982  0.17252090  1
  O  O525  1  0.91189864  0.68448816  0.42154710  1
  O  O526  1  0.91371226  0.68356617  0.67171311  1
  O  O527  1  0.91160278  0.68452243  0.92167593  1
  O  O528  1  0.16168541  0.01903378  0.20205418  1
  O  O529  1  0.16620836  0.01823102  0.45175459  1
  O  O530  1  0.16454670  0.01924075  0.70199558  1
  O  O531  1  0.16161232  0.01926866  0.95242506  1
  O  O532  1  0.16123953  0.35216284  0.20271635  1
  O  O533  1  0.16253812  0.35186772  0.45262217  1
  O  O534  1  0.16180314  0.35064731  0.70289548  1
  O  O535  1  0.16137153  0.35090933  0.95261818  1
  O  O536  1  0.16429091  0.68402183  0.20294101  1
  O  O537  1  0.16247086  0.68475638  0.45288982  1
  O  O538  1  0.16181488  0.68493445  0.70161785  1
  O  O539  1  0.16251379  0.68470451  0.95235875  1
  O  O540  1  0.66150803  0.01864427  0.20213094  1
  O  O541  1  0.66196804  0.01821682  0.45265686  1
  O  O542  1  0.66080382  0.01899506  0.70384222  1
  O  O543  1  0.66097214  0.01879764  0.95302004  1
  O  O544  1  0.66206941  0.35225794  0.20200921  1
  O  O545  1  0.66289610  0.35188696  0.45155734  1
  O  O546  1  0.66153821  0.35149927  0.70356380  1
  O  O547  1  0.66304602  0.35096743  0.95258426  1
  O  O548  1  0.66199003  0.68401147  0.20347943  1
  O  O549  1  0.66101153  0.68521821  0.45157982  1
  O  O550  1  0.66298908  0.68395905  0.70246195  1
  O  O551  1  0.66321787  0.68518516  0.95269710  1
  O  O552  1  0.33541248  0.31653623  0.04751072  1
  O  O553  1  0.33549350  0.31647483  0.29676974  1
  O  O554  1  0.33867793  0.31595813  0.54778956  1
  O  O555  1  0.33680992  0.31544134  0.79762371  1
  O  O556  1  0.33766411  0.64649849  0.04729645  1
  O  O557  1  0.33605919  0.64760296  0.29749681  1
  O  O558  1  0.33898179  0.64687671  0.54841448  1
  O  O559  1  0.33772432  0.64710723  0.79737004  1
  O  O560  1  0.33707207  0.98232687  0.04779047  1
  O  O561  1  0.33972471  0.98072464  0.29752036  1
  O  O562  1  0.34007349  0.98252195  0.54696199  1
  O  O563  1  0.33854795  0.98282860  0.79689213  1
  O  O564  1  0.83740513  0.31600387  0.04797332  1
  O  O565  1  0.83630505  0.31594354  0.29649074  1
  O  O566  1  0.83685063  0.31659455  0.54709370  1
  O  O567  1  0.83663345  0.31487799  0.79905109  1
  O  O568  1  0.83989963  0.64657435  0.04795017  1
  O  O569  1  0.83760636  0.64680991  0.29792273  1
  O  O570  1  0.83924156  0.64666565  0.54732666  1
  O  O571  1  0.83729482  0.64807068  0.79741326  1
  O  O572  1  0.83702763  0.98210403  0.04818244  1
  O  O573  1  0.83661092  0.98216003  0.29772910  1
  O  O574  1  0.83539589  0.98168128  0.54722720  1
  O  O575  1  0.83569670  0.98171254  0.79841107  1
  O  O576  1  0.41545878  0.14897275  0.17254482  1
  O  O577  1  0.41141551  0.14764975  0.42233855  1
  O  O578  1  0.41069983  0.14868670  0.67302344  1
  O  O579  1  0.41437299  0.14891892  0.92299942  1
  O  O580  1  0.41276096  0.48101983  0.17315486  1
  O  O581  1  0.41233878  0.48156592  0.42225085  1
  O  O582  1  0.41023382  0.48183208  0.67247982  1
  O  O583  1  0.41294100  0.48139302  0.92324031  1
  O  O584  1  0.41229343  0.81470074  0.17310141  1
  O  O585  1  0.41402955  0.81524678  0.42173478  1
  O  O586  1  0.41282907  0.81509364  0.67225161  1
  O  O587  1  0.41438895  0.81483962  0.92304633  1
  O  O588  1  0.91373170  0.14947263  0.17276808  1
  O  O589  1  0.91275261  0.14821531  0.42245511  1
  O  O590  1  0.91279651  0.14859696  0.67277065  1
  O  O591  1  0.91191564  0.14931762  0.92236992  1
  O  O592  1  0.91149034  0.48053523  0.17273561  1
  O  O593  1  0.91250312  0.48207985  0.42165453  1
  O  O594  1  0.91294857  0.48244387  0.67132786  1
  O  O595  1  0.91238317  0.48106790  0.92291099  1
  O  O596  1  0.91166494  0.81515645  0.17226356  1
  O  O597  1  0.91206320  0.81489783  0.42219445  1
  O  O598  1  0.91329350  0.81373014  0.67224756  1
  O  O599  1  0.91164149  0.81498862  0.92181503  1
  O  O600  1  0.08747326  0.18534268  0.07778733  1
  O  O601  1  0.08905859  0.18618354  0.32719173  1
  O  O602  1  0.08872128  0.18583191  0.57795244  1
  O  O603  1  0.08757544  0.18651733  0.82720536  1
  O  O604  1  0.08624191  0.51724947  0.07867736  1
  O  O605  1  0.08640020  0.51726893  0.32664144  1
  O  O606  1  0.08626131  0.51787292  0.57719233  1
  O  O607  1  0.08499705  0.51661670  0.82788778  1
  O  O608  1  0.08529508  0.85232554  0.07735064  1
  O  O609  1  0.08548098  0.85160845  0.32695204  1
  O  O610  1  0.08741405  0.85057032  0.57778814  1
  O  O611  1  0.08504354  0.85183969  0.82745072  1
  O  O612  1  0.58992949  0.18573855  0.07763227  1
  O  O613  1  0.58909322  0.18696462  0.32711157  1
  O  O614  1  0.58500534  0.18536708  0.57789249  1
  O  O615  1  0.58938359  0.18577504  0.82770837  1
  O  O616  1  0.58850363  0.51680332  0.07815210  1
  O  O617  1  0.58865600  0.51766469  0.32693114  1
  O  O618  1  0.58610193  0.51787505  0.57731252  1
  O  O619  1  0.58823764  0.51626322  0.82698434  1
  O  O620  1  0.59024214  0.85276771  0.07742171  1
  O  O621  1  0.58763630  0.85084364  0.32757710  1
  O  O622  1  0.58738176  0.85191099  0.57709302  1
  O  O623  1  0.58991543  0.85269295  0.82716462  1
  O  O624  1  0.33584593  0.18650246  0.04793774  1
  O  O625  1  0.33613993  0.18642674  0.29655527  1
  O  O626  1  0.33956406  0.18581683  0.54748889  1
  O  O627  1  0.33680894  0.18529246  0.79775315  1
  O  O628  1  0.33666838  0.51632893  0.04731616  1
  O  O629  1  0.33591965  0.51746365  0.29722310  1
  O  O630  1  0.33829865  0.51684739  0.54760970  1
  O  O631  1  0.33742563  0.51683387  0.79673579  1
  O  O632  1  0.33775918  0.85213400  0.04721210  1
  O  O633  1  0.33863878  0.85054514  0.29765300  1
  O  O634  1  0.34049667  0.85238842  0.54797732  1
  O  O635  1  0.33862876  0.85250212  0.79756973  1
  O  O636  1  0.83771477  0.18614566  0.04829129  1
  O  O637  1  0.83600517  0.18594512  0.29711210  1
  O  O638  1  0.83718935  0.18641381  0.54748971  1
  O  O639  1  0.83609598  0.18503073  0.79892957  1
  O  O640  1  0.83919910  0.51651060  0.04741141  1
  O  O641  1  0.83756937  0.51682803  0.29714910  1
  O  O642  1  0.83863371  0.51656346  0.54667665  1
  O  O643  1  0.83771324  0.51819497  0.79769301  1
  O  O644  1  0.83697557  0.85215840  0.04826040  1
  O  O645  1  0.83649880  0.85217571  0.29788415  1
  O  O646  1  0.83538599  0.85157330  0.54713454  1
  O  O647  1  0.83576032  0.85179949  0.79805943  1
  O  O648  1  0.16188724  0.14915926  0.20266952  1
  O  O649  1  0.16542756  0.14821737  0.45254143  1
  O  O650  1  0.16467543  0.14944852  0.70244369  1
  O  O651  1  0.16121132  0.14958534  0.95358475  1
  O  O652  1  0.16146235  0.48215935  0.20262373  1
  O  O653  1  0.16278643  0.48170249  0.45216469  1
  O  O654  1  0.16163630  0.48061875  0.70192772  1
  O  O655  1  0.16125755  0.48084151  0.95190184  1
  O  O656  1  0.16441284  0.81424350  0.20252097  1
  O  O657  1  0.16287376  0.81491601  0.45262810  1
  O  O658  1  0.16185908  0.81500508  0.70170742  1
  O  O659  1  0.16254464  0.81498546  0.95219143  1
  O  O660  1  0.66146158  0.14881412  0.20209931  1
  O  O661  1  0.66175287  0.14839642  0.45281815  1
  O  O662  1  0.66131795  0.14940964  0.70361925  1
  O  O663  1  0.66086387  0.14899719  0.95308390  1
  O  O664  1  0.66268514  0.48217129  0.20193936  1
  O  O665  1  0.66322601  0.48168190  0.45117940  1
  O  O666  1  0.66180934  0.48178641  0.70317252  1
  O  O667  1  0.66299058  0.48078350  0.95203239  1
  O  O668  1  0.66142371  0.81450677  0.20373055  1
  O  O669  1  0.66117008  0.81527338  0.45188171  1
  O  O670  1  0.66227586  0.81443378  0.70296675  1
  O  O671  1  0.66321683  0.81538708  0.95318446  1
