# generated using pymatgen
data_Na2MnFe(PO4)2
_symmetry_space_group_name_H-M   'P 1'
_cell_length_a   21.07595313
_cell_length_b   18.92740849
_cell_length_c   20.03583384
_cell_angle_alpha   90.00009379
_cell_angle_beta   90.00432631
_cell_angle_gamma   89.99929368
_symmetry_Int_Tables_number   1
_chemical_formula_structural   Na2MnFe(PO4)2
_chemical_formula_sum   'Na96 Mn48 Fe48 P96 O384'
_cell_volume   7992.55805359
_cell_formula_units_Z   48
loop_
 _symmetry_equiv_pos_site_id
 _symmetry_equiv_pos_as_xyz
  1  'x, y, z'
loop_
 _atom_site_type_symbol
 _atom_site_label
 _atom_site_symmetry_multiplicity
 _atom_site_fract_x
 _atom_site_fract_y
 _atom_site_fract_z
 _atom_site_occupancy
  Na  Na0  1  -0.00067418  0.00020070  0.00018053  1
  Na  Na1  1  -0.00058244  0.00017356  0.24936826  1
  Na  Na2  1  -0.00116341  -0.00014694  0.50042820  1
  Na  Na3  1  -0.00079104  0.00034642  0.74906808  1
  Na  Na4  1  -0.00087864  0.33256493  0.00042372  1
  Na  Na5  1  0.00060719  0.33371634  0.24910365  1
  Na  Na6  1  0.00034389  0.33359865  0.49931850  1
  Na  Na7  1  0.00109293  0.33385293  0.75045337  1
  Na  Na8  1  -0.00119160  0.66593737  0.00132728  1
  Na  Na9  1  0.00024313  0.66671940  0.24894721  1
  Na  Na10  1  -0.00022783  0.66655308  0.49943303  1
  Na  Na11  1  -0.00055924  0.66668042  0.75047037  1
  Na  Na12  1  0.50159582  0.00050369  0.00016933  1
  Na  Na13  1  0.50132098  0.00002949  0.25071801  1
  Na  Na14  1  0.50252990  0.00085167  0.49987599  1
  Na  Na15  1  0.50019488  -0.00074219  0.74996124  1
  Na  Na16  1  0.49919502  0.33362615  -0.00068963  1
  Na  Na17  1  0.49795519  0.33276654  0.25109749  1
  Na  Na18  1  0.49923572  0.33334925  0.49981923  1
  Na  Na19  1  0.49822669  0.33253945  0.74955304  1
  Na  Na20  1  0.49989841  0.66655786  -0.00088541  1
  Na  Na21  1  0.49846327  0.66604342  0.25053038  1
  Na  Na22  1  0.49800075  0.66576525  0.50041950  1
  Na  Na23  1  0.49935773  0.66609834  0.74999479  1
  Na  Na24  1  0.25164675  0.00030248  0.12429541  1
  Na  Na25  1  0.25099176  0.00049905  0.37464839  1
  Na  Na26  1  0.24963653  -0.00036887  0.62547514  1
  Na  Na27  1  0.25125011  0.00041093  0.87522399  1
  Na  Na28  1  0.25084514  0.33324376  0.12586156  1
  Na  Na29  1  0.25076042  0.33336500  0.37544079  1
  Na  Na30  1  0.25006199  0.33307431  0.62408172  1
  Na  Na31  1  0.25010685  0.33327312  0.87478389  1
  Na  Na32  1  0.25130623  0.66648867  0.12654390  1
  Na  Na33  1  0.25136098  0.66706317  0.37503519  1
  Na  Na34  1  0.25100284  0.66708615  0.62427517  1
  Na  Na35  1  0.25156820  0.66668229  0.87394568  1
  Na  Na36  1  0.74736794  -0.00039685  0.12579931  1
  Na  Na37  1  0.74877316  0.00017460  0.37439564  1
  Na  Na38  1  0.74815099  -0.00025703  0.62472586  1
  Na  Na39  1  0.74862213  0.00041644  0.87584605  1
  Na  Na40  1  0.75224815  0.33473950  0.12492284  1
  Na  Na41  1  0.75066132  0.33355518  0.37432864  1
  Na  Na42  1  0.74975566  0.33327064  0.62498878  1
  Na  Na43  1  0.75022681  0.33360522  0.87600438  1
  Na  Na44  1  0.75025378  0.66624350  0.12461197  1
  Na  Na45  1  0.75210060  0.66692818  0.37497524  1
  Na  Na46  1  0.75010236  0.66573406  0.62444064  1
  Na  Na47  1  0.74973109  0.66658051  0.87604506  1
  Na  Na48  1  -0.00043549  0.16750477  0.00040410  1
  Na  Na49  1  0.00064121  0.16699813  0.24917177  1
  Na  Na50  1  -0.00143539  0.16762556  0.50073625  1
  Na  Na51  1  0.00021734  0.16684291  0.75000974  1
  Na  Na52  1  0.00002482  0.50032869  0.00111092  1
  Na  Na53  1  0.00013321  0.49993374  0.24885969  1
  Na  Na54  1  0.00084864  0.49919032  0.49941167  1
  Na  Na55  1  -0.00083302  0.50024962  0.75028115  1
  Na  Na56  1  -0.00225125  0.83344945  0.00047915  1
  Na  Na57  1  -0.00050087  0.83239942  0.24931879  1
  Na  Na58  1  0.00036653  0.83192301  0.49926025  1
  Na  Na59  1  0.00049474  0.83211204  0.74971035  1
  Na  Na60  1  0.49862746  0.16797483  -0.00013595  1
  Na  Na61  1  0.50014157  0.16691444  0.25115220  1
  Na  Na62  1  0.50014650  0.16791862  0.49978361  1
  Na  Na63  1  0.50033890  0.16732184  0.74947395  1
  Na  Na64  1  0.50100028  0.49949691  -0.00110328  1
  Na  Na65  1  0.49854296  0.50107775  0.25069284  1
  Na  Na66  1  0.49920407  0.50055037  0.49985175  1
  Na  Na67  1  0.49962727  0.50056721  0.75037560  1
  Na  Na68  1  0.49977714  0.83278233  -0.00042400  1
  Na  Na69  1  0.49964046  0.83268200  0.25073701  1
  Na  Na70  1  0.49932824  0.83307075  0.50030159  1
  Na  Na71  1  0.49867584  0.83334244  0.74986487  1
  Na  Na72  1  0.25112827  0.16766049  0.12480513  1
  Na  Na73  1  0.25133975  0.16744556  0.37480601  1
  Na  Na74  1  0.25092513  0.16727109  0.62470425  1
  Na  Na75  1  0.24950340  0.16837904  0.87456254  1
  Na  Na76  1  0.25079683  0.49991122  0.12640446  1
  Na  Na77  1  0.25005344  0.50021282  0.37539680  1
  Na  Na78  1  0.24997877  0.49976907  0.62382588  1
  Na  Na79  1  0.25018306  0.50022541  0.87434445  1
  Na  Na80  1  0.25203240  0.83214149  0.12541937  1
  Na  Na81  1  0.25056039  0.83254271  0.37510034  1
  Na  Na82  1  0.25055688  0.83238698  0.62507319  1
  Na  Na83  1  0.25220206  0.83201498  0.87522419  1
  Na  Na84  1  0.75133838  0.16606374  0.12583491  1
  Na  Na85  1  0.74966823  0.16764262  0.37394998  1
  Na  Na86  1  0.75065342  0.16690709  0.62502587  1
  Na  Na87  1  0.75001735  0.16692124  0.87598666  1
  Na  Na88  1  0.74961376  0.50035610  0.12433679  1
  Na  Na89  1  0.75229455  0.49903047  0.37496920  1
  Na  Na90  1  0.74966974  0.50073854  0.62438988  1
  Na  Na91  1  0.74985007  0.49982706  0.87605339  1
  Na  Na92  1  0.74961134  0.83230036  0.12484568  1
  Na  Na93  1  0.74977952  0.83241056  0.37489676  1
  Na  Na94  1  0.74790491  0.83356301  0.62477974  1
  Na  Na95  1  0.74846344  0.83319291  0.87604210  1
  Mn  Mn96  1  0.64200352  0.25126417  0.24707873  1
  Mn  Mn97  1  0.60755649  0.74961498  0.37339740  1
  Mn  Mn98  1  0.89103314  0.91717859  0.12713025  1
  Mn  Mn99  1  0.89196850  0.58271853  0.12736104  1
  Mn  Mn100  1  0.35800249  0.08346538  0.75255288  1
  Mn  Mn101  1  0.14209306  0.58309966  0.74770090  1
  Mn  Mn102  1  0.14171994  0.91685944  0.49748445  1
  Mn  Mn103  1  0.10734071  0.08331307  0.62239595  1
  Mn  Mn104  1  0.60782230  0.08390657  0.87308771  1
  Mn  Mn105  1  0.10853855  0.08319697  0.12279716  1
  Mn  Mn106  1  0.10823360  0.75039147  0.12263058  1
  Mn  Mn107  1  0.89200236  0.25046821  0.87720699  1
  Mn  Mn108  1  0.89198557  0.91611623  0.37763967  1
  Mn  Mn109  1  0.85690276  0.08305597  0.75252141  1
  Mn  Mn110  1  0.10836069  0.41649247  0.12299172  1
  Mn  Mn111  1  0.64185213  0.91566719  0.24753038  1
  Mn  Mn112  1  0.10767887  0.41700398  0.87316710  1
  Mn  Mn113  1  0.39246816  0.91684745  0.62736891  1
  Mn  Mn114  1  0.39326192  0.91683130  0.12754252  1
  Mn  Mn115  1  0.39204960  0.58316652  0.87751486  1
  Mn  Mn116  1  0.35762251  0.41711744  0.50244513  1
  Mn  Mn117  1  0.89207105  0.58278689  0.62694892  1
  Mn  Mn118  1  0.35813024  0.41758430  0.00271899  1
  Mn  Mn119  1  0.85739272  0.08308600  0.25262460  1
  Mn  Mn120  1  0.10760766  0.08278323  0.87313402  1
  Mn  Mn121  1  0.64214993  0.25020128  0.99893218  1
  Mn  Mn122  1  0.35879859  0.08257607  0.50252647  1
  Mn  Mn123  1  0.85773168  0.41698870  0.75232726  1
  Mn  Mn124  1  0.35836725  0.08317556  0.00252888  1
  Mn  Mn125  1  0.60828861  0.08395360  0.62241363  1
  Mn  Mn126  1  0.14219335  0.58358852  0.49738400  1
  Mn  Mn127  1  0.89074005  0.91625684  0.87735760  1
  Mn  Mn128  1  0.89108413  0.91669596  0.62720608  1
  Mn  Mn129  1  0.85730713  0.75016903  0.75217799  1
  Mn  Mn130  1  0.14236946  0.91681997  0.74808965  1
  Mn  Mn131  1  0.14265697  0.91609441  0.99709963  1
  Mn  Mn132  1  0.60754049  0.41694670  0.62279275  1
  Mn  Mn133  1  0.60745051  0.75001056  0.87266552  1
  Mn  Mn134  1  0.14217726  0.24943787  0.49780595  1
  Mn  Mn135  1  0.60790124  0.41683099  0.37293498  1
  Mn  Mn136  1  0.60727127  0.74923237  0.62275332  1
  Mn  Mn137  1  0.14293009  0.91716946  0.24746595  1
  Mn  Mn138  1  0.10752663  0.75008586  0.87390906  1
  Mn  Mn139  1  0.39251063  0.91686861  0.37771875  1
  Mn  Mn140  1  0.64218010  0.58310368  0.24807342  1
  Mn  Mn141  1  0.89274188  0.25045558  0.37710851  1
  Mn  Mn142  1  0.10797024  0.08332785  0.37221912  1
  Mn  Mn143  1  0.60791793  0.41598266  0.87249804  1
  Fe  Fe144  1  0.10766919  0.74958624  0.62300234  1
  Fe  Fe145  1  0.89179889  0.58334508  0.87732437  1
  Fe  Fe146  1  0.35870852  0.08361015  0.25175392  1
  Fe  Fe147  1  0.89315064  0.24992830  0.12644067  1
  Fe  Fe148  1  0.85773942  0.41727642  0.25175414  1
  Fe  Fe149  1  0.14417039  0.25006596  0.24839059  1
  Fe  Fe150  1  0.64225468  0.91625269  0.99871095  1
  Fe  Fe151  1  0.39289679  0.58278393  0.12644452  1
  Fe  Fe152  1  0.14319586  0.25059656  0.99840855  1
  Fe  Fe153  1  0.35779226  0.41686160  0.25190202  1
  Fe  Fe154  1  0.35678532  0.75036234  0.50197531  1
  Fe  Fe155  1  0.60700198  0.41679299  0.12412315  1
  Fe  Fe156  1  0.64282202  0.91645612  0.49834137  1
  Fe  Fe157  1  0.85723751  0.74938443  0.25161480  1
  Fe  Fe158  1  0.85792764  0.41630604  0.50152635  1
  Fe  Fe159  1  0.64145394  0.91636313  0.74853465  1
  Fe  Fe160  1  0.64267460  0.58316816  0.74829671  1
  Fe  Fe161  1  0.14374303  0.58311212  0.24890022  1
  Fe  Fe162  1  0.85746240  0.75003188  0.50149094  1
  Fe  Fe163  1  0.39302076  0.25055917  0.62706749  1
  Fe  Fe164  1  0.35794919  0.74981806  0.25212363  1
  Fe  Fe165  1  0.60693381  0.08400834  0.12359790  1
  Fe  Fe166  1  0.10726832  0.41703538  0.37264487  1
  Fe  Fe167  1  0.35686872  0.41680042  0.75086886  1
  Fe  Fe168  1  0.64302563  0.58311384  0.49799055  1
  Fe  Fe169  1  0.39311417  0.24998158  0.37686208  1
  Fe  Fe170  1  0.14326895  0.58330357  0.99854707  1
  Fe  Fe171  1  0.35711045  0.74969490  0.75152395  1
  Fe  Fe172  1  0.64313368  0.25047399  0.49854272  1
  Fe  Fe173  1  0.85610491  0.75015911  0.00172956  1
  Fe  Fe174  1  0.39214094  0.58299528  0.37718560  1
  Fe  Fe175  1  0.85704411  0.41665356  0.00212134  1
  Fe  Fe176  1  0.85654617  0.08357111  0.50084747  1
  Fe  Fe177  1  0.64242072  0.58340519  0.99904149  1
  Fe  Fe178  1  0.39227712  0.24959432  0.87631649  1
  Fe  Fe179  1  0.10731957  0.41681233  0.62353376  1
  Fe  Fe180  1  0.60780823  0.08394952  0.37374150  1
  Fe  Fe181  1  0.35788646  0.74939718  0.00218193  1
  Fe  Fe182  1  0.85687961  0.08331159  0.00216758  1
  Fe  Fe183  1  0.89218206  0.25047206  0.62670035  1
  Fe  Fe184  1  0.64204626  0.25060050  0.74797720  1
  Fe  Fe185  1  0.39291623  0.91717634  0.87693669  1
  Fe  Fe186  1  0.39247829  0.25066176  0.12672836  1
  Fe  Fe187  1  0.89347961  0.58316417  0.37609571  1
  Fe  Fe188  1  0.39267788  0.58263185  0.62701219  1
  Fe  Fe189  1  0.60705372  0.74912006  0.12341650  1
  Fe  Fe190  1  0.14299494  0.25032377  0.74788948  1
  Fe  Fe191  1  0.10716857  0.74930850  0.37277295  1
  P  P192  1  0.05476148  0.25012327  0.11056363  1
  P  P193  1  0.05438694  0.25087060  0.35891438  1
  P  P194  1  0.05328144  0.25105265  0.61104646  1
  P  P195  1  0.05516145  0.25013145  0.86047733  1
  P  P196  1  0.05573091  0.58325839  0.11079633  1
  P  P197  1  0.05332818  0.58317221  0.35904362  1
  P  P198  1  0.05349071  0.58309385  0.60990339  1
  P  P199  1  0.05288304  0.58354753  0.86149813  1
  P  P200  1  0.05317551  0.91665161  0.10956443  1
  P  P201  1  0.05300304  0.91563867  0.35931839  1
  P  P202  1  0.05283243  0.91560139  0.60978932  1
  P  P203  1  0.05220591  0.91632711  0.85966111  1
  P  P204  1  0.55155739  0.25082344  0.11047304  1
  P  P205  1  0.55414240  0.25007718  0.36141268  1
  P  P206  1  0.55397156  0.25078425  0.61009868  1
  P  P207  1  0.55261684  0.25010706  0.85936240  1
  P  P208  1  0.55250179  0.58302447  0.10981876  1
  P  P209  1  0.55310012  0.58337887  0.36127527  1
  P  P210  1  0.55367681  0.58306738  0.61028031  1
  P  P211  1  0.55516108  0.58323874  0.86039777  1
  P  P212  1  0.55413027  0.91597286  0.10967850  1
  P  P213  1  0.55504044  0.91687052  0.36152667  1
  P  P214  1  0.55517317  0.91630356  0.61019495  1
  P  P215  1  0.55366255  0.91650309  0.86068353  1
  P  P216  1  0.44771714  0.08421084  0.14072329  1
  P  P217  1  0.44726030  0.08408523  0.38919367  1
  P  P218  1  0.44728917  0.08423293  0.64008720  1
  P  P219  1  0.44664330  0.08352234  0.88984084  1
  P  P220  1  0.44722072  0.41719221  0.14054322  1
  P  P221  1  0.44517417  0.41679435  0.38902484  1
  P  P222  1  0.44587757  0.41694475  0.64038871  1
  P  P223  1  0.44519503  0.41584879  0.88843969  1
  P  P224  1  0.44636765  0.74870020  0.13943599  1
  P  P225  1  0.44453908  0.74906693  0.38998622  1
  P  P226  1  0.44464960  0.74890767  0.63945413  1
  P  P227  1  0.44459138  0.75052565  0.88926332  1
  P  P228  1  0.94532470  0.08422875  0.13899690  1
  P  P229  1  0.94625621  0.08359760  0.39082376  1
  P  P230  1  0.94435699  0.08452660  0.63872098  1
  P  P231  1  0.94551114  0.08349443  0.89095545  1
  P  P232  1  0.94497840  0.41582696  0.13932337  1
  P  P233  1  0.94642898  0.41768922  0.38884061  1
  P  P234  1  0.94652565  0.41578660  0.63886666  1
  P  P235  1  0.94574539  0.41761015  0.89115484  1
  P  P236  1  0.94434893  0.74981228  0.13946698  1
  P  P237  1  0.94604282  0.74849931  0.38883491  1
  P  P238  1  0.94643175  0.74962508  0.63881218  1
  P  P239  1  0.94526761  0.74892959  0.89111048  1
  P  P240  1  0.19900088  0.08457441  0.23497157  1
  P  P241  1  0.19729494  0.08350967  0.48447793  1
  P  P242  1  0.19669521  0.08440728  0.73497786  1
  P  P243  1  0.19724955  0.08446952  0.98489625  1
  P  P244  1  0.19697787  0.41660960  0.23687705  1
  P  P245  1  0.19464005  0.41658923  0.48514634  1
  P  P246  1  0.19699545  0.41608195  0.73423185  1
  P  P247  1  0.19699039  0.41705135  0.98544951  1
  P  P248  1  0.19698175  0.74906498  0.23652517  1
  P  P249  1  0.19582886  0.74985209  0.48511055  1
  P  P250  1  0.19709317  0.74971810  0.73463088  1
  P  P251  1  0.19854820  0.74846446  0.98526443  1
  P  P252  1  0.69431759  0.08385658  0.23552694  1
  P  P253  1  0.69705299  0.08411494  0.48445389  1
  P  P254  1  0.69585398  0.08383753  0.73526805  1
  P  P255  1  0.69592282  0.08327145  0.98703790  1
  P  P256  1  0.69750577  0.41725495  0.23422368  1
  P  P257  1  0.69791980  0.41675624  0.48509057  1
  P  P258  1  0.69659375  0.41708386  0.73503536  1
  P  P259  1  0.69592831  0.41712226  0.98682702  1
  P  P260  1  0.69700154  0.74886934  0.23443015  1
  P  P261  1  0.69759815  0.74915066  0.48524829  1
  P  P262  1  0.69614686  0.74927828  0.73512755  1
  P  P263  1  0.69540062  0.74953671  0.98675045  1
  P  P264  1  0.30427503  0.25049923  0.01464380  1
  P  P265  1  0.30539752  0.25040730  0.26442615  1
  P  P266  1  0.30558249  0.25001370  0.51458272  1
  P  P267  1  0.30407339  0.25131410  0.76400534  1
  P  P268  1  0.30309604  0.58387509  0.01601193  1
  P  P269  1  0.30487875  0.58293604  0.26454231  1
  P  P270  1  0.30505998  0.58412616  0.51438103  1
  P  P271  1  0.30458461  0.58281389  0.76324178  1
  P  P272  1  0.30505193  0.91555341  0.01411242  1
  P  P273  1  0.30434926  0.91677408  0.26493150  1
  P  P274  1  0.30321229  0.91585046  0.51527324  1
  P  P275  1  0.30422811  0.91578352  0.76578140  1
  P  P276  1  0.80407955  0.25010686  0.01583468  1
  P  P277  1  0.80473700  0.25121458  0.26359515  1
  P  P278  1  0.80304884  0.25035295  0.51492103  1
  P  P279  1  0.80254446  0.25039753  0.76422371  1
  P  P280  1  0.80328521  0.58323279  0.01398347  1
  P  P281  1  0.80418217  0.58306708  0.26533616  1
  P  P282  1  0.80413611  0.58297657  0.51319252  1
  P  P283  1  0.80259316  0.58329452  0.76588768  1
  P  P284  1  0.80141239  0.91681936  0.01516386  1
  P  P285  1  0.80287435  0.91548605  0.26514422  1
  P  P286  1  0.80194426  0.91664318  0.51449141  1
  P  P287  1  0.80064358  0.91645931  0.76524915  1
  O  O288  1  0.06016844  0.25020898  0.18722274  1
  O  O289  1  0.05687322  0.24996784  0.43576132  1
  O  O290  1  0.05814307  0.25043064  0.68775048  1
  O  O291  1  0.05953882  0.25033919  0.93728206  1
  O  O292  1  0.06054459  0.58323505  0.18751707  1
  O  O293  1  0.05651772  0.58336287  0.43580320  1
  O  O294  1  0.05607137  0.58330162  0.68675831  1
  O  O295  1  0.05825494  0.58353417  0.93815062  1
  O  O296  1  0.05708481  0.91652754  0.18636650  1
  O  O297  1  0.05584601  0.91616259  0.43613543  1
  O  O298  1  0.05614581  0.91626034  0.68658719  1
  O  O299  1  0.05592809  0.91628830  0.93646668  1
  O  O300  1  0.55508746  0.25084653  0.18718790  1
  O  O301  1  0.55924789  0.25089980  0.43809790  1
  O  O302  1  0.55888308  0.25072663  0.68681187  1
  O  O303  1  0.55687083  0.25053002  0.93607090  1
  O  O304  1  0.55572568  0.58342248  0.18659061  1
  O  O305  1  0.55873823  0.58329601  0.43793151  1
  O  O306  1  0.55864836  0.58322719  0.68698275  1
  O  O307  1  0.55967997  0.58323089  0.93719084  1
  O  O308  1  0.55641719  0.91552769  0.18657337  1
  O  O309  1  0.55939298  0.91603802  0.43836209  1
  O  O310  1  0.55899250  0.91602934  0.68707708  1
  O  O311  1  0.55877786  0.91625984  0.93739179  1
  O  O312  1  0.44404344  0.08360864  0.06397608  1
  O  O313  1  0.44258117  0.08321878  0.31248513  1
  O  O314  1  0.44478277  0.08355786  0.56325135  1
  O  O315  1  0.44405248  0.08330888  0.81305298  1
  O  O316  1  0.44413452  0.41726560  0.06374761  1
  O  O317  1  0.44143442  0.41705807  0.31224523  1
  O  O318  1  0.44342405  0.41709842  0.56355057  1
  O  O319  1  0.44096037  0.41670682  0.81176983  1
  O  O320  1  0.44199176  0.74917752  0.06268473  1
  O  O321  1  0.44079968  0.74977629  0.31307008  1
  O  O322  1  0.44087382  0.74993743  0.56265291  1
  O  O323  1  0.44070968  0.74955611  0.81247390  1
  O  O324  1  0.94069479  0.08335838  0.06224877  1
  O  O325  1  0.94316982  0.08361575  0.31397190  1
  O  O326  1  0.93966275  0.08371503  0.56196725  1
  O  O327  1  0.94244660  0.08350168  0.81406164  1
  O  O328  1  0.94066203  0.41679222  0.06257138  1
  O  O329  1  0.94187824  0.41697238  0.31213762  1
  O  O330  1  0.94178306  0.41624200  0.56211449  1
  O  O331  1  0.94306371  0.41701286  0.81425784  1
  O  O332  1  0.93927897  0.74984513  0.06272755  1
  O  O333  1  0.94130562  0.74945013  0.31214080  1
  O  O334  1  0.94105067  0.74984614  0.56209124  1
  O  O335  1  0.94263611  0.74957588  0.81421570  1
  O  O336  1  0.19447973  0.08381542  0.06172902  1
  O  O337  1  0.19489865  0.08398360  0.31165215  1
  O  O338  1  0.19353360  0.08367977  0.56126772  1
  O  O339  1  0.19371516  0.08385718  0.81175784  1
  O  O340  1  0.19448755  0.41669749  0.06228961  1
  O  O341  1  0.19234013  0.41677888  0.31354403  1
  O  O342  1  0.19035968  0.41659012  0.56192611  1
  O  O343  1  0.19345048  0.41691626  0.81098275  1
  O  O344  1  0.19487088  0.74935543  0.06200505  1
  O  O345  1  0.19179350  0.74950337  0.31318197  1
  O  O346  1  0.19091670  0.74955388  0.56184618  1
  O  O347  1  0.19308871  0.74940371  0.81134704  1
  O  O348  1  0.69083084  0.08423769  0.06373833  1
  O  O349  1  0.69023043  0.08433275  0.31234038  1
  O  O350  1  0.69386854  0.08430274  0.56122635  1
  O  O351  1  0.69339483  0.08429312  0.81212889  1
  O  O352  1  0.69081373  0.41662356  0.06347360  1
  O  O353  1  0.69333472  0.41679506  0.31093716  1
  O  O354  1  0.69387643  0.41698685  0.56173774  1
  O  O355  1  0.69405544  0.41656184  0.81187498  1
  O  O356  1  0.69098697  0.74907173  0.06342961  1
  O  O357  1  0.69300961  0.74879972  0.31113956  1
  O  O358  1  0.69362625  0.74874434  0.56190004  1
  O  O359  1  0.69363485  0.74951325  0.81197221  1
  O  O360  1  0.30964843  0.25044915  0.18759645  1
  O  O361  1  0.30991440  0.25008726  0.43776602  1
  O  O362  1  0.30883633  0.25038561  0.68728172  1
  O  O363  1  0.30883753  0.25036192  0.93793341  1
  O  O364  1  0.30930504  0.58279381  0.18782131  1
  O  O365  1  0.30866304  0.58308282  0.43754535  1
  O  O366  1  0.30809592  0.58270039  0.68647209  1
  O  O367  1  0.30652197  0.58300585  0.93927052  1
  O  O368  1  0.30736235  0.91668731  0.18811413  1
  O  O369  1  0.30642876  0.91666497  0.43849858  1
  O  O370  1  0.30696264  0.91674428  0.68895185  1
  O  O371  1  0.30902534  0.91664213  0.93735859  1
  O  O372  1  0.80898259  0.25042100  0.18691983  1
  O  O373  1  0.80658427  0.25065688  0.43816175  1
  O  O374  1  0.80756974  0.25068199  0.68756639  1
  O  O375  1  0.80638124  0.25013314  0.93896878  1
  O  O376  1  0.80640996  0.58292658  0.18850061  1
  O  O377  1  0.80901111  0.58292507  0.43658452  1
  O  O378  1  0.80660137  0.58310484  0.68910382  1
  O  O379  1  0.80740537  0.58308215  0.93730248  1
  O  O380  1  0.80550025  0.91634628  0.18835554  1
  O  O381  1  0.80551953  0.91644318  0.43777290  1
  O  O382  1  0.80471753  0.91639155  0.68853056  1
  O  O383  1  0.80460305  0.91695635  0.93842147  1
  O  O384  1  0.23392692  0.25062221  0.03840079  1
  O  O385  1  0.23503923  0.25064800  0.28835349  1
  O  O386  1  0.23538407  0.25007779  0.53817744  1
  O  O387  1  0.23367218  0.25099070  0.78762551  1
  O  O388  1  0.23320600  0.58322504  0.04095097  1
  O  O389  1  0.23448632  0.58321763  0.28857011  1
  O  O390  1  0.23499086  0.58343101  0.53845525  1
  O  O391  1  0.23473946  0.58320557  0.78820023  1
  O  O392  1  0.23517671  0.91587054  0.03881895  1
  O  O393  1  0.23472336  0.91654533  0.29036338  1
  O  O394  1  0.23366199  0.91594547  0.54063706  1
  O  O395  1  0.23455602  0.91625380  0.79114048  1
  O  O396  1  0.73441841  0.25030437  0.04139637  1
  O  O397  1  0.73466952  0.25090798  0.28774810  1
  O  O398  1  0.73280924  0.25040830  0.53940416  1
  O  O399  1  0.73225799  0.25052811  0.78823985  1
  O  O400  1  0.73303742  0.58334894  0.03835177  1
  O  O401  1  0.73458608  0.58280521  0.29095825  1
  O  O402  1  0.73377447  0.58301549  0.53719750  1
  O  O403  1  0.73248390  0.58316882  0.79016054  1
  O  O404  1  0.73147932  0.91619626  0.04030259  1
  O  O405  1  0.73322629  0.91594054  0.29043077  1
  O  O406  1  0.73180602  0.91659182  0.53914007  1
  O  O407  1  0.73062477  0.91656480  0.78987215  1
  O  O408  1  0.26913652  0.08426963  0.21050007  1
  O  O409  1  0.26712346  0.08368342  0.45987327  1
  O  O410  1  0.26642660  0.08388009  0.70980343  1
  O  O411  1  0.26687787  0.08440149  0.95953449  1
  O  O412  1  0.26734306  0.41644589  0.21291966  1
  O  O413  1  0.26488443  0.41691999  0.46164024  1
  O  O414  1  0.26701320  0.41638781  0.70951179  1
  O  O415  1  0.26648225  0.41710779  0.95973304  1
  O  O416  1  0.26757377  0.74924783  0.21327573  1
  O  O417  1  0.26634715  0.74973113  0.46193440  1
  O  O418  1  0.26738078  0.74957330  0.71067178  1
  O  O419  1  0.26850789  0.74877748  0.96049789  1
  O  O420  1  0.76448871  0.08314238  0.21188676  1
  O  O421  1  0.76712842  0.08399673  0.45953735  1
  O  O422  1  0.76531979  0.08333414  0.70943276  1
  O  O423  1  0.76623313  0.08367680  0.96318109  1
  O  O424  1  0.76770994  0.41777377  0.21035988  1
  O  O425  1  0.76808734  0.41639211  0.46064781  1
  O  O426  1  0.76609493  0.41729278  0.70927396  1
  O  O427  1  0.76635188  0.41663008  0.96324217  1
  O  O428  1  0.76717804  0.74890148  0.21031877  1
  O  O429  1  0.76775600  0.74949627  0.46073593  1
  O  O430  1  0.76562213  0.74940352  0.70920836  1
  O  O431  1  0.76569028  0.74983716  0.96264767  1
  O  O432  1  0.01543513  0.08379445  0.16303626  1
  O  O433  1  0.01598262  0.08381712  0.41586565  1
  O  O434  1  0.01444712  0.08401837  0.66275927  1
  O  O435  1  0.01525758  0.08370998  0.91592473  1
  O  O436  1  0.01522043  0.41675276  0.16301877  1
  O  O437  1  0.01685992  0.41689544  0.41242994  1
  O  O438  1  0.01670666  0.41671486  0.66310598  1
  O  O439  1  0.01542481  0.41672309  0.91639033  1
  O  O440  1  0.01470810  0.74966206  0.16261793  1
  O  O441  1  0.01653272  0.74879679  0.41234413  1
  O  O442  1  0.01680694  0.74933122  0.66238237  1
  O  O443  1  0.01489914  0.74957383  0.91659709  1
  O  O444  1  0.51790111  0.08348642  0.16509476  1
  O  O445  1  0.51751388  0.08434837  0.41331682  1
  O  O446  1  0.51683499  0.08368002  0.66560031  1
  O  O447  1  0.51615787  0.08414841  0.91560692  1
  O  O448  1  0.51719055  0.41710688  0.16575745  1
  O  O449  1  0.51503591  0.41690800  0.41385827  1
  O  O450  1  0.51545614  0.41682929  0.66590204  1
  O  O451  1  0.51520860  0.41632837  0.91276655  1
  O  O452  1  0.51675158  0.74923079  0.16343503  1
  O  O453  1  0.51457657  0.74946054  0.41429888  1
  O  O454  1  0.51465511  0.74943510  0.66386805  1
  O  O455  1  0.51473282  0.74969330  0.91328192  1
  O  O456  1  0.48153743  0.25096960  0.08552784  1
  O  O457  1  0.48370978  0.25013014  0.33792815  1
  O  O458  1  0.48351368  0.25100258  0.58682794  1
  O  O459  1  0.48239314  0.24979144  0.83536363  1
  O  O460  1  0.48246856  0.58283800  0.08479638  1
  O  O461  1  0.48264590  0.58340115  0.33810634  1
  O  O462  1  0.48316643  0.58278325  0.58709735  1
  O  O463  1  0.48490072  0.58340732  0.83698742  1
  O  O464  1  0.48446345  0.91647516  0.08424606  1
  O  O465  1  0.48506435  0.91628604  0.33723869  1
  O  O466  1  0.48514154  0.91683993  0.58606448  1
  O  O467  1  0.48328570  0.91639010  0.83716623  1
  O  O468  1  0.98419878  0.25026504  0.08747922  1
  O  O469  1  0.98464849  0.25056188  0.33378597  1
  O  O470  1  0.98304851  0.25078313  0.58689815  1
  O  O471  1  0.98493499  0.25044905  0.83671618  1
  O  O472  1  0.98530983  0.58293671  0.08775314  1
  O  O473  1  0.98332119  0.58318753  0.33413984  1
  O  O474  1  0.98397555  0.58282717  0.58417373  1
  O  O475  1  0.98252971  0.58340116  0.83778704  1
  O  O476  1  0.98324698  0.91677581  0.08526040  1
  O  O477  1  0.98334077  0.91598898  0.33396021  1
  O  O478  1  0.98308807  0.91585416  0.58465774  1
  O  O479  1  0.98247293  0.91615246  0.83464826  1
  O  O480  1  0.08799062  0.31521205  0.07695435  1
  O  O481  1  0.08852840  0.31616399  0.32687163  1
  O  O482  1  0.08666891  0.31619736  0.57794697  1
  O  O483  1  0.08889685  0.31511330  0.82724551  1
  O  O484  1  0.08884087  0.64826932  0.07714887  1
  O  O485  1  0.08758715  0.64811717  0.32636145  1
  O  O486  1  0.08762392  0.64822525  0.57747016  1
  O  O487  1  0.08621186  0.64855709  0.82800635  1
  O  O488  1  0.08721039  0.98168508  0.07708630  1
  O  O489  1  0.08726129  0.98083287  0.32700725  1
  O  O490  1  0.08690539  0.98074644  0.57717583  1
  O  O491  1  0.08610343  0.98155635  0.82719708  1
  O  O492  1  0.58544042  0.31594405  0.07786786  1
  O  O493  1  0.58706790  0.31518838  0.32754527  1
  O  O494  1  0.58744451  0.31570018  0.57656466  1
  O  O495  1  0.58627209  0.31503962  0.82602649  1
  O  O496  1  0.58653904  0.64800561  0.07689516  1
  O  O497  1  0.58611950  0.64839119  0.32760740  1
  O  O498  1  0.58683923  0.64805393  0.57653453  1
  O  O499  1  0.58858968  0.64819802  0.82700786  1
  O  O500  1  0.58862928  0.98109590  0.07772543  1
  O  O501  1  0.58828628  0.98225391  0.32899750  1
  O  O502  1  0.58935044  0.98118380  0.57739774  1
  O  O503  1  0.58698472  0.98160195  0.82744654  1
  O  O504  1  0.41364446  0.01930488  0.17372000  1
  O  O505  1  0.41424606  0.01891570  0.42282499  1
  O  O506  1  0.41278399  0.01935008  0.67243637  1
  O  O507  1  0.41290075  0.01820267  0.92229739  1
  O  O508  1  0.41280592  0.35227127  0.17302097  1
  O  O509  1  0.41154309  0.35157613  0.42168142  1
  O  O510  1  0.41139960  0.35182916  0.67244505  1
  O  O511  1  0.41189351  0.35056018  0.92129044  1
  O  O512  1  0.41302300  0.68349053  0.17248636  1
  O  O513  1  0.41086793  0.68389484  0.42256604  1
  O  O514  1  0.41122168  0.68349042  0.67205211  1
  O  O515  1  0.41067492  0.68571131  0.92279091  1
  O  O516  1  0.91157211  0.01936529  0.17242602  1
  O  O517  1  0.91189454  0.01858026  0.42322360  1
  O  O518  1  0.91078588  0.01944964  0.67206720  1
  O  O519  1  0.91115952  0.01844849  0.92335662  1
  O  O520  1  0.91198191  0.35054139  0.17238321  1
  O  O521  1  0.91262702  0.35298404  0.42262624  1
  O  O522  1  0.91337921  0.35059140  0.67214443  1
  O  O523  1  0.91092928  0.35277886  0.92342641  1
  O  O524  1  0.91105795  0.68467505  0.17284709  1
  O  O525  1  0.91290985  0.68316016  0.42190034  1
  O  O526  1  0.91310274  0.68449685  0.67205270  1
  O  O527  1  0.91112806  0.68370763  0.92325188  1
  O  O528  1  0.16506004  0.01956551  0.20201403  1
  O  O529  1  0.16344678  0.01833771  0.45192834  1
  O  O530  1  0.16235646  0.01935284  0.70261861  1
  O  O531  1  0.16314317  0.01928039  0.95246871  1
  O  O532  1  0.16363463  0.35151890  0.20346159  1
  O  O533  1  0.16130741  0.35158743  0.45183776  1
  O  O534  1  0.16297590  0.35098053  0.70168518  1
  O  O535  1  0.16271303  0.35200041  0.95313099  1
  O  O536  1  0.16397390  0.68388156  0.20323176  1
  O  O537  1  0.16258206  0.68482789  0.45142776  1
  O  O538  1  0.16326489  0.68481361  0.70139277  1
  O  O539  1  0.16480789  0.68313773  0.95284071  1
  O  O540  1  0.66026677  0.01895565  0.20276085  1
  O  O541  1  0.66280598  0.01905221  0.45211127  1
  O  O542  1  0.66132678  0.01865862  0.70353394  1
  O  O543  1  0.66268814  0.01797323  0.95409384  1
  O  O544  1  0.66376081  0.35235281  0.20090731  1
  O  O545  1  0.66406654  0.35165541  0.45234174  1
  O  O546  1  0.66230735  0.35207267  0.70262504  1
  O  O547  1  0.66265746  0.35204517  0.95322636  1
  O  O548  1  0.66315292  0.68385953  0.20148779  1
  O  O549  1  0.66405957  0.68403118  0.45209414  1
  O  O550  1  0.66211253  0.68387726  0.70299226  1
  O  O551  1  0.66220078  0.68449831  0.95326790  1
  O  O552  1  0.33775449  0.31548779  0.04811843  1
  O  O553  1  0.33897636  0.31544906  0.29762002  1
  O  O554  1  0.33901839  0.31512137  0.54781197  1
  O  O555  1  0.33726212  0.31656369  0.79710734  1
  O  O556  1  0.33726204  0.64894533  0.04843966  1
  O  O557  1  0.33856780  0.64791488  0.29769189  1
  O  O558  1  0.33852171  0.64937312  0.54698147  1
  O  O559  1  0.33859099  0.64782759  0.79606002  1
  O  O560  1  0.33895766  0.98047027  0.04735900  1
  O  O561  1  0.33834627  0.98212269  0.29714220  1
  O  O562  1  0.33751042  0.98081254  0.54788540  1
  O  O563  1  0.33891228  0.98061840  0.79840188  1
  O  O564  1  0.83865412  0.31519247  0.04782350  1
  O  O565  1  0.83803096  0.31663472  0.29642601  1
  O  O566  1  0.83706257  0.31534591  0.54789997  1
  O  O567  1  0.83610690  0.31536186  0.79759483  1
  O  O568  1  0.83682152  0.64825675  0.04708451  1
  O  O569  1  0.83849058  0.64826406  0.29742489  1
  O  O570  1  0.83738925  0.64810131  0.54662327  1
  O  O571  1  0.83650452  0.64834476  0.79858692  1
  O  O572  1  0.83502001  0.98204758  0.04792929  1
  O  O573  1  0.83720612  0.98039334  0.29767028  1
  O  O574  1  0.83538050  0.98197405  0.54709575  1
  O  O575  1  0.83452601  0.98144421  0.79802095  1
  O  O576  1  0.41411884  0.14945618  0.17328675  1
  O  O577  1  0.41362738  0.14914715  0.42197948  1
  O  O578  1  0.41330337  0.14961892  0.67200506  1
  O  O579  1  0.41209080  0.14866037  0.92175062  1
  O  O580  1  0.41304005  0.48229429  0.17304285  1
  O  O581  1  0.41135291  0.48182815  0.42197174  1
  O  O582  1  0.41146640  0.48193141  0.67275207  1
  O  O583  1  0.41166066  0.48083078  0.92200782  1
  O  O584  1  0.41265621  0.81358077  0.17294160  1
  O  O585  1  0.41064000  0.81395736  0.42319012  1
  O  O586  1  0.41070561  0.81366920  0.67284269  1
  O  O587  1  0.41148937  0.81583428  0.92218823  1
  O  O588  1  0.91214467  0.14958161  0.17192676  1
  O  O589  1  0.91183684  0.14860639  0.42314000  1
  O  O590  1  0.91126067  0.14999521  0.67163361  1
  O  O591  1  0.91116624  0.14850133  0.92328515  1
  O  O592  1  0.91106754  0.48059832  0.17283030  1
  O  O593  1  0.91341997  0.48300435  0.42206487  1
  O  O594  1  0.91276064  0.48076717  0.67207146  1
  O  O595  1  0.91171047  0.48283181  0.92338316  1
  O  O596  1  0.91087370  0.81468403  0.17297649  1
  O  O597  1  0.91243206  0.81319826  0.42286347  1
  O  O598  1  0.91315173  0.81463654  0.67238607  1
  O  O599  1  0.91035397  0.81376705  0.92341439  1
  O  O600  1  0.08800189  0.18523595  0.07687325  1
  O  O601  1  0.08894932  0.18607097  0.32618157  1
  O  O602  1  0.08674966  0.18605396  0.57745688  1
  O  O603  1  0.08853806  0.18507881  0.82717005  1
  O  O604  1  0.08921047  0.51829888  0.07740694  1
  O  O605  1  0.08750116  0.51804522  0.32653030  1
  O  O606  1  0.08789381  0.51796814  0.57786560  1
  O  O607  1  0.08623299  0.51847018  0.82797687  1
  O  O608  1  0.08689288  0.85144264  0.07685889  1
  O  O609  1  0.08704246  0.85035906  0.32724514  1
  O  O610  1  0.08684514  0.85036893  0.57757990  1
  O  O611  1  0.08647171  0.85120268  0.82746662  1
  O  O612  1  0.58529327  0.18564195  0.07778326  1
  O  O613  1  0.58738079  0.18506019  0.32820903  1
  O  O614  1  0.58733132  0.18579860  0.57660876  1
  O  O615  1  0.58661616  0.18516015  0.82660581  1
  O  O616  1  0.58669241  0.51786435  0.07745098  1
  O  O617  1  0.58616813  0.51836959  0.32758958  1
  O  O618  1  0.58720054  0.51816017  0.57674159  1
  O  O619  1  0.58856447  0.51825873  0.82702538  1
  O  O620  1  0.58803260  0.85072555  0.07725057  1
  O  O621  1  0.58857319  0.85181832  0.32821439  1
  O  O622  1  0.58862895  0.85121612  0.57699020  1
  O  O623  1  0.58700169  0.85157087  0.82700021  1
  O  O624  1  0.33795441  0.18565238  0.04813158  1
  O  O625  1  0.33885989  0.18526456  0.29759549  1
  O  O626  1  0.33934622  0.18520563  0.54785195  1
  O  O627  1  0.33763663  0.18648182  0.79786236  1
  O  O628  1  0.33757065  0.51909667  0.04901995  1
  O  O629  1  0.33809080  0.51775660  0.29793189  1
  O  O630  1  0.33912021  0.51939637  0.54774399  1
  O  O631  1  0.33798884  0.51758023  0.79633628  1
  O  O632  1  0.33863728  0.85017481  0.04663861  1
  O  O633  1  0.33860996  0.85163922  0.29713030  1
  O  O634  1  0.33740700  0.85060881  0.54726835  1
  O  O635  1  0.33833007  0.85042401  0.79757839  1
  O  O636  1  0.83839515  0.18503277  0.04810715  1
  O  O637  1  0.83828783  0.18633787  0.29711618  1
  O  O638  1  0.83675515  0.18518021  0.54755596  1
  O  O639  1  0.83588622  0.18531513  0.79748405  1
  O  O640  1  0.83675526  0.51817264  0.04726889  1
  O  O641  1  0.83893912  0.51815164  0.29751968  1
  O  O642  1  0.83732998  0.51775389  0.54663253  1
  O  O643  1  0.83668946  0.51837873  0.79875847  1
  O  O644  1  0.83570151  0.85177034  0.04740535  1
  O  O645  1  0.83668744  0.84999348  0.29704393  1
  O  O646  1  0.83570073  0.85149672  0.54729434  1
  O  O647  1  0.83437154  0.85130481  0.79793942  1
  O  O648  1  0.16527978  0.14983598  0.20244990  1
  O  O649  1  0.16335096  0.14854578  0.45179945  1
  O  O650  1  0.16287126  0.14970810  0.70259518  1
  O  O651  1  0.16307641  0.14972170  0.95303579  1
  O  O652  1  0.16372400  0.48170810  0.20352236  1
  O  O653  1  0.16100475  0.48155580  0.45185188  1
  O  O654  1  0.16278427  0.48098492  0.70130998  1
  O  O655  1  0.16278367  0.48238737  0.95337985  1
  O  O656  1  0.16396926  0.81408280  0.20264084  1
  O  O657  1  0.16245698  0.81477141  0.45165380  1
  O  O658  1  0.16343690  0.81485284  0.70179817  1
  O  O659  1  0.16448703  0.81336159  0.95223788  1
  O  O660  1  0.66109797  0.14893195  0.20195528  1
  O  O661  1  0.66317254  0.14933055  0.45186330  1
  O  O662  1  0.66197497  0.14913008  0.70279897  1
  O  O663  1  0.66257514  0.14826720  0.95342510  1
  O  O664  1  0.66328287  0.48215464  0.20159995  1
  O  O665  1  0.66427121  0.48188506  0.45203556  1
  O  O666  1  0.66232566  0.48239068  0.70305482  1
  O  O667  1  0.66281572  0.48225961  0.95353240  1
  O  O668  1  0.66289809  0.81373615  0.20158215  1
  O  O669  1  0.66368606  0.81427961  0.45270287  1
  O  O670  1  0.66159067  0.81428754  0.70310550  1
  O  O671  1  0.66192972  0.81472060  0.95370562  1
