# generated using pymatgen
data_Na2MnFe(PO4)2
_symmetry_space_group_name_H-M   'P 1'
_cell_length_a   21.09390080
_cell_length_b   18.94811927
_cell_length_c   20.05191413
_cell_angle_alpha   89.99954830
_cell_angle_beta   89.99914199
_cell_angle_gamma   89.99900252
_symmetry_Int_Tables_number   1
_chemical_formula_structural   Na2MnFe(PO4)2
_chemical_formula_sum   'Na96 Mn48 Fe48 P96 O384'
_cell_volume   8014.54450714
_cell_formula_units_Z   48
loop_
 _symmetry_equiv_pos_site_id
 _symmetry_equiv_pos_as_xyz
  1  'x, y, z'
loop_
 _atom_site_type_symbol
 _atom_site_label
 _atom_site_symmetry_multiplicity
 _atom_site_fract_x
 _atom_site_fract_y
 _atom_site_fract_z
 _atom_site_occupancy
  Na  Na0  1  -0.00222992  0.00057350  0.00007334  1
  Na  Na1  1  -0.00227836  -0.00031658  0.25045550  1
  Na  Na2  1  0.00209041  0.00079015  0.49942882  1
  Na  Na3  1  -0.00119413  0.00002019  0.74891545  1
  Na  Na4  1  -0.00195805  0.33304465  0.00022275  1
  Na  Na5  1  -0.00131333  0.33361887  0.25089708  1
  Na  Na6  1  -0.00036839  0.33306311  0.50001935  1
  Na  Na7  1  0.00017930  0.33317220  0.74916536  1
  Na  Na8  1  -0.00155829  0.66564879  0.00018788  1
  Na  Na9  1  -0.00138190  0.66570942  0.24982037  1
  Na  Na10  1  0.00085049  0.66576140  0.50002837  1
  Na  Na11  1  0.00128405  0.66642440  0.75008475  1
  Na  Na12  1  0.50074870  0.00012969  -0.00131390  1
  Na  Na13  1  0.49984424  -0.00060978  0.25018671  1
  Na  Na14  1  0.49958212  0.00017362  0.50060810  1
  Na  Na15  1  0.49695180  -0.00149814  0.75150426  1
  Na  Na16  1  0.50261003  0.33426727  -0.00150432  1
  Na  Na17  1  0.49840888  0.33274919  0.24951024  1
  Na  Na18  1  0.49902675  0.33370205  0.50112014  1
  Na  Na19  1  0.50079107  0.33368275  0.75000077  1
  Na  Na20  1  0.50116925  0.66609083  -0.00000901  1
  Na  Na21  1  0.50058880  0.66584207  0.25034844  1
  Na  Na22  1  0.49934854  0.66620377  0.49996418  1
  Na  Na23  1  0.50111471  0.66695790  0.74987900  1
  Na  Na24  1  0.25000329  0.00017625  0.12489944  1
  Na  Na25  1  0.24955216  -0.00017748  0.37564669  1
  Na  Na26  1  0.24980231  -0.00015926  0.62524840  1
  Na  Na27  1  0.25025035  0.00041529  0.87438217  1
  Na  Na28  1  0.25014229  0.33355149  0.12489349  1
  Na  Na29  1  0.25321114  0.33463451  0.37505892  1
  Na  Na30  1  0.25051335  0.33328682  0.62409663  1
  Na  Na31  1  0.24897105  0.33369626  0.87634972  1
  Na  Na32  1  0.25053293  0.66619974  0.12551240  1
  Na  Na33  1  0.25250324  0.66693071  0.37503810  1
  Na  Na34  1  0.24969575  0.66593702  0.62460272  1
  Na  Na35  1  0.24760537  0.66538994  0.87430558  1
  Na  Na36  1  0.75212870  0.00039289  0.12546566  1
  Na  Na37  1  0.74924318  0.00003013  0.37417662  1
  Na  Na38  1  0.75095271  0.00056807  0.62502658  1
  Na  Na39  1  0.75293680  0.00066178  0.87515315  1
  Na  Na40  1  0.75006206  0.33399344  0.12491204  1
  Na  Na41  1  0.74913283  0.33365475  0.37452486  1
  Na  Na42  1  0.74869076  0.33297741  0.62510531  1
  Na  Na43  1  0.74889540  0.33265850  0.87537061  1
  Na  Na44  1  0.75053196  0.66614442  0.12584284  1
  Na  Na45  1  0.74825507  0.66544850  0.37492126  1
  Na  Na46  1  0.75009545  0.66647399  0.62543452  1
  Na  Na47  1  0.75112330  0.66636108  0.87422002  1
  Na  Na48  1  -0.00271671  0.16704979  0.00018738  1
  Na  Na49  1  -0.00217567  0.16648352  0.24971880  1
  Na  Na50  1  0.00076552  0.16562746  0.50053871  1
  Na  Na51  1  0.00094156  0.16544647  0.74861129  1
  Na  Na52  1  0.00037787  0.49989642  -0.00016175  1
  Na  Na53  1  -0.00152135  0.50099749  0.25100172  1
  Na  Na54  1  0.00076475  0.50057627  0.49974550  1
  Na  Na55  1  -0.00076074  0.50165032  0.74996335  1
  Na  Na56  1  -0.00381550  0.83445069  0.00054998  1
  Na  Na57  1  -0.00088038  0.83324249  0.25031874  1
  Na  Na58  1  0.00252344  0.83225437  0.49951567  1
  Na  Na59  1  0.00010780  0.83329508  0.74950142  1
  Na  Na60  1  0.50103039  0.16648837  -0.00167863  1
  Na  Na61  1  0.50050872  0.16661960  0.24955906  1
  Na  Na62  1  0.49941876  0.16715854  0.50152047  1
  Na  Na63  1  0.50030949  0.16666514  0.75118882  1
  Na  Na64  1  0.50153042  0.49964162  -0.00077458  1
  Na  Na65  1  0.49912155  0.50069322  0.25053037  1
  Na  Na66  1  0.49870214  0.50028915  0.49955845  1
  Na  Na67  1  0.49919786  0.50037129  0.75053047  1
  Na  Na68  1  0.50199053  0.83300190  -0.00042583  1
  Na  Na69  1  0.50028971  0.83363255  0.25027746  1
  Na  Na70  1  0.49904945  0.83388430  0.50036660  1
  Na  Na71  1  0.49938541  0.83380743  0.74976255  1
  Na  Na72  1  0.24932151  0.16619674  0.12538019  1
  Na  Na73  1  0.24994841  0.16628646  0.37550510  1
  Na  Na74  1  0.24850283  0.16664046  0.62425909  1
  Na  Na75  1  0.24733202  0.16666453  0.87486322  1
  Na  Na76  1  0.25089658  0.49979235  0.12518600  1
  Na  Na77  1  0.25297501  0.50005887  0.37434299  1
  Na  Na78  1  0.25208228  0.49993645  0.62453600  1
  Na  Na79  1  0.24868180  0.50064017  0.87574751  1
  Na  Na80  1  0.25068949  0.83368591  0.12470185  1
  Na  Na81  1  0.25193583  0.83302087  0.37605082  1
  Na  Na82  1  0.25005025  0.83363471  0.62507627  1
  Na  Na83  1  0.25015027  0.83350101  0.87456133  1
  Na  Na84  1  0.75202393  0.16636281  0.12542591  1
  Na  Na85  1  0.74994295  0.16660860  0.37412584  1
  Na  Na86  1  0.75104366  0.16608905  0.62453728  1
  Na  Na87  1  0.75198040  0.16657766  0.87572906  1
  Na  Na88  1  0.75029028  0.50048098  0.12518245  1
  Na  Na89  1  0.74888812  0.50081544  0.37514755  1
  Na  Na90  1  0.75018985  0.50019844  0.62554332  1
  Na  Na91  1  0.75014972  0.50080782  0.87444737  1
  Na  Na92  1  0.75040951  0.83259100  0.12555945  1
  Na  Na93  1  0.74719321  0.83394449  0.37435224  1
  Na  Na94  1  0.74874083  0.83372649  0.62551230  1
  Na  Na95  1  0.75099678  0.83317791  0.87473837  1
  Mn  Mn96  1  0.64272678  0.91786085  0.74811456  1
  Mn  Mn97  1  0.14080486  0.91605591  0.99774271  1
  Mn  Mn98  1  0.35790167  0.08315692  0.50239482  1
  Mn  Mn99  1  0.10670690  0.75096621  0.87346869  1
  Mn  Mn100  1  0.35892030  0.75002931  0.25228876  1
  Mn  Mn101  1  0.85724041  0.74935618  0.25311405  1
  Mn  Mn102  1  0.14244562  0.91642600  0.24775877  1
  Mn  Mn103  1  0.89249271  0.25044832  0.62713548  1
  Mn  Mn104  1  0.10836122  0.41641585  0.37246577  1
  Mn  Mn105  1  0.60803366  0.41647818  0.12302716  1
  Mn  Mn106  1  0.14023316  0.25001308  0.99798322  1
  Mn  Mn107  1  0.39275724  0.91640185  0.12661590  1
  Mn  Mn108  1  0.14242881  0.25046529  0.24795990  1
  Mn  Mn109  1  0.85802220  0.41587629  0.75211335  1
  Mn  Mn110  1  0.39239212  0.25015036  0.12638124  1
  Mn  Mn111  1  0.85873769  0.75054425  0.75190621  1
  Mn  Mn112  1  0.85699573  0.75048687  0.50211209  1
  Mn  Mn113  1  0.60765943  0.08296247  0.62376553  1
  Mn  Mn114  1  0.10867049  0.75004203  0.37259667  1
  Mn  Mn115  1  0.60724037  0.75007179  0.62249053  1
  Mn  Mn116  1  0.89204981  0.91586635  0.37845488  1
  Mn  Mn117  1  0.64158210  0.24985754  0.49741647  1
  Mn  Mn118  1  0.60878324  0.08342849  0.12214350  1
  Mn  Mn119  1  0.14303920  0.58312823  0.24799420  1
  Mn  Mn120  1  0.60840981  0.74982120  0.12213294  1
  Mn  Mn121  1  0.60694331  0.41716208  0.62303428  1
  Mn  Mn122  1  0.10725617  0.41585351  0.87231557  1
  Mn  Mn123  1  0.10693671  0.74966824  0.12250021  1
  Mn  Mn124  1  0.64197072  0.91665930  0.24777528  1
  Mn  Mn125  1  0.89261738  0.91563179  0.62568077  1
  Mn  Mn126  1  0.35711498  0.08357355  0.00188979  1
  Mn  Mn127  1  0.14297112  0.25059261  0.49687164  1
  Mn  Mn128  1  0.35734144  0.74981361  0.75285386  1
  Mn  Mn129  1  0.10589674  0.08374231  0.12310665  1
  Mn  Mn130  1  0.64277997  0.58297074  0.74750860  1
  Mn  Mn131  1  0.35773019  0.41668896  0.00203879  1
  Mn  Mn132  1  0.64203291  0.25062470  0.24776468  1
  Mn  Mn133  1  0.85697759  0.41668349  0.50230586  1
  Mn  Mn134  1  0.39220275  0.24981052  0.87708057  1
  Mn  Mn135  1  0.85750843  0.41707393  0.00239204  1
  Mn  Mn136  1  0.60874237  0.08306372  0.87234626  1
  Mn  Mn137  1  0.39161219  0.24972298  0.62891071  1
  Mn  Mn138  1  0.89191497  0.25032225  0.37775746  1
  Mn  Mn139  1  0.35820554  0.74959974  0.00165791  1
  Mn  Mn140  1  0.39231660  0.58403113  0.87721087  1
  Mn  Mn141  1  0.35833871  0.08377975  0.25242321  1
  Mn  Mn142  1  0.10870481  0.41705057  0.62244825  1
  Mn  Mn143  1  0.14194164  0.91666678  0.74789672  1
  Fe  Fe144  1  0.89220517  0.58286565  0.12692756  1
  Fe  Fe145  1  0.39299757  0.91625184  0.87721465  1
  Fe  Fe146  1  0.64352417  0.24939077  0.74898857  1
  Fe  Fe147  1  0.60636153  0.74983095  0.37440404  1
  Fe  Fe148  1  0.10666964  0.41691243  0.12437533  1
  Fe  Fe149  1  0.14419283  0.58352676  0.49792605  1
  Fe  Fe150  1  0.10738277  0.08240498  0.62299931  1
  Fe  Fe151  1  0.60632715  0.41666707  0.37330813  1
  Fe  Fe152  1  0.85848266  0.08376964  0.75134524  1
  Fe  Fe153  1  0.10569128  0.08311131  0.87338520  1
  Fe  Fe154  1  0.14376167  0.91592433  0.49813084  1
  Fe  Fe155  1  0.89219174  0.58339946  0.37764862  1
  Fe  Fe156  1  0.89156894  0.91625653  0.12719714  1
  Fe  Fe157  1  0.85685131  0.08290003  0.50094660  1
  Fe  Fe158  1  0.35806564  0.41629659  0.25134258  1
  Fe  Fe159  1  0.64253684  0.58280388  0.24852987  1
  Fe  Fe160  1  0.60801921  0.41710743  0.87285563  1
  Fe  Fe161  1  0.39317566  0.91692667  0.37709549  1
  Fe  Fe162  1  0.60851780  0.74989806  0.87375127  1
  Fe  Fe163  1  0.39378111  0.58348677  0.37703127  1
  Fe  Fe164  1  0.39241185  0.58393791  0.62714757  1
  Fe  Fe165  1  0.64316544  0.58357546  0.99819093  1
  Fe  Fe166  1  0.64377750  0.24988497  0.99805747  1
  Fe  Fe167  1  0.89354951  0.58367450  0.62596814  1
  Fe  Fe168  1  0.35659639  0.41600824  0.75199719  1
  Fe  Fe169  1  0.64195651  0.58368237  0.49832138  1
  Fe  Fe170  1  0.39319174  0.24967908  0.37629618  1
  Fe  Fe171  1  0.10823028  0.75004859  0.62296710  1
  Fe  Fe172  1  0.14238321  0.58275530  0.74791566  1
  Fe  Fe173  1  0.85735743  0.08293115  0.00166139  1
  Fe  Fe174  1  0.89171673  0.25118304  0.12716885  1
  Fe  Fe175  1  0.85690446  0.08367859  0.25289845  1
  Fe  Fe176  1  0.35594240  0.08427343  0.75187502  1
  Fe  Fe177  1  0.89239540  0.25021609  0.87630424  1
  Fe  Fe178  1  0.10688910  0.08334792  0.37295364  1
  Fe  Fe179  1  0.89305264  0.58339770  0.87704417  1
  Fe  Fe180  1  0.85683311  0.74983361  0.00144489  1
  Fe  Fe181  1  0.60725525  0.08357768  0.37399508  1
  Fe  Fe182  1  0.39216133  0.91661667  0.62706481  1
  Fe  Fe183  1  0.85726329  0.41696662  0.25213562  1
  Fe  Fe184  1  0.14202379  0.58359866  0.99927530  1
  Fe  Fe185  1  0.39317002  0.58327646  0.12623371  1
  Fe  Fe186  1  0.35784630  0.74980613  0.50209834  1
  Fe  Fe187  1  0.64403236  0.91644394  0.99808911  1
  Fe  Fe188  1  0.14200967  0.25035940  0.74878858  1
  Fe  Fe189  1  0.35821992  0.41710421  0.50161538  1
  Fe  Fe190  1  0.89212608  0.91656113  0.87697470  1
  Fe  Fe191  1  0.64138930  0.91675738  0.49858866  1
  P  P192  1  0.05089612  0.25102968  0.11085388  1
  P  P193  1  0.05332588  0.24911862  0.35998544  1
  P  P194  1  0.05522081  0.24938989  0.61080685  1
  P  P195  1  0.05178077  0.24883795  0.85938364  1
  P  P196  1  0.05227501  0.58239704  0.11025210  1
  P  P197  1  0.05388005  0.58338713  0.36103543  1
  P  P198  1  0.05511871  0.58400135  0.61016372  1
  P  P199  1  0.05387432  0.58349125  0.86086741  1
  P  P200  1  0.05087782  0.91684960  0.11039188  1
  P  P201  1  0.05471153  0.91719791  0.36109108  1
  P  P202  1  0.05461281  0.91633594  0.60916142  1
  P  P203  1  0.05101428  0.91767725  0.86009964  1
  P  P204  1  0.55427110  0.25011620  0.10848402  1
  P  P205  1  0.55222676  0.25031014  0.36039687  1
  P  P206  1  0.55424863  0.24976986  0.61184049  1
  P  P207  1  0.55599891  0.25066041  0.86042396  1
  P  P208  1  0.55428072  0.58279441  0.11044598  1
  P  P209  1  0.55412176  0.58325703  0.36120057  1
  P  P210  1  0.55235693  0.58315859  0.60949951  1
  P  P211  1  0.55537679  0.58363608  0.86109750  1
  P  P212  1  0.55468448  0.91684075  0.10863260  1
  P  P213  1  0.55355892  0.91674900  0.36175033  1
  P  P214  1  0.55231336  0.91704536  0.61011278  1
  P  P215  1  0.55446129  0.91577015  0.86119549  1
  P  P216  1  0.44734025  0.08333168  0.13955294  1
  P  P217  1  0.44801587  0.08356301  0.39015993  1
  P  P218  1  0.44566639  0.08242338  0.64156291  1
  P  P219  1  0.44531053  0.08285199  0.88855862  1
  P  P220  1  0.44638844  0.41755588  0.13996834  1
  P  P221  1  0.44603265  0.41653812  0.38902511  1
  P  P222  1  0.44419477  0.41785832  0.63996157  1
  P  P223  1  0.44663313  0.41667378  0.88855442  1
  P  P224  1  0.44748426  0.74905258  0.13971866  1
  P  P225  1  0.44707528  0.75004164  0.39047817  1
  P  P226  1  0.44493404  0.74990984  0.63893923  1
  P  P227  1  0.44837937  0.75050647  0.88981984  1
  P  P228  1  0.94298920  0.08341152  0.13945669  1
  P  P229  1  0.94577824  0.08325879  0.38994594  1
  P  P230  1  0.94584435  0.08272900  0.63838887  1
  P  P231  1  0.94511381  0.08371293  0.88881106  1
  P  P232  1  0.94645373  0.41733667  0.14069560  1
  P  P233  1  0.94552323  0.41776406  0.38943714  1
  P  P234  1  0.94710293  0.41794046  0.63955789  1
  P  P235  1  0.94636636  0.41658570  0.88966957  1
  P  P236  1  0.94433130  0.74948257  0.13885849  1
  P  P237  1  0.94671213  0.74871951  0.39042802  1
  P  P238  1  0.94841331  0.74912927  0.63917959  1
  P  P239  1  0.94560305  0.74994208  0.89051408  1
  P  P240  1  0.19555590  0.08334101  0.23594562  1
  P  P241  1  0.19484584  0.08212253  0.48562518  1
  P  P242  1  0.19502573  0.08387552  0.73576901  1
  P  P243  1  0.19450195  0.08290640  0.98417557  1
  P  P244  1  0.19792153  0.41676974  0.23456426  1
  P  P245  1  0.19874263  0.41807676  0.48465008  1
  P  P246  1  0.19752572  0.41655745  0.73511356  1
  P  P247  1  0.19441436  0.41779438  0.98672252  1
  P  P248  1  0.19738226  0.74994368  0.23469248  1
  P  P249  1  0.19734382  0.74964718  0.48636524  1
  P  P250  1  0.19558092  0.74942737  0.73454451  1
  P  P251  1  0.19645983  0.74901171  0.98491079  1
  P  P252  1  0.69638307  0.08365787  0.23611097  1
  P  P253  1  0.69680779  0.08259685  0.48453444  1
  P  P254  1  0.69883234  0.08427557  0.73524581  1
  P  P255  1  0.69854637  0.08307479  0.98525893  1
  P  P256  1  0.69635658  0.41769069  0.23645794  1
  P  P257  1  0.69515062  0.41769472  0.48445027  1
  P  P258  1  0.69566420  0.41575518  0.73608344  1
  P  P259  1  0.69616187  0.41718338  0.98463826  1
  P  P260  1  0.69463895  0.74870856  0.23669952  1
  P  P261  1  0.69533113  0.74991439  0.48463897  1
  P  P262  1  0.69587627  0.75021469  0.73592705  1
  P  P263  1  0.69777400  0.74967119  0.98462965  1
  P  P264  1  0.30213368  0.24981133  0.01499581  1
  P  P265  1  0.30437105  0.25066377  0.26555292  1
  P  P266  1  0.30541267  0.25042493  0.51370374  1
  P  P267  1  0.30135904  0.24992175  0.76522399  1
  P  P268  1  0.30276530  0.58341309  0.01549946  1
  P  P269  1  0.30624236  0.58247479  0.26438137  1
  P  P270  1  0.30541551  0.58359976  0.51394021  1
  P  P271  1  0.30297834  0.58248446  0.76398241  1
  P  P272  1  0.30385472  0.91657082  0.01378653  1
  P  P273  1  0.30455632  0.91688924  0.26609389  1
  P  P274  1  0.30468179  0.91607269  0.51454285  1
  P  P275  1  0.30494793  0.91753231  0.76449408  1
  P  P276  1  0.80425772  0.24983094  0.01429295  1
  P  P277  1  0.80463930  0.25083505  0.26385640  1
  P  P278  1  0.80295739  0.24935227  0.51485020  1
  P  P279  1  0.80331929  0.24941419  0.76542269  1
  P  P280  1  0.80393901  0.58404683  0.01427170  1
  P  P281  1  0.80402099  0.58223820  0.26488237  1
  P  P282  1  0.80302939  0.58361529  0.51464864  1
  P  P283  1  0.80599528  0.58342960  0.76415768  1
  P  P284  1  0.80416941  0.91606979  0.01419547  1
  P  P285  1  0.80447036  0.91694316  0.26435016  1
  P  P286  1  0.80107032  0.91701361  0.51465530  1
  P  P287  1  0.80475030  0.91748153  0.76506267  1
  O  O288  1  0.05510002  0.25034703  0.18744886  1
  O  O289  1  0.05686429  0.24998572  0.43676480  1
  O  O290  1  0.05924119  0.25026708  0.68756871  1
  O  O291  1  0.05476729  0.24974059  0.93612768  1
  O  O292  1  0.05633798  0.58324132  0.18691428  1
  O  O293  1  0.05981519  0.58325792  0.43762159  1
  O  O294  1  0.05954119  0.58302523  0.68693042  1
  O  O295  1  0.05845460  0.58336630  0.93748798  1
  O  O296  1  0.05522808  0.91665577  0.18703555  1
  O  O297  1  0.05967924  0.91611663  0.43775916  1
  O  O298  1  0.05680497  0.91661570  0.68598436  1
  O  O299  1  0.05441412  0.91707431  0.93675472  1
  O  O300  1  0.55720186  0.25001436  0.18531080  1
  O  O301  1  0.55534898  0.25051617  0.43712234  1
  O  O302  1  0.55924661  0.24942961  0.68848509  1
  O  O303  1  0.56068922  0.24958536  0.93714810  1
  O  O304  1  0.55874226  0.58272644  0.18714753  1
  O  O305  1  0.55827766  0.58313216  0.43786263  1
  O  O306  1  0.55671053  0.58303900  0.68618163  1
  O  O307  1  0.55949529  0.58352589  0.93784410  1
  O  O308  1  0.55749814  0.91690862  0.18549202  1
  O  O309  1  0.55784978  0.91701983  0.43843161  1
  O  O310  1  0.55659872  0.91710555  0.68677449  1
  O  O311  1  0.56019203  0.91678732  0.93777098  1
  O  O312  1  0.44391029  0.08342058  0.06281389  1
  O  O313  1  0.44468941  0.08341375  0.31349491  1
  O  O314  1  0.44302196  0.08351622  0.56476010  1
  O  O315  1  0.44033204  0.08403949  0.81194645  1
  O  O316  1  0.44380391  0.41699722  0.06315294  1
  O  O317  1  0.44200273  0.41645862  0.31235230  1
  O  O318  1  0.44058314  0.41697256  0.56313159  1
  O  O319  1  0.44084373  0.41631164  0.81195683  1
  O  O320  1  0.44455261  0.74946143  0.06298475  1
  O  O321  1  0.44431542  0.74999105  0.31376507  1
  O  O322  1  0.44118487  0.74982147  0.56219700  1
  O  O323  1  0.44410036  0.74982018  0.81313529  1
  O  O324  1  0.93940747  0.08331819  0.06252959  1
  O  O325  1  0.94060510  0.08325180  0.31325809  1
  O  O326  1  0.94052187  0.08283276  0.56178354  1
  O  O327  1  0.94160599  0.08367611  0.81201971  1
  O  O328  1  0.94298198  0.41722149  0.06395983  1
  O  O329  1  0.94110596  0.41727644  0.31274192  1
  O  O330  1  0.94372535  0.41715539  0.56283180  1
  O  O331  1  0.94388486  0.41666782  0.81294861  1
  O  O332  1  0.94032111  0.74959891  0.06213761  1
  O  O333  1  0.94308076  0.74944183  0.31368743  1
  O  O334  1  0.94415293  0.74965732  0.56258378  1
  O  O335  1  0.94394299  0.74991981  0.81368667  1
  O  O336  1  0.19117856  0.08280552  0.06098447  1
  O  O337  1  0.19109751  0.08334628  0.31266095  1
  O  O338  1  0.19092844  0.08270686  0.56242971  1
  O  O339  1  0.18988267  0.08290270  0.81239328  1
  O  O340  1  0.18996333  0.41678126  0.06340103  1
  O  O341  1  0.19420958  0.41697138  0.31127871  1
  O  O342  1  0.19467594  0.41748449  0.56128872  1
  O  O343  1  0.19367900  0.41677007  0.81182421  1
  O  O344  1  0.19333414  0.75009565  0.06166437  1
  O  O345  1  0.19432617  0.74993212  0.31149471  1
  O  O346  1  0.19260808  0.74971924  0.56298413  1
  O  O347  1  0.19209173  0.75019043  0.81128208  1
  O  O348  1  0.69528570  0.08306535  0.06193556  1
  O  O349  1  0.69059479  0.08366711  0.31270141  1
  O  O350  1  0.69322599  0.08314179  0.56122022  1
  O  O351  1  0.69510328  0.08345485  0.81190302  1
  O  O352  1  0.69369667  0.41734116  0.06144886  1
  O  O353  1  0.69081368  0.41691515  0.31301805  1
  O  O354  1  0.69234682  0.41712293  0.56125482  1
  O  O355  1  0.69192016  0.41700153  0.81280146  1
  O  O356  1  0.69454787  0.74949162  0.06139472  1
  O  O357  1  0.68980841  0.74943521  0.31333581  1
  O  O358  1  0.69300704  0.74980927  0.56148651  1
  O  O359  1  0.69186512  0.74994955  0.81264535  1
  O  O360  1  0.30699419  0.24957958  0.18879094  1
  O  O361  1  0.31001383  0.24959087  0.43702029  1
  O  O362  1  0.30491373  0.24965733  0.68850000  1
  O  O363  1  0.30583303  0.24978210  0.93827494  1
  O  O364  1  0.30997109  0.58347772  0.18767837  1
  O  O365  1  0.31025910  0.58387419  0.43722650  1
  O  O366  1  0.30785269  0.58351579  0.68737943  1
  O  O367  1  0.30648435  0.58350636  0.93873756  1
  O  O368  1  0.30764436  0.91704788  0.18929673  1
  O  O369  1  0.30984543  0.91690807  0.43788271  1
  O  O370  1  0.30863713  0.91659359  0.68770671  1
  O  O371  1  0.30868006  0.91634843  0.93705231  1
  O  O372  1  0.80833045  0.25128550  0.18706071  1
  O  O373  1  0.80597134  0.25016450  0.43809557  1
  O  O374  1  0.80681095  0.25030780  0.68870422  1
  O  O375  1  0.80889006  0.25066880  0.93764465  1
  O  O376  1  0.80870165  0.58275617  0.18817006  1
  O  O377  1  0.80779155  0.58357773  0.43797542  1
  O  O378  1  0.81039056  0.58362691  0.68742596  1
  O  O379  1  0.80890677  0.58319294  0.93762404  1
  O  O380  1  0.80835038  0.91602000  0.18757696  1
  O  O381  1  0.80490308  0.91615594  0.43799602  1
  O  O382  1  0.80758794  0.91637956  0.68830759  1
  O  O383  1  0.80857634  0.91632447  0.93748028  1
  O  O384  1  0.23239942  0.24985945  0.03984563  1
  O  O385  1  0.23480416  0.25058775  0.29109923  1
  O  O386  1  0.23528206  0.25000545  0.53748319  1
  O  O387  1  0.23135281  0.25014131  0.79000590  1
  O  O388  1  0.23276030  0.58315715  0.04005672  1
  O  O389  1  0.23626678  0.58329412  0.28887442  1
  O  O390  1  0.23497552  0.58332178  0.53746243  1
  O  O391  1  0.23259186  0.58290666  0.78759127  1
  O  O392  1  0.23381923  0.91671418  0.03779644  1
  O  O393  1  0.23485257  0.91646606  0.29103458  1
  O  O394  1  0.23421881  0.91642571  0.53784422  1
  O  O395  1  0.23477829  0.91670285  0.78852980  1
  O  O396  1  0.73386159  0.25037926  0.03804468  1
  O  O397  1  0.73475149  0.25040621  0.28845929  1
  O  O398  1  0.73332346  0.24960776  0.53996156  1
  O  O399  1  0.73343321  0.24953292  0.79025607  1
  O  O400  1  0.73348635  0.58334578  0.03777560  1
  O  O401  1  0.73357127  0.58288735  0.28825416  1
  O  O402  1  0.73257172  0.58361065  0.53813462  1
  O  O403  1  0.73580384  0.58333262  0.78769341  1
  O  O404  1  0.73385167  0.91625185  0.03829642  1
  O  O405  1  0.73442821  0.91689214  0.28838876  1
  O  O406  1  0.73114019  0.91683729  0.53949485  1
  O  O407  1  0.73510551  0.91713709  0.79033109  1
  O  O408  1  0.26558497  0.08339104  0.21195886  1
  O  O409  1  0.26503753  0.08299510  0.46177850  1
  O  O410  1  0.26545224  0.08338198  0.71218181  1
  O  O411  1  0.26429784  0.08337698  0.95948185  1
  O  O412  1  0.26801503  0.41656581  0.21033917  1
  O  O413  1  0.26890491  0.41782311  0.46057368  1
  O  O414  1  0.26746582  0.41629762  0.71029974  1
  O  O415  1  0.26441916  0.41743110  0.96241340  1
  O  O416  1  0.26705952  0.74995895  0.20979208  1
  O  O417  1  0.26770767  0.74969251  0.46255341  1
  O  O418  1  0.26545027  0.74991325  0.71003734  1
  O  O419  1  0.26591318  0.74915980  0.95915042  1
  O  O420  1  0.76684982  0.08369491  0.21315342  1
  O  O421  1  0.76688932  0.08317951  0.45987761  1
  O  O422  1  0.76879163  0.08377360  0.71058568  1
  O  O423  1  0.76867722  0.08313442  0.96068264  1
  O  O424  1  0.76663564  0.41745248  0.21276131  1
  O  O425  1  0.76484802  0.41700740  0.45938102  1
  O  O426  1  0.76550044  0.41632388  0.71140110  1
  O  O427  1  0.76587947  0.41712071  0.95938835  1
  O  O428  1  0.76471488  0.74899599  0.21289539  1
  O  O429  1  0.76480554  0.74987404  0.45878322  1
  O  O430  1  0.76584431  0.75015708  0.71160235  1
  O  O431  1  0.76779255  0.74968994  0.95989397  1
  O  O432  1  0.01298994  0.08318563  0.16382594  1
  O  O433  1  0.01620118  0.08335438  0.41308868  1
  O  O434  1  0.01642799  0.08242073  0.66131180  1
  O  O435  1  0.01515853  0.08376259  0.91358691  1
  O  O436  1  0.01644922  0.41738929  0.16559447  1
  O  O437  1  0.01554601  0.41707806  0.41360181  1
  O  O438  1  0.01673580  0.41778754  0.66467355  1
  O  O439  1  0.01583503  0.41626535  0.91535839  1
  O  O440  1  0.01420337  0.74920724  0.16361409  1
  O  O441  1  0.01650476  0.74887055  0.41495457  1
  O  O442  1  0.01840100  0.74978670  0.66373506  1
  O  O443  1  0.01497781  0.75015285  0.91664686  1
  O  O444  1  0.51701738  0.08308722  0.16460575  1
  O  O445  1  0.51792440  0.08356655  0.41537008  1
  O  O446  1  0.51530352  0.08255271  0.66691430  1
  O  O447  1  0.51558894  0.08316593  0.91204593  1
  O  O448  1  0.51595491  0.41680207  0.16543150  1
  O  O449  1  0.51631071  0.41718187  0.41329164  1
  O  O450  1  0.51419922  0.41712315  0.66415578  1
  O  O451  1  0.51715335  0.41681531  0.91143901  1
  O  O452  1  0.51700264  0.74965256  0.16522943  1
  O  O453  1  0.51706151  0.74997052  0.41545217  1
  O  O454  1  0.51482215  0.75014810  0.66354145  1
  O  O455  1  0.51839982  0.74996759  0.91423883  1
  O  O456  1  0.48467665  0.25060306  0.08324803  1
  O  O457  1  0.48237933  0.25001891  0.33521180  1
  O  O458  1  0.48406336  0.25026616  0.58839244  1
  O  O459  1  0.48574274  0.25021137  0.83687862  1
  O  O460  1  0.48405351  0.58277453  0.08643152  1
  O  O461  1  0.48362295  0.58319382  0.33760819  1
  O  O462  1  0.48217947  0.58340426  0.58565835  1
  O  O463  1  0.48538762  0.58367582  0.83669082  1
  O  O464  1  0.48505512  0.91665119  0.08362458  1
  O  O465  1  0.48330461  0.91649395  0.33756978  1
  O  O466  1  0.48210171  0.91689493  0.58625803  1
  O  O467  1  0.48401079  0.91597839  0.83797995  1
  O  O468  1  0.98072632  0.25060472  0.08653834  1
  O  O469  1  0.98359038  0.24956549  0.33533154  1
  O  O470  1  0.98523551  0.24953552  0.58648564  1
  O  O471  1  0.98189293  0.24940174  0.83436288  1
  O  O472  1  0.98205194  0.58277296  0.08611090  1
  O  O473  1  0.98339906  0.58360289  0.33806523  1
  O  O474  1  0.98472131  0.58346957  0.58652104  1
  O  O475  1  0.98342532  0.58388385  0.83741921  1
  O  O476  1  0.98065050  0.91726579  0.08645995  1
  O  O477  1  0.98454569  0.91664883  0.33749468  1
  O  O478  1  0.98503221  0.91637374  0.58348334  1
  O  O479  1  0.98110577  0.91691241  0.83518631  1
  O  O480  1  0.08432597  0.31623686  0.07824048  1
  O  O481  1  0.08735568  0.31418879  0.32743646  1
  O  O482  1  0.08875005  0.31442713  0.57753670  1
  O  O483  1  0.08631567  0.31360362  0.82662421  1
  O  O484  1  0.08619776  0.64712719  0.07686001  1
  O  O485  1  0.08709429  0.64826598  0.32738132  1
  O  O486  1  0.08837360  0.64924302  0.57725201  1
  O  O487  1  0.08748152  0.64830958  0.82757537  1
  O  O488  1  0.08455889  0.98174435  0.07748224  1
  O  O489  1  0.08755206  0.98268932  0.32819514  1
  O  O490  1  0.08909266  0.98125647  0.57703931  1
  O  O491  1  0.08457978  0.98282343  0.82744849  1
  O  O492  1  0.58896836  0.31501486  0.07653279  1
  O  O493  1  0.58593309  0.31546485  0.32764329  1
  O  O494  1  0.58763897  0.31469973  0.57852207  1
  O  O495  1  0.58925293  0.31585984  0.82755489  1
  O  O496  1  0.58794482  0.64769357  0.07716546  1
  O  O497  1  0.58725216  0.64838724  0.32799319  1
  O  O498  1  0.58631310  0.64803959  0.57666301  1
  O  O499  1  0.58890779  0.64880672  0.82829083  1
  O  O500  1  0.58908476  0.98164518  0.07613602  1
  O  O501  1  0.58682793  0.98181405  0.32841698  1
  O  O502  1  0.58603963  0.98201790  0.57719758  1
  O  O503  1  0.58737029  0.98091483  0.82730557  1
  O  O504  1  0.41318568  0.01841145  0.17207378  1
  O  O505  1  0.41399524  0.01855853  0.42282730  1
  O  O506  1  0.41123735  0.01725637  0.67303804  1
  O  O507  1  0.41226655  0.01742804  0.92133169  1
  O  O508  1  0.41162377  0.35280264  0.17233217  1
  O  O509  1  0.41283748  0.35150135  0.42242967  1
  O  O510  1  0.41008781  0.35319890  0.67336860  1
  O  O511  1  0.41363130  0.35174142  0.92233712  1
  O  O512  1  0.41368727  0.68375247  0.17184986  1
  O  O513  1  0.41306607  0.68494289  0.42293932  1
  O  O514  1  0.41160978  0.68461366  0.67192424  1
  O  O515  1  0.41447703  0.68551620  0.92264902  1
  O  O516  1  0.90920871  0.01846066  0.17235580  1
  O  O517  1  0.91254170  0.01828723  0.42351703  1
  O  O518  1  0.91253032  0.01783521  0.67179652  1
  O  O519  1  0.91139669  0.01866644  0.92184406  1
  O  O520  1  0.91226740  0.35244715  0.17333712  1
  O  O521  1  0.91175061  0.35284466  0.42256526  1
  O  O522  1  0.91304999  0.35283226  0.67211667  1
  O  O523  1  0.91197572  0.35152163  0.92169676  1
  O  O524  1  0.91063441  0.68424576  0.17152720  1
  O  O525  1  0.91263227  0.68370824  0.42269604  1
  O  O526  1  0.91485510  0.68407166  0.67197575  1
  O  O527  1  0.91115939  0.68488294  0.92257560  1
  O  O528  1  0.16205706  0.01838408  0.20270858  1
  O  O529  1  0.16183785  0.01676645  0.45279478  1
  O  O530  1  0.16164496  0.01891838  0.70206799  1
  O  O531  1  0.16056190  0.01793871  0.95132859  1
  O  O532  1  0.16367944  0.35191510  0.20195483  1
  O  O533  1  0.16506337  0.35301975  0.45173085  1
  O  O534  1  0.16355474  0.35152910  0.70261763  1
  O  O535  1  0.16072685  0.35293096  0.95323099  1
  O  O536  1  0.16325748  0.68483776  0.20251798  1
  O  O537  1  0.16428739  0.68451733  0.45292821  1
  O  O538  1  0.16183241  0.68426571  0.70208564  1
  O  O539  1  0.16226588  0.68364931  0.95336162  1
  O  O540  1  0.66357350  0.01853752  0.20253090  1
  O  O541  1  0.66299798  0.01749788  0.45198102  1
  O  O542  1  0.66478986  0.01936717  0.70240349  1
  O  O543  1  0.66495050  0.01807754  0.95229534  1
  O  O544  1  0.66314949  0.35277480  0.20272885  1
  O  O545  1  0.66055821  0.35292482  0.45180418  1
  O  O546  1  0.66227941  0.35031594  0.70385245  1
  O  O547  1  0.66195636  0.35208900  0.95251936  1
  O  O548  1  0.66164987  0.68336333  0.20368271  1
  O  O549  1  0.66083596  0.68485923  0.45257140  1
  O  O550  1  0.66219130  0.68533296  0.70276057  1
  O  O551  1  0.66377073  0.68472157  0.95196595  1
  O  O552  1  0.33625244  0.31492461  0.04720646  1
  O  O553  1  0.33874603  0.31598846  0.29715312  1
  O  O554  1  0.33847567  0.31578386  0.54647790  1
  O  O555  1  0.33544023  0.31492931  0.79772153  1
  O  O556  1  0.33682091  0.64835734  0.04814137  1
  O  O557  1  0.34050719  0.64697375  0.29792912  1
  O  O558  1  0.33842633  0.64862920  0.54765230  1
  O  O559  1  0.33628403  0.64742922  0.79769830  1
  O  O560  1  0.33732989  0.98158607  0.04690489  1
  O  O561  1  0.33865233  0.98185688  0.29880343  1
  O  O562  1  0.33794660  0.98095724  0.54828577  1
  O  O563  1  0.33810296  0.98287335  0.79708782  1
  O  O564  1  0.83774169  0.31474259  0.04794639  1
  O  O565  1  0.83799993  0.31596382  0.29686396  1
  O  O566  1  0.83707811  0.31431491  0.54752701  1
  O  O567  1  0.83726517  0.31425698  0.79854965  1
  O  O568  1  0.83684699  0.64920721  0.04754969  1
  O  O569  1  0.83755509  0.64700092  0.29858624  1
  O  O570  1  0.83650337  0.64858679  0.54794554  1
  O  O571  1  0.83939525  0.64839986  0.79748609  1
  O  O572  1  0.83771247  0.98106598  0.04728516  1
  O  O573  1  0.83797212  0.98211993  0.29692547  1
  O  O574  1  0.83519976  0.98203262  0.54676783  1
  O  O575  1  0.83878421  0.98272867  0.79699942  1
  O  O576  1  0.41349108  0.14852699  0.17199841  1
  O  O577  1  0.41406204  0.14858976  0.42269962  1
  O  O578  1  0.41119124  0.14726805  0.67429333  1
  O  O579  1  0.41205629  0.14775991  0.92223398  1
  O  O580  1  0.41247776  0.48276665  0.17212907  1
  O  O581  1  0.41233196  0.48159166  0.42211304  1
  O  O582  1  0.41094634  0.48331308  0.67240281  1
  O  O583  1  0.41363427  0.48178976  0.92198324  1
  O  O584  1  0.41314292  0.81401025  0.17207205  1
  O  O585  1  0.41292273  0.81492598  0.42307931  1
  O  O586  1  0.41122445  0.81499104  0.67162642  1
  O  O587  1  0.41465414  0.81555981  0.92243028  1
  O  O588  1  0.90953319  0.14872380  0.17206507  1
  O  O589  1  0.91237766  0.14814297  0.42336412  1
  O  O590  1  0.91296362  0.14774698  0.67230977  1
  O  O591  1  0.91137782  0.14877092  0.92167986  1
  O  O592  1  0.91234613  0.48238353  0.17319252  1
  O  O593  1  0.91223720  0.48302227  0.42232808  1
  O  O594  1  0.91300934  0.48301206  0.67159099  1
  O  O595  1  0.91237592  0.48173923  0.92209152  1
  O  O596  1  0.91085331  0.81463558  0.17182566  1
  O  O597  1  0.91285703  0.81379219  0.42325059  1
  O  O598  1  0.91431582  0.81411097  0.67186840  1
  O  O599  1  0.91089168  0.81493802  0.92234216  1
  O  O600  1  0.08440146  0.18606039  0.07760589  1
  O  O601  1  0.08700201  0.18389941  0.32770377  1
  O  O602  1  0.08873418  0.18414755  0.57840602  1
  O  O603  1  0.08577916  0.18372784  0.82717945  1
  O  O604  1  0.08587371  0.51719305  0.07778047  1
  O  O605  1  0.08679461  0.51829125  0.32737793  1
  O  O606  1  0.08886252  0.51931371  0.57653552  1
  O  O607  1  0.08691619  0.51839586  0.82719502  1
  O  O608  1  0.08416486  0.85168731  0.07729180  1
  O  O609  1  0.08815655  0.85228413  0.32756100  1
  O  O610  1  0.08904753  0.85119364  0.57716842  1
  O  O611  1  0.08543602  0.85290953  0.82746082  1
  O  O612  1  0.58853907  0.18515303  0.07603177  1
  O  O613  1  0.58643156  0.18530616  0.32809700  1
  O  O614  1  0.58717726  0.18458719  0.57839245  1
  O  O615  1  0.58972578  0.18576199  0.82693870  1
  O  O616  1  0.58794237  0.51799116  0.07721492  1
  O  O617  1  0.58739772  0.51832757  0.32753887  1
  O  O618  1  0.58594554  0.51822589  0.57642817  1
  O  O619  1  0.58876931  0.51843913  0.82803522  1
  O  O620  1  0.58918706  0.85185557  0.07650815  1
  O  O621  1  0.58690972  0.85156416  0.32876485  1
  O  O622  1  0.58615595  0.85222994  0.57704597  1
  O  O623  1  0.58746226  0.85063630  0.82801945  1
  O  O624  1  0.33611829  0.18487377  0.04761212  1
  O  O625  1  0.33883174  0.18596127  0.29850725  1
  O  O626  1  0.33870351  0.18553385  0.54735624  1
  O  O627  1  0.33510132  0.18480090  0.79783637  1
  O  O628  1  0.33708757  0.51857194  0.04801808  1
  O  O629  1  0.33955473  0.51698813  0.29685473  1
  O  O630  1  0.33883863  0.51860502  0.54707954  1
  O  O631  1  0.33607928  0.51733902  0.79712376  1
  O  O632  1  0.33734072  0.85146596  0.04682479  1
  O  O633  1  0.33907209  0.85198049  0.29842411  1
  O  O634  1  0.33780115  0.85091897  0.54769827  1
  O  O635  1  0.33903887  0.85284637  0.79786304  1
  O  O636  1  0.83740577  0.18464780  0.04715983  1
  O  O637  1  0.83841312  0.18567683  0.29642610  1
  O  O638  1  0.83706950  0.18416632  0.54673685  1
  O  O639  1  0.83749635  0.18438855  0.79761471  1
  O  O640  1  0.83748718  0.51925501  0.04804413  1
  O  O641  1  0.83714965  0.51717747  0.29818022  1
  O  O642  1  0.83649908  0.51868226  0.54793552  1
  O  O643  1  0.83943750  0.51852165  0.79755969  1
  O  O644  1  0.83726103  0.85079587  0.04729704  1
  O  O645  1  0.83779728  0.85197790  0.29775445  1
  O  O646  1  0.83500292  0.85204066  0.54761760  1
  O  O647  1  0.83916026  0.85270535  0.79784838  1
  O  O648  1  0.16198275  0.14843745  0.20290326  1
  O  O649  1  0.16083465  0.14680464  0.45230904  1
  O  O650  1  0.16194255  0.14906408  0.70268127  1
  O  O651  1  0.15996317  0.14781941  0.95190017  1
  O  O652  1  0.16404353  0.48176262  0.20183569  1
  O  O653  1  0.16517296  0.48311224  0.45189527  1
  O  O654  1  0.16398411  0.48170013  0.70223307  1
  O  O655  1  0.16122221  0.48314468  0.95397445  1
  O  O656  1  0.16317093  0.81484898  0.20223823  1
  O  O657  1  0.16408673  0.81471759  0.45307438  1
  O  O658  1  0.16136857  0.81434939  0.70180639  1
  O  O659  1  0.16207849  0.81391133  0.95221994  1
  O  O660  1  0.66350472  0.14873264  0.20251778  1
  O  O661  1  0.66265931  0.14746525  0.45155325  1
  O  O662  1  0.66505706  0.14934133  0.70277179  1
  O  O663  1  0.66482709  0.14812776  0.95263816  1
  O  O664  1  0.66321843  0.48285599  0.20325663  1
  O  O665  1  0.66128068  0.48295333  0.45230298  1
  O  O666  1  0.66173639  0.48047879  0.70269468  1
  O  O667  1  0.66198697  0.48218945  0.95221907  1
  O  O668  1  0.66140651  0.81371809  0.20320019  1
  O  O669  1  0.66081383  0.81498902  0.45269743  1
  O  O670  1  0.66226215  0.81533942  0.70321105  1
  O  O671  1  0.66385022  0.81471798  0.95202164  1
