# generated using pymatgen
data_Na2MnFe(PO4)2
_symmetry_space_group_name_H-M   'P 1'
_cell_length_a   21.07966771
_cell_length_b   18.93183235
_cell_length_c   20.03887907
_cell_angle_alpha   90.00057696
_cell_angle_beta   89.99968319
_cell_angle_gamma   90.00138250
_symmetry_Int_Tables_number   1
_chemical_formula_structural   Na2MnFe(PO4)2
_chemical_formula_sum   'Na96 Mn48 Fe48 P96 O384'
_cell_volume   7997.05042763
_cell_formula_units_Z   48
loop_
 _symmetry_equiv_pos_site_id
 _symmetry_equiv_pos_as_xyz
  1  'x, y, z'
loop_
 _atom_site_type_symbol
 _atom_site_label
 _atom_site_symmetry_multiplicity
 _atom_site_fract_x
 _atom_site_fract_y
 _atom_site_fract_z
 _atom_site_occupancy
  Na  Na0  1  -0.00223842  0.00000232  0.00102253  1
  Na  Na1  1  -0.00218348  -0.00038909  0.25091788  1
  Na  Na2  1  0.00111875  0.00063268  0.49900480  1
  Na  Na3  1  -0.00108863  -0.00001404  0.74978886  1
  Na  Na4  1  -0.00270913  0.33299956  0.00050492  1
  Na  Na5  1  -0.00117920  0.33419011  0.25038959  1
  Na  Na6  1  -0.00156610  0.33336520  0.49890951  1
  Na  Na7  1  -0.00116900  0.33333711  0.74973005  1
  Na  Na8  1  -0.00027803  0.66699533  0.00083744  1
  Na  Na9  1  -0.00154619  0.66634029  0.24911453  1
  Na  Na10  1  -0.00060227  0.66589808  0.49957020  1
  Na  Na11  1  0.00088266  0.66681734  0.75025785  1
  Na  Na12  1  0.50341478  0.00122693  -0.00061227  1
  Na  Na13  1  0.50112793  0.00083550  0.24979092  1
  Na  Na14  1  0.50052371  0.00108050  0.49988588  1
  Na  Na15  1  0.50069679  0.00012606  0.75046487  1
  Na  Na16  1  0.50180366  0.33363684  -0.00094752  1
  Na  Na17  1  0.50029561  0.33318680  0.25096555  1
  Na  Na18  1  0.49945989  0.33293566  0.50071766  1
  Na  Na19  1  0.50167809  0.33403074  0.74948990  1
  Na  Na20  1  0.49927145  0.66582303  0.00153009  1
  Na  Na21  1  0.49815147  0.66604595  0.24943751  1
  Na  Na22  1  0.49715359  0.66590833  0.49919987  1
  Na  Na23  1  0.49957611  0.66665486  0.75044121  1
  Na  Na24  1  0.25064458  0.00042978  0.12419026  1
  Na  Na25  1  0.25140549  0.00067196  0.37465553  1
  Na  Na26  1  0.25017052  0.00035936  0.62590147  1
  Na  Na27  1  0.24913243  0.00043106  0.87521908  1
  Na  Na28  1  0.25000837  0.33275004  0.12502690  1
  Na  Na29  1  0.25269050  0.33363871  0.37405907  1
  Na  Na30  1  0.25357180  0.33389008  0.62432874  1
  Na  Na31  1  0.25132412  0.33370491  0.87513815  1
  Na  Na32  1  0.25313642  0.66715495  0.12499325  1
  Na  Na33  1  0.25266574  0.66683426  0.37431936  1
  Na  Na34  1  0.25238002  0.66670483  0.62570170  1
  Na  Na35  1  0.25128972  0.66624786  0.87457949  1
  Na  Na36  1  0.74963941  -0.00011216  0.12487466  1
  Na  Na37  1  0.74899988  0.00074295  0.37488819  1
  Na  Na38  1  0.74869908  0.00068087  0.62509194  1
  Na  Na39  1  0.75027104  0.00047250  0.87541857  1
  Na  Na40  1  0.75122894  0.33502152  0.12572253  1
  Na  Na41  1  0.74958893  0.33381685  0.37490640  1
  Na  Na42  1  0.74798420  0.33337814  0.62554795  1
  Na  Na43  1  0.74798197  0.33323915  0.87487345  1
  Na  Na44  1  0.75054336  0.66687666  0.12504412  1
  Na  Na45  1  0.75022018  0.66640300  0.37662238  1
  Na  Na46  1  0.75038161  0.66700752  0.62458116  1
  Na  Na47  1  0.74871913  0.66632835  0.87364432  1
  Na  Na48  1  -0.00184447  0.16683107  0.00083372  1
  Na  Na49  1  -0.00293536  0.16774019  0.24984990  1
  Na  Na50  1  -0.00040054  0.16701145  0.49900214  1
  Na  Na51  1  0.00008476  0.16656774  0.74993698  1
  Na  Na52  1  -0.00051220  0.49934814  0.00022799  1
  Na  Na53  1  -0.00128160  0.49947556  0.24997935  1
  Na  Na54  1  -0.00274863  0.50032632  0.49963694  1
  Na  Na55  1  -0.00178610  0.50017604  0.74969268  1
  Na  Na56  1  -0.00339168  0.83425864  0.00117034  1
  Na  Na57  1  -0.00119091  0.83309424  0.25050191  1
  Na  Na58  1  0.00236998  0.83230554  0.49899107  1
  Na  Na59  1  -0.00014330  0.83349328  0.74994069  1
  Na  Na60  1  0.50124748  0.16617029  -0.00061955  1
  Na  Na61  1  0.49868213  0.16722134  0.25129539  1
  Na  Na62  1  0.49891089  0.16691503  0.50053596  1
  Na  Na63  1  0.50109865  0.16607289  0.74956303  1
  Na  Na64  1  0.50203320  0.50006520  -0.00005306  1
  Na  Na65  1  0.50145758  0.50009599  0.24952529  1
  Na  Na66  1  0.49950147  0.50005671  0.49995428  1
  Na  Na67  1  0.49933375  0.50044015  0.75039111  1
  Na  Na68  1  0.50170065  0.83279313  0.00061789  1
  Na  Na69  1  0.49859756  0.83357094  0.24931488  1
  Na  Na70  1  0.49947479  0.83252042  0.49943463  1
  Na  Na71  1  0.50184458  0.83223753  0.75050226  1
  Na  Na72  1  0.25260885  0.16608876  0.12476568  1
  Na  Na73  1  0.25351295  0.16670128  0.37481277  1
  Na  Na74  1  0.25383425  0.16591431  0.62523349  1
  Na  Na75  1  0.24948653  0.16748612  0.87450045  1
  Na  Na76  1  0.25021120  0.50019757  0.12396116  1
  Na  Na77  1  0.25240083  0.49967083  0.37408804  1
  Na  Na78  1  0.25376076  0.49950941  0.62457145  1
  Na  Na79  1  0.25181946  0.49976288  0.87586029  1
  Na  Na80  1  0.25171452  0.83205130  0.12541676  1
  Na  Na81  1  0.24939634  0.83314134  0.37429164  1
  Na  Na82  1  0.24908601  0.83294162  0.62607211  1
  Na  Na83  1  0.24981323  0.83296154  0.87475868  1
  Na  Na84  1  0.75191394  0.16522728  0.12553444  1
  Na  Na85  1  0.74784638  0.16751351  0.37491534  1
  Na  Na86  1  0.74743130  0.16714388  0.62508002  1
  Na  Na87  1  0.74853801  0.16669929  0.87498195  1
  Na  Na88  1  0.74788694  0.50055173  0.12562698  1
  Na  Na89  1  0.75055998  0.49906095  0.37630628  1
  Na  Na90  1  0.74979965  0.49942530  0.62487546  1
  Na  Na91  1  0.74911454  0.49963602  0.87423580  1
  Na  Na92  1  0.75177495  0.83257306  0.12452940  1
  Na  Na93  1  0.75065047  0.83277619  0.37541192  1
  Na  Na94  1  0.74881894  0.83354108  0.62534001  1
  Na  Na95  1  0.74966607  0.83337105  0.87453849  1
  Mn  Mn96  1  0.39313044  0.91729329  0.12656104  1
  Mn  Mn97  1  0.10876011  0.08362995  0.37238574  1
  Mn  Mn98  1  0.10764892  0.41645559  0.87244828  1
  Mn  Mn99  1  0.39174424  0.91671232  0.37776995  1
  Mn  Mn100  1  0.60694542  0.74971517  0.37229356  1
  Mn  Mn101  1  0.14164674  0.24983839  0.99835967  1
  Mn  Mn102  1  0.14161708  0.91709303  0.74857173  1
  Mn  Mn103  1  0.64113504  0.91720431  0.49744584  1
  Mn  Mn104  1  0.85711828  0.08361514  0.75183277  1
  Mn  Mn105  1  0.10786387  0.41718041  0.37321543  1
  Mn  Mn106  1  0.64183791  0.25043153  0.24730972  1
  Mn  Mn107  1  0.10721180  0.74967039  0.12264527  1
  Mn  Mn108  1  0.35850476  0.08269860  0.00175187  1
  Mn  Mn109  1  0.64201295  0.91688933  0.74757039  1
  Mn  Mn110  1  0.14266971  0.25077559  0.74744652  1
  Mn  Mn111  1  0.64266134  0.24994255  0.99843285  1
  Mn  Mn112  1  0.14262790  0.58291840  0.24797263  1
  Mn  Mn113  1  0.14310472  0.24989557  0.24780412  1
  Mn  Mn114  1  0.35899151  0.41644699  0.25146906  1
  Mn  Mn115  1  0.85765698  0.75023485  0.75216408  1
  Mn  Mn116  1  0.14315389  0.58307452  0.49757364  1
  Mn  Mn117  1  0.14119091  0.91632386  0.99822544  1
  Mn  Mn118  1  0.64179805  0.58302652  0.49785878  1
  Mn  Mn119  1  0.89102535  0.24947840  0.87719491  1
  Mn  Mn120  1  0.14373964  0.25008616  0.49808227  1
  Mn  Mn121  1  0.14292515  0.58353790  0.99809432  1
  Mn  Mn122  1  0.10685566  0.08405219  0.12344423  1
  Mn  Mn123  1  0.39313923  0.91603243  0.87801395  1
  Mn  Mn124  1  0.64257434  0.91569541  0.24773900  1
  Mn  Mn125  1  0.64121178  0.58319048  0.74704319  1
  Mn  Mn126  1  0.85656392  0.41630340  0.75175261  1
  Mn  Mn127  1  0.85795170  0.74995282  0.50278960  1
  Mn  Mn128  1  0.89256389  0.91685547  0.62660925  1
  Mn  Mn129  1  0.14322034  0.58227699  0.74822007  1
  Mn  Mn130  1  0.35903453  0.41666768  0.00285209  1
  Mn  Mn131  1  0.10823915  0.74928159  0.62237255  1
  Mn  Mn132  1  0.89115289  0.25053872  0.37777370  1
  Mn  Mn133  1  0.89076843  0.58309438  0.12746162  1
  Mn  Mn134  1  0.89170337  0.58387343  0.87777582  1
  Mn  Mn135  1  0.10837365  0.08436621  0.62261239  1
  Mn  Mn136  1  0.60820191  0.75012017  0.12275905  1
  Mn  Mn137  1  0.14265068  0.91709640  0.24712769  1
  Mn  Mn138  1  0.39197394  0.91658139  0.62757444  1
  Mn  Mn139  1  0.89240983  0.91614669  0.37777992  1
  Mn  Mn140  1  0.39362322  0.25019003  0.87714499  1
  Mn  Mn141  1  0.10822870  0.41647525  0.62256320  1
  Mn  Mn142  1  0.35856577  0.75030541  0.75323108  1
  Mn  Mn143  1  0.85658829  0.08418134  0.50231760  1
  Fe  Fe144  1  0.60706288  0.41674147  0.37384044  1
  Fe  Fe145  1  0.60621728  0.08314508  0.62290753  1
  Fe  Fe146  1  0.39402371  0.58240063  0.12676654  1
  Fe  Fe147  1  0.85625758  0.41699387  0.00174663  1
  Fe  Fe148  1  0.85716252  0.74938194  0.25251680  1
  Fe  Fe149  1  0.39312979  0.58320618  0.62675128  1
  Fe  Fe150  1  0.60779025  0.74982260  0.87397691  1
  Fe  Fe151  1  0.10713211  0.75046383  0.87454349  1
  Fe  Fe152  1  0.89193283  0.58362592  0.37646822  1
  Fe  Fe153  1  0.60793331  0.41619747  0.12349108  1
  Fe  Fe154  1  0.60623977  0.08357224  0.37319686  1
  Fe  Fe155  1  0.35890724  0.41602613  0.75216995  1
  Fe  Fe156  1  0.85620355  0.41591943  0.50230863  1
  Fe  Fe157  1  0.60842591  0.08323384  0.87298276  1
  Fe  Fe158  1  0.39309480  0.58252940  0.37636996  1
  Fe  Fe159  1  0.35788678  0.08336373  0.75256971  1
  Fe  Fe160  1  0.60763363  0.41689956  0.87313332  1
  Fe  Fe161  1  0.64253971  0.58429906  0.99836339  1
  Fe  Fe162  1  0.39347235  0.25019136  0.12598999  1
  Fe  Fe163  1  0.10621512  0.41633766  0.12345874  1
  Fe  Fe164  1  0.89215701  0.91661093  0.87682862  1
  Fe  Fe165  1  0.35815017  0.75046349  0.00125776  1
  Fe  Fe166  1  0.85698614  0.74964248  0.00087015  1
  Fe  Fe167  1  0.14337605  0.91672632  0.49865509  1
  Fe  Fe168  1  0.89121575  0.91720374  0.12740815  1
  Fe  Fe169  1  0.85637719  0.41739301  0.25212741  1
  Fe  Fe170  1  0.39367325  0.25064276  0.37722250  1
  Fe  Fe171  1  0.35765732  0.75050576  0.25177560  1
  Fe  Fe172  1  0.39393853  0.58354448  0.87717501  1
  Fe  Fe173  1  0.85628288  0.08334094  0.25222056  1
  Fe  Fe174  1  0.35688489  0.75049400  0.50188318  1
  Fe  Fe175  1  0.35889825  0.08261119  0.25118511  1
  Fe  Fe176  1  0.89157237  0.25010341  0.12706303  1
  Fe  Fe177  1  0.85697454  0.08338423  0.00188236  1
  Fe  Fe178  1  0.60661346  0.74980978  0.62313150  1
  Fe  Fe179  1  0.64391079  0.91596849  0.99829457  1
  Fe  Fe180  1  0.10640707  0.08309958  0.87391660  1
  Fe  Fe181  1  0.39397756  0.25033589  0.62707125  1
  Fe  Fe182  1  0.60793017  0.08397434  0.12365526  1
  Fe  Fe183  1  0.60608420  0.41697352  0.62266555  1
  Fe  Fe184  1  0.64157126  0.25032212  0.49867781  1
  Fe  Fe185  1  0.89153029  0.25017541  0.62646974  1
  Fe  Fe186  1  0.64183957  0.24986828  0.74767008  1
  Fe  Fe187  1  0.64268147  0.58387862  0.24928275  1
  Fe  Fe188  1  0.89249135  0.58299307  0.62675050  1
  Fe  Fe189  1  0.35912895  0.41693793  0.50171843  1
  Fe  Fe190  1  0.35805485  0.08266693  0.50219162  1
  Fe  Fe191  1  0.10780391  0.74900589  0.37311599  1
  P  P192  1  0.05139112  0.25092690  0.11076219  1
  P  P193  1  0.05344174  0.25049540  0.35977742  1
  P  P194  1  0.05183628  0.25055382  0.60926828  1
  P  P195  1  0.05277658  0.24908418  0.86005963  1
  P  P196  1  0.05278911  0.58216954  0.11026818  1
  P  P197  1  0.05209282  0.58372837  0.35983581  1
  P  P198  1  0.05241036  0.58244751  0.60973258  1
  P  P199  1  0.05335487  0.58399986  0.86028724  1
  P  P200  1  0.05108082  0.91692008  0.11072670  1
  P  P201  1  0.05552964  0.91565789  0.36100136  1
  P  P202  1  0.05430758  0.91703549  0.60893578  1
  P  P203  1  0.05161280  0.91685776  0.86092499  1
  P  P204  1  0.55262710  0.24985464  0.11000434  1
  P  P205  1  0.55372786  0.25018591  0.36188374  1
  P  P206  1  0.55386206  0.24996421  0.61081538  1
  P  P207  1  0.55508754  0.24994426  0.85979289  1
  P  P208  1  0.55503302  0.58287169  0.11108330  1
  P  P209  1  0.55265271  0.58263912  0.35956456  1
  P  P210  1  0.55182200  0.58353194  0.60979511  1
  P  P211  1  0.55421186  0.58391049  0.86161542  1
  P  P212  1  0.55490546  0.91749995  0.10934991  1
  P  P213  1  0.55277784  0.91724516  0.35960436  1
  P  P214  1  0.55279356  0.91650953  0.60997447  1
  P  P215  1  0.55556379  0.91611427  0.86164767  1
  P  P216  1  0.44821520  0.08408240  0.13997014  1
  P  P217  1  0.44594951  0.08396355  0.38955300  1
  P  P218  1  0.44584171  0.08376229  0.63962146  1
  P  P219  1  0.44796894  0.08327384  0.88885414  1
  P  P220  1  0.44901690  0.41650979  0.13933560  1
  P  P221  1  0.44768785  0.41689175  0.39032481  1
  P  P222  1  0.44630507  0.41676339  0.63919700  1
  P  P223  1  0.44767309  0.41729162  0.88906437  1
  P  P224  1  0.44532089  0.74940648  0.13914982  1
  P  P225  1  0.44445227  0.74912717  0.38909242  1
  P  P226  1  0.44638472  0.74952417  0.63896612  1
  P  P227  1  0.44818103  0.74927309  0.89112374  1
  P  P228  1  0.94352834  0.08346956  0.13982274  1
  P  P229  1  0.94534509  0.08348531  0.38915154  1
  P  P230  1  0.94638214  0.08456359  0.63960707  1
  P  P231  1  0.94627076  0.08265788  0.89060772  1
  P  P232  1  0.94443165  0.41622997  0.13959241  1
  P  P233  1  0.94380228  0.41791853  0.38948201  1
  P  P234  1  0.94478109  0.41612801  0.63852027  1
  P  P235  1  0.94518776  0.41655018  0.89068426  1
  P  P236  1  0.94364514  0.75050446  0.13955882  1
  P  P237  1  0.94642379  0.74884898  0.38891157  1
  P  P238  1  0.94690770  0.74921394  0.63999715  1
  P  P239  1  0.94699684  0.75072098  0.89065664  1
  P  P240  1  0.19896144  0.08380833  0.23455911  1
  P  P241  1  0.19886682  0.08331222  0.48511372  1
  P  P242  1  0.19679058  0.08383271  0.73628998  1
  P  P243  1  0.19585114  0.08354157  0.98441026  1
  P  P244  1  0.19653746  0.41663279  0.23402504  1
  P  P245  1  0.19955178  0.41666169  0.48475171  1
  P  P246  1  0.19925450  0.41670683  0.73459016  1
  P  P247  1  0.19608166  0.41643980  0.98592434  1
  P  P248  1  0.19694503  0.74926633  0.23570669  1
  P  P249  1  0.19760614  0.74984548  0.48443535  1
  P  P250  1  0.19561521  0.74952960  0.73658136  1
  P  P251  1  0.19771186  0.74968061  0.98457849  1
  P  P252  1  0.69562713  0.08337013  0.23572144  1
  P  P253  1  0.69365966  0.08469968  0.48536217  1
  P  P254  1  0.69427562  0.08404117  0.73521755  1
  P  P255  1  0.69618931  0.08281313  0.98610389  1
  P  P256  1  0.69546900  0.41782091  0.23643927  1
  P  P257  1  0.69495575  0.41585193  0.48590795  1
  P  P258  1  0.69359116  0.41607781  0.73511813  1
  P  P259  1  0.69552295  0.41744887  0.98587362  1
  P  P260  1  0.69804176  0.74895788  0.23536907  1
  P  P261  1  0.69502716  0.74985680  0.48594143  1
  P  P262  1  0.69463322  0.74987426  0.73492309  1
  P  P263  1  0.69746130  0.74991501  0.98470418  1
  P  P264  1  0.30455183  0.24989955  0.01557062  1
  P  P265  1  0.30672379  0.24924742  0.26407682  1
  P  P266  1  0.30689291  0.25018842  0.51434584  1
  P  P267  1  0.30585013  0.25010370  0.76384497  1
  P  P268  1  0.30647622  0.58421434  0.01444878  1
  P  P269  1  0.30607184  0.58343816  0.26386091  1
  P  P270  1  0.30611546  0.58342228  0.51406776  1
  P  P271  1  0.30662442  0.58213667  0.76495452  1
  P  P272  1  0.30314685  0.91576955  0.01489647  1
  P  P273  1  0.30412623  0.91684607  0.26454735  1
  P  P274  1  0.30226927  0.91617291  0.51519215  1
  P  P275  1  0.30367744  0.91758180  0.76573770  1
  P  P276  1  0.80328836  0.25019933  0.01571785  1
  P  P277  1  0.80398247  0.25022905  0.26388559  1
  P  P278  1  0.80139919  0.25082832  0.51575765  1
  P  P279  1  0.80190496  0.24999156  0.76393218  1
  P  P280  1  0.80145447  0.58325872  0.01466097  1
  P  P281  1  0.80223852  0.58321008  0.26587585  1
  P  P282  1  0.80470007  0.58223722  0.51475732  1
  P  P283  1  0.80378540  0.58319730  0.76379051  1
  P  P284  1  0.80416355  0.91653389  0.01397245  1
  P  P285  1  0.80439714  0.91664441  0.26420949  1
  P  P286  1  0.80243336  0.91708841  0.51536178  1
  P  P287  1  0.80375586  0.91699664  0.76559951  1
  O  O288  1  0.05574072  0.25039809  0.18737968  1
  O  O289  1  0.05756921  0.25030552  0.43653461  1
  O  O290  1  0.05624099  0.25070364  0.68600977  1
  O  O291  1  0.05570917  0.24999910  0.93685308  1
  O  O292  1  0.05619301  0.58278531  0.18702011  1
  O  O293  1  0.05631357  0.58304694  0.43653704  1
  O  O294  1  0.05689919  0.58218942  0.68640486  1
  O  O295  1  0.05664817  0.58319300  0.93708573  1
  O  O296  1  0.05556136  0.91674480  0.18743184  1
  O  O297  1  0.06038845  0.91666282  0.43776669  1
  O  O298  1  0.05692590  0.91719703  0.68581993  1
  O  O299  1  0.05473135  0.91675892  0.93767244  1
  O  O300  1  0.55554672  0.24980149  0.18725985  1
  O  O301  1  0.55764398  0.25022929  0.43846900  1
  O  O302  1  0.55786406  0.24995900  0.68756643  1
  O  O303  1  0.55777089  0.24974863  0.93605700  1
  O  O304  1  0.55945744  0.58406384  0.18781095  1
  O  O305  1  0.55609283  0.58350004  0.43623441  1
  O  O306  1  0.55505462  0.58358888  0.68663009  1
  O  O307  1  0.55869608  0.58394703  0.93828743  1
  O  O308  1  0.55734078  0.91637423  0.18619772  1
  O  O309  1  0.55554029  0.91645455  0.43638374  1
  O  O310  1  0.55569752  0.91654008  0.68678804  1
  O  O311  1  0.55989456  0.91629399  0.93839073  1
  O  O312  1  0.44481345  0.08314977  0.06327071  1
  O  O313  1  0.44188786  0.08279811  0.31279544  1
  O  O314  1  0.44122111  0.08261761  0.56285119  1
  O  O315  1  0.44280036  0.08297781  0.81219066  1
  O  O316  1  0.44586287  0.41668822  0.06308214  1
  O  O317  1  0.44468669  0.41687537  0.31322272  1
  O  O318  1  0.44235469  0.41668424  0.56247520  1
  O  O319  1  0.44335199  0.41657967  0.81220551  1
  O  O320  1  0.44177535  0.75048940  0.06238444  1
  O  O321  1  0.44089556  0.75048873  0.31225258  1
  O  O322  1  0.44141964  0.75053659  0.56232820  1
  O  O323  1  0.44463238  0.75023468  0.81431542  1
  O  O324  1  0.93980535  0.08335779  0.06294416  1
  O  O325  1  0.94036753  0.08359125  0.31242202  1
  O  O326  1  0.94314143  0.08404551  0.56283770  1
  O  O327  1  0.94281935  0.08354472  0.81388160  1
  O  O328  1  0.93960194  0.41725263  0.06282923  1
  O  O329  1  0.93959274  0.41707945  0.31268182  1
  O  O330  1  0.94068697  0.41581879  0.56175336  1
  O  O331  1  0.94175911  0.41656618  0.81389490  1
  O  O332  1  0.93934643  0.74945596  0.06275015  1
  O  O333  1  0.94132658  0.74943887  0.31220995  1
  O  O334  1  0.94405147  0.74979271  0.56316122  1
  O  O335  1  0.94353494  0.74988568  0.81394445  1
  O  O336  1  0.19243452  0.08364687  0.06122326  1
  O  O337  1  0.19505959  0.08416299  0.31127900  1
  O  O338  1  0.19501774  0.08420670  0.56185325  1
  O  O339  1  0.19105356  0.08382968  0.81287722  1
  O  O340  1  0.19071955  0.41623766  0.06275549  1
  O  O341  1  0.19347355  0.41674203  0.31075828  1
  O  O342  1  0.19519094  0.41673694  0.56144058  1
  O  O343  1  0.19455320  0.41672134  0.81127836  1
  O  O344  1  0.19359777  0.74960657  0.06135746  1
  O  O345  1  0.19180403  0.74879938  0.31234474  1
  O  O346  1  0.19422558  0.74872561  0.56126771  1
  O  O347  1  0.19067306  0.74958718  0.81329148  1
  O  O348  1  0.69168402  0.08367921  0.06287060  1
  O  O349  1  0.69034500  0.08382598  0.31236851  1
  O  O350  1  0.68945731  0.08363674  0.56217925  1
  O  O351  1  0.69091022  0.08327209  0.81214167  1
  O  O352  1  0.69116477  0.41662829  0.06271151  1
  O  O353  1  0.69063479  0.41669436  0.31311498  1
  O  O354  1  0.68983091  0.41683634  0.56261920  1
  O  O355  1  0.68992610  0.41710590  0.81201136  1
  O  O356  1  0.69420187  0.74985116  0.06130800  1
  O  O357  1  0.69394323  0.74964107  0.31208890  1
  O  O358  1  0.69012603  0.74969900  0.56268927  1
  O  O359  1  0.69056253  0.74956070  0.81172074  1
  O  O360  1  0.31084531  0.25029833  0.18729950  1
  O  O361  1  0.31050513  0.25057515  0.43744342  1
  O  O362  1  0.31019290  0.25015006  0.68705842  1
  O  O363  1  0.30803260  0.25031798  0.93874628  1
  O  O364  1  0.31020293  0.58221723  0.18709156  1
  O  O365  1  0.30964178  0.58273724  0.43722696  1
  O  O366  1  0.31060648  0.58318355  0.68807782  1
  O  O367  1  0.31055865  0.58312433  0.93762005  1
  O  O368  1  0.30721353  0.91694224  0.18778835  1
  O  O369  1  0.30564442  0.91631531  0.43847803  1
  O  O370  1  0.30673466  0.91674585  0.68893536  1
  O  O371  1  0.30645790  0.91652310  0.93813946  1
  O  O372  1  0.80762767  0.25030281  0.18723495  1
  O  O373  1  0.80522017  0.25022866  0.43899202  1
  O  O374  1  0.80682291  0.24990087  0.68732099  1
  O  O375  1  0.80525041  0.25007032  0.93867086  1
  O  O376  1  0.80519988  0.58307136  0.18923751  1
  O  O377  1  0.80850552  0.58330850  0.43798264  1
  O  O378  1  0.80835048  0.58327559  0.68708235  1
  O  O379  1  0.80479692  0.58304323  0.93789897  1
  O  O380  1  0.80741315  0.91679647  0.18734233  1
  O  O381  1  0.80604085  0.91694552  0.43853769  1
  O  O382  1  0.80700650  0.91701151  0.68883786  1
  O  O383  1  0.80835891  0.91675169  0.93721351  1
  O  O384  1  0.23468527  0.24935658  0.04025994  1
  O  O385  1  0.23674335  0.25028377  0.28840609  1
  O  O386  1  0.23694724  0.24986651  0.53908009  1
  O  O387  1  0.23590756  0.25049228  0.78823698  1
  O  O388  1  0.23633243  0.58382351  0.03854056  1
  O  O389  1  0.23609198  0.58293407  0.28816851  1
  O  O390  1  0.23620722  0.58338482  0.53896337  1
  O  O391  1  0.23660154  0.58275079  0.78915127  1
  O  O392  1  0.23354822  0.91601553  0.04033254  1
  O  O393  1  0.23452041  0.91696739  0.28990691  1
  O  O394  1  0.23242506  0.91631017  0.54047747  1
  O  O395  1  0.23398366  0.91709872  0.79077735  1
  O  O396  1  0.73395623  0.25011053  0.04161807  1
  O  O397  1  0.73384245  0.25053277  0.28853689  1
  O  O398  1  0.73122042  0.25055037  0.53994270  1
  O  O399  1  0.73165632  0.24997936  0.78785544  1
  O  O400  1  0.73152003  0.58385146  0.03977646  1
  O  O401  1  0.73228998  0.58295236  0.29119383  1
  O  O402  1  0.73458469  0.58296828  0.53892237  1
  O  O403  1  0.73359479  0.58289243  0.78750837  1
  O  O404  1  0.73377948  0.91622963  0.03807461  1
  O  O405  1  0.73462860  0.91649256  0.28939756  1
  O  O406  1  0.73268451  0.91707774  0.54015004  1
  O  O407  1  0.73391273  0.91692589  0.79021887  1
  O  O408  1  0.26906529  0.08330939  0.21018266  1
  O  O409  1  0.26910249  0.08362792  0.46085736  1
  O  O410  1  0.26729564  0.08348363  0.71303696  1
  O  O411  1  0.26578429  0.08377384  0.95981520  1
  O  O412  1  0.26660562  0.41654131  0.20936223  1
  O  O413  1  0.26979506  0.41681099  0.46070377  1
  O  O414  1  0.26950929  0.41648898  0.71080963  1
  O  O415  1  0.26625859  0.41666800  0.96270318  1
  O  O416  1  0.26743253  0.74951771  0.21244551  1
  O  O417  1  0.26772157  0.74968452  0.45993231  1
  O  O418  1  0.26590184  0.74977217  0.71307568  1
  O  O419  1  0.26788140  0.74963687  0.96034154  1
  O  O420  1  0.76605235  0.08301814  0.21254224  1
  O  O421  1  0.76372742  0.08410339  0.46128325  1
  O  O422  1  0.76418423  0.08355590  0.71076151  1
  O  O423  1  0.76670439  0.08345559  0.96244874  1
  O  O424  1  0.76587616  0.41753998  0.21294761  1
  O  O425  1  0.76542459  0.41615732  0.46265077  1
  O  O426  1  0.76357051  0.41673190  0.71100839  1
  O  O427  1  0.76588570  0.41655564  0.96189765  1
  O  O428  1  0.76807702  0.74934561  0.21091225  1
  O  O429  1  0.76523934  0.74966637  0.46246801  1
  O  O430  1  0.76470219  0.75027954  0.71099316  1
  O  O431  1  0.76751991  0.74989792  0.95971111  1
  O  O432  1  0.01352915  0.08354436  0.16443637  1
  O  O433  1  0.01556371  0.08369217  0.41264197  1
  O  O434  1  0.01603185  0.08383678  0.66488170  1
  O  O435  1  0.01618660  0.08317693  0.91562342  1
  O  O436  1  0.01481956  0.41664273  0.16329960  1
  O  O437  1  0.01396127  0.41697821  0.41345780  1
  O  O438  1  0.01467767  0.41648870  0.66330645  1
  O  O439  1  0.01504543  0.41622740  0.91527825  1
  O  O440  1  0.01386230  0.74975007  0.16341901  1
  O  O441  1  0.01673856  0.74897739  0.41260483  1
  O  O442  1  0.01652945  0.74976138  0.66532023  1
  O  O443  1  0.01695854  0.75066215  0.91568433  1
  O  O444  1  0.51825472  0.08373353  0.16481584  1
  O  O445  1  0.51624802  0.08377450  0.41351698  1
  O  O446  1  0.51639070  0.08340896  0.66287676  1
  O  O447  1  0.51843381  0.08366532  0.91215620  1
  O  O448  1  0.51889117  0.41665857  0.16493636  1
  O  O449  1  0.51765021  0.41665769  0.41510328  1
  O  O450  1  0.51672203  0.41682949  0.66312033  1
  O  O451  1  0.51802916  0.41677254  0.91289101  1
  O  O452  1  0.51536588  0.74985919  0.16357343  1
  O  O453  1  0.51446479  0.74932705  0.41341039  1
  O  O454  1  0.51665201  0.74950194  0.66297778  1
  O  O455  1  0.51821657  0.74934327  0.91573251  1
  O  O456  1  0.48297196  0.24996397  0.08457650  1
  O  O457  1  0.48352838  0.25045663  0.33755041  1
  O  O458  1  0.48349698  0.25011587  0.58697966  1
  O  O459  1  0.48535856  0.25000012  0.83411648  1
  O  O460  1  0.48463617  0.58298847  0.08739682  1
  O  O461  1  0.48258437  0.58285993  0.33498229  1
  O  O462  1  0.48188340  0.58298114  0.58497148  1
  O  O463  1  0.48403152  0.58385795  0.83736252  1
  O  O464  1  0.48526316  0.91719432  0.08395225  1
  O  O465  1  0.48320713  0.91720255  0.33424463  1
  O  O466  1  0.48321526  0.91687603  0.58441179  1
  O  O467  1  0.48564371  0.91612914  0.83704897  1
  O  O468  1  0.98118388  0.25029214  0.08661059  1
  O  O469  1  0.98338370  0.25088140  0.33580585  1
  O  O470  1  0.98172611  0.25036488  0.58494490  1
  O  O471  1  0.98302231  0.24970769  0.83491685  1
  O  O472  1  0.98295889  0.58282791  0.08552012  1
  O  O473  1  0.98200827  0.58328283  0.33532394  1
  O  O474  1  0.98220607  0.58267028  0.58572893  1
  O  O475  1  0.98358812  0.58352364  0.83528864  1
  O  O476  1  0.98084043  0.91710461  0.08689844  1
  O  O477  1  0.98529910  0.91598381  0.33744393  1
  O  O478  1  0.98467760  0.91674341  0.58352977  1
  O  O479  1  0.98172655  0.91667094  0.83560555  1
  O  O480  1  0.08478821  0.31615996  0.07778199  1
  O  O481  1  0.08731981  0.31562986  0.32727854  1
  O  O482  1  0.08572783  0.31551712  0.57632195  1
  O  O483  1  0.08719809  0.31389340  0.82716910  1
  O  O484  1  0.08707683  0.64714168  0.07768744  1
  O  O485  1  0.08583565  0.64888942  0.32711792  1
  O  O486  1  0.08615267  0.64758825  0.57693588  1
  O  O487  1  0.08712766  0.64947806  0.82839663  1
  O  O488  1  0.08480083  0.98195184  0.07797769  1
  O  O489  1  0.08883056  0.98072822  0.32744643  1
  O  O490  1  0.08864300  0.98207697  0.57658072  1
  O  O491  1  0.08543574  0.98218795  0.82841833  1
  O  O492  1  0.58692901  0.31490455  0.07819843  1
  O  O493  1  0.58730407  0.31519207  0.32857917  1
  O  O494  1  0.58727444  0.31500062  0.57752318  1
  O  O495  1  0.58922039  0.31521133  0.82724916  1
  O  O496  1  0.58836253  0.64776574  0.07723453  1
  O  O497  1  0.58665335  0.64744077  0.32621979  1
  O  O498  1  0.58543135  0.64856844  0.57701920  1
  O  O499  1  0.58750727  0.64901439  0.82831359  1
  O  O500  1  0.58916650  0.98272203  0.07761517  1
  O  O501  1  0.58708519  0.98245690  0.32785468  1
  O  O502  1  0.58702021  0.98173750  0.57788546  1
  O  O503  1  0.58909339  0.98122033  0.82853450  1
  O  O504  1  0.41409602  0.01914942  0.17301758  1
  O  O505  1  0.41234340  0.01918008  0.42335469  1
  O  O506  1  0.41235908  0.01908178  0.67350800  1
  O  O507  1  0.41506302  0.01826972  0.92269467  1
  O  O508  1  0.41508000  0.35138051  0.17209459  1
  O  O509  1  0.41353841  0.35208185  0.42283730  1
  O  O510  1  0.41315781  0.35160509  0.67259898  1
  O  O511  1  0.41420423  0.35242015  0.92236896  1
  O  O512  1  0.41181417  0.68403993  0.17159956  1
  O  O513  1  0.41090616  0.68372002  0.42127698  1
  O  O514  1  0.41312580  0.68424779  0.67189274  1
  O  O515  1  0.41403413  0.68425047  0.92331997  1
  O  O516  1  0.90973745  0.01837848  0.17271078  1
  O  O517  1  0.91208338  0.01841231  0.42245434  1
  O  O518  1  0.91197050  0.01963231  0.67211053  1
  O  O519  1  0.91227649  0.01745468  0.92298510  1
  O  O520  1  0.91105823  0.35109068  0.17261976  1
  O  O521  1  0.90951743  0.35327997  0.42293641  1
  O  O522  1  0.91113206  0.35087663  0.67154320  1
  O  O523  1  0.91067811  0.35168302  0.92313633  1
  O  O524  1  0.90971858  0.68565311  0.17292009  1
  O  O525  1  0.91292984  0.68371328  0.42184302  1
  O  O526  1  0.91293202  0.68395085  0.67214998  1
  O  O527  1  0.91282443  0.68580464  0.92372134  1
  O  O528  1  0.16469049  0.01893036  0.20197956  1
  O  O529  1  0.16531003  0.01802928  0.45267132  1
  O  O530  1  0.16343123  0.01878492  0.70295969  1
  O  O531  1  0.16177850  0.01834747  0.95198823  1
  O  O532  1  0.16236477  0.35164510  0.20145818  1
  O  O533  1  0.16597747  0.35156485  0.45189569  1
  O  O534  1  0.16548323  0.35177232  0.70144291  1
  O  O535  1  0.16294120  0.35130212  0.95246631  1
  O  O536  1  0.16396114  0.68427093  0.20195724  1
  O  O537  1  0.16372576  0.68490626  0.45116146  1
  O  O538  1  0.16280209  0.68432011  0.70293086  1
  O  O539  1  0.16381164  0.68477896  0.95162699  1
  O  O540  1  0.66219642  0.01857719  0.20223224  1
  O  O541  1  0.65958741  0.02011094  0.45175132  1
  O  O542  1  0.66017434  0.01924390  0.70210952  1
  O  O543  1  0.66323986  0.01749464  0.95293970  1
  O  O544  1  0.66214267  0.35288542  0.20232287  1
  O  O545  1  0.66177992  0.35072680  0.45262478  1
  O  O546  1  0.66019821  0.35074810  0.70254836  1
  O  O547  1  0.66165048  0.35273996  0.95262564  1
  O  O548  1  0.66439186  0.68374088  0.20287432  1
  O  O549  1  0.66170924  0.68475682  0.45264286  1
  O  O550  1  0.66107986  0.68485153  0.70152900  1
  O  O551  1  0.66332535  0.68495254  0.95190212  1
  O  O552  1  0.33853472  0.31479769  0.04845753  1
  O  O553  1  0.34100898  0.31411958  0.29740550  1
  O  O554  1  0.34064215  0.31534310  0.54721042  1
  O  O555  1  0.33971014  0.31519089  0.79680818  1
  O  O556  1  0.33996600  0.64953527  0.04693415  1
  O  O557  1  0.33964880  0.64858711  0.29653882  1
  O  O558  1  0.33979575  0.64881021  0.54666761  1
  O  O559  1  0.34072782  0.64692549  0.79829849  1
  O  O560  1  0.33750324  0.98086563  0.04726325  1
  O  O561  1  0.33837756  0.98192978  0.29693658  1
  O  O562  1  0.33645614  0.98120427  0.54765175  1
  O  O563  1  0.33777062  0.98278305  0.79783799  1
  O  O564  1  0.83767410  0.31536354  0.04767199  1
  O  O565  1  0.83742331  0.31539753  0.29681091  1
  O  O566  1  0.83518318  0.31591515  0.54844901  1
  O  O567  1  0.83514915  0.31502390  0.79733702  1
  O  O568  1  0.83578477  0.64819185  0.04693892  1
  O  O569  1  0.83638546  0.64830619  0.29847383  1
  O  O570  1  0.83893518  0.64680410  0.54819351  1
  O  O571  1  0.83691372  0.64836249  0.79714397  1
  O  O572  1  0.83723307  0.98172599  0.04745606  1
  O  O573  1  0.83808773  0.98180942  0.29691537  1
  O  O574  1  0.83626528  0.98228069  0.54774428  1
  O  O575  1  0.83774916  0.98200797  0.79830185  1
  O  O576  1  0.41431985  0.14918563  0.17239606  1
  O  O577  1  0.41271424  0.14922951  0.42228777  1
  O  O578  1  0.41292016  0.14916839  0.67254222  1
  O  O579  1  0.41466280  0.14825603  0.92210109  1
  O  O580  1  0.41488936  0.48150076  0.17229320  1
  O  O581  1  0.41378057  0.48199435  0.42263192  1
  O  O582  1  0.41290330  0.48177610  0.67236510  1
  O  O583  1  0.41469648  0.48247621  0.92213134  1
  O  O584  1  0.41131234  0.81422688  0.17242124  1
  O  O585  1  0.41059600  0.81383320  0.42281397  1
  O  O586  1  0.41322776  0.81442993  0.67292361  1
  O  O587  1  0.41413468  0.81415666  0.92411902  1
  O  O588  1  0.90964841  0.14862970  0.17245365  1
  O  O589  1  0.91174931  0.14852656  0.42233925  1
  O  O590  1  0.91244988  0.14992159  0.67191896  1
  O  O591  1  0.91173526  0.14741960  0.92349796  1
  O  O592  1  0.91081807  0.48112176  0.17321460  1
  O  O593  1  0.91056095  0.48328834  0.42212250  1
  O  O594  1  0.91084924  0.48127309  0.67124203  1
  O  O595  1  0.91113577  0.48160071  0.92348208  1
  O  O596  1  0.91047069  0.81585066  0.17238074  1
  O  O597  1  0.91310019  0.81379810  0.42260921  1
  O  O598  1  0.91254858  0.81429105  0.67227554  1
  O  O599  1  0.91260362  0.81569434  0.92290291  1
  O  O600  1  0.08519264  0.18594174  0.07774325  1
  O  O601  1  0.08701617  0.18533589  0.32682434  1
  O  O602  1  0.08587130  0.18544343  0.57668025  1
  O  O603  1  0.08651082  0.18355955  0.82808901  1
  O  O604  1  0.08656805  0.51686572  0.07794081  1
  O  O605  1  0.08606134  0.51869323  0.32707890  1
  O  O606  1  0.08597076  0.51753122  0.57635889  1
  O  O607  1  0.08749220  0.51902294  0.82736312  1
  O  O608  1  0.08456522  0.85177355  0.07768704  1
  O  O609  1  0.08852616  0.85011217  0.32820836  1
  O  O610  1  0.08892548  0.85199934  0.57689910  1
  O  O611  1  0.08587798  0.85184485  0.82851757  1
  O  O612  1  0.58680385  0.18486870  0.07797266  1
  O  O613  1  0.58694491  0.18507244  0.32839218  1
  O  O614  1  0.58707730  0.18489018  0.57752057  1
  O  O615  1  0.58937214  0.18491281  0.82696494  1
  O  O616  1  0.58839123  0.51770549  0.07819629  1
  O  O617  1  0.58666093  0.51744549  0.32738204  1
  O  O618  1  0.58594246  0.51848224  0.57741006  1
  O  O619  1  0.58749234  0.51877847  0.82830204  1
  O  O620  1  0.58950664  0.85258560  0.07694098  1
  O  O621  1  0.58687288  0.85213855  0.32700155  1
  O  O622  1  0.58670371  0.85131785  0.57762054  1
  O  O623  1  0.58889435  0.85072745  0.82888439  1
  O  O624  1  0.33909745  0.18489850  0.04773095  1
  O  O625  1  0.34008446  0.18391441  0.29669297  1
  O  O626  1  0.34088682  0.18510612  0.54700282  1
  O  O627  1  0.33924089  0.18480411  0.79687332  1
  O  O628  1  0.34039044  0.51948502  0.04799916  1
  O  O629  1  0.34008214  0.51851357  0.29729765  1
  O  O630  1  0.34022008  0.51855101  0.54711367  1
  O  O631  1  0.34014983  0.51680770  0.79753405  1
  O  O632  1  0.33741461  0.85064010  0.04690391  1
  O  O633  1  0.33801376  0.85161109  0.29699351  1
  O  O634  1  0.33604133  0.85087267  0.54768067  1
  O  O635  1  0.33802115  0.85256293  0.79821763  1
  O  O636  1  0.83794928  0.18515720  0.04758057  1
  O  O637  1  0.83715769  0.18495101  0.29695636  1
  O  O638  1  0.83534910  0.18595974  0.54883688  1
  O  O639  1  0.83525801  0.18499122  0.79739745  1
  O  O640  1  0.83484891  0.51807273  0.04766241  1
  O  O641  1  0.83654553  0.51828691  0.29842527  1
  O  O642  1  0.83776222  0.51664494  0.54733088  1
  O  O643  1  0.83717828  0.51824792  0.79706389  1
  O  O644  1  0.83766557  0.85145304  0.04696247  1
  O  O645  1  0.83827870  0.85135717  0.29664324  1
  O  O646  1  0.83645765  0.85198883  0.54779829  1
  O  O647  1  0.83790741  0.85203091  0.79828678  1
  O  O648  1  0.16534762  0.14893459  0.20166737  1
  O  O649  1  0.16518678  0.14824872  0.45187416  1
  O  O650  1  0.16414055  0.14899431  0.70228248  1
  O  O651  1  0.16157878  0.14839957  0.95175138  1
  O  O652  1  0.16247383  0.48160697  0.20139724  1
  O  O653  1  0.16575532  0.48169795  0.45181393  1
  O  O654  1  0.16588194  0.48185137  0.70145915  1
  O  O655  1  0.16286050  0.48161205  0.95261796  1
  O  O656  1  0.16369634  0.81438241  0.20233406  1
  O  O657  1  0.16362828  0.81503664  0.45232691  1
  O  O658  1  0.16219691  0.81464992  0.70350313  1
  O  O659  1  0.16358549  0.81472587  0.95194918  1
  O  O660  1  0.66263901  0.14859527  0.20190907  1
  O  O661  1  0.66047093  0.15022284  0.45272640  1
  O  O662  1  0.66054688  0.14920060  0.70259933  1
  O  O663  1  0.66255252  0.14749843  0.95257946  1
  O  O664  1  0.66222021  0.48295271  0.20348953  1
  O  O665  1  0.66161301  0.48074050  0.45209981  1
  O  O666  1  0.65952871  0.48078899  0.70166074  1
  O  O667  1  0.66247444  0.48283655  0.95288098  1
  O  O668  1  0.66422915  0.81380210  0.20215264  1
  O  O669  1  0.66177846  0.81487341  0.45250081  1
  O  O670  1  0.66067046  0.81477334  0.70201806  1
  O  O671  1  0.66349235  0.81496725  0.95200698  1
