# generated using pymatgen
data_Na2MnFe(PO4)2
_symmetry_space_group_name_H-M   'P 1'
_cell_length_a   21.08507647
_cell_length_b   18.93784940
_cell_length_c   20.04397674
_cell_angle_alpha   89.99975069
_cell_angle_beta   90.00308241
_cell_angle_gamma   90.00051734
_symmetry_Int_Tables_number   1
_chemical_formula_structural   Na2MnFe(PO4)2
_chemical_formula_sum   'Na96 Mn48 Fe48 P96 O384'
_cell_volume   8003.68022087
_cell_formula_units_Z   48
loop_
 _symmetry_equiv_pos_site_id
 _symmetry_equiv_pos_as_xyz
  1  'x, y, z'
loop_
 _atom_site_type_symbol
 _atom_site_label
 _atom_site_symmetry_multiplicity
 _atom_site_fract_x
 _atom_site_fract_y
 _atom_site_fract_z
 _atom_site_occupancy
  Na  Na0  1  0.00066262  0.00004947  -0.00073164  1
  Na  Na1  1  -0.00094084  -0.00116232  0.25087911  1
  Na  Na2  1  -0.00187268  -0.00135530  0.50125986  1
  Na  Na3  1  -0.00045130  -0.00041092  0.74985137  1
  Na  Na4  1  -0.00165397  0.33376512  0.00007792  1
  Na  Na5  1  -0.00080133  0.33365836  0.25086795  1
  Na  Na6  1  0.00011520  0.33387298  0.49935669  1
  Na  Na7  1  -0.00033526  0.33384304  0.74899605  1
  Na  Na8  1  0.00037847  0.66697782  0.00006219  1
  Na  Na9  1  0.00189190  0.66727676  0.24959296  1
  Na  Na10  1  -0.00042342  0.66686689  0.50079900  1
  Na  Na11  1  -0.00322362  0.66606226  0.74925614  1
  Na  Na12  1  0.50074051  0.00035495  -0.00102128  1
  Na  Na13  1  0.50035076  0.00039678  0.25009196  1
  Na  Na14  1  0.49884904  -0.00053562  0.50006098  1
  Na  Na15  1  0.50126870  0.00058278  0.75018091  1
  Na  Na16  1  0.50145541  0.33363724  0.00053907  1
  Na  Na17  1  0.49860066  0.33251618  0.25087450  1
  Na  Na18  1  0.50279084  0.33444917  0.49888958  1
  Na  Na19  1  0.50203076  0.33348972  0.75002197  1
  Na  Na20  1  0.50135363  0.66724180  -0.00032059  1
  Na  Na21  1  0.49983455  0.66665805  0.25071295  1
  Na  Na22  1  0.49857597  0.66659266  0.50020425  1
  Na  Na23  1  0.49902713  0.66634792  0.75019794  1
  Na  Na24  1  0.24978896  0.00021216  0.12503819  1
  Na  Na25  1  0.24928279  -0.00039158  0.37506318  1
  Na  Na26  1  0.25054656  -0.00009057  0.62492230  1
  Na  Na27  1  0.25081000  -0.00005744  0.87491561  1
  Na  Na28  1  0.25011527  0.33338870  0.12406300  1
  Na  Na29  1  0.25052348  0.33375052  0.37456932  1
  Na  Na30  1  0.24962199  0.33254933  0.62471752  1
  Na  Na31  1  0.25047181  0.33346345  0.87545810  1
  Na  Na32  1  0.24768711  0.66569431  0.12509125  1
  Na  Na33  1  0.25037471  0.66676586  0.37513203  1
  Na  Na34  1  0.25320480  0.66713506  0.62484449  1
  Na  Na35  1  0.25292940  0.66762647  0.87541054  1
  Na  Na36  1  0.74959467  -0.00070055  0.12550595  1
  Na  Na37  1  0.75260248  0.00035176  0.37528295  1
  Na  Na38  1  0.75107677  -0.00004874  0.62332693  1
  Na  Na39  1  0.74886287  -0.00058307  0.87529056  1
  Na  Na40  1  0.75127791  0.33438059  0.12608925  1
  Na  Na41  1  0.74897890  0.33348093  0.37486457  1
  Na  Na42  1  0.74800071  0.33353771  0.62540156  1
  Na  Na43  1  0.74836658  0.33288989  0.87444884  1
  Na  Na44  1  0.74888001  0.66613917  0.12514488  1
  Na  Na45  1  0.75064399  0.66742955  0.37533535  1
  Na  Na46  1  0.74944487  0.66698608  0.62447245  1
  Na  Na47  1  0.74937030  0.66704162  0.87482816  1
  Na  Na48  1  -0.00140355  0.16730301  -0.00082582  1
  Na  Na49  1  -0.00114412  0.16758014  0.25095481  1
  Na  Na50  1  0.00042606  0.16604486  0.50023729  1
  Na  Na51  1  -0.00187887  0.16675113  0.74932591  1
  Na  Na52  1  -0.00141567  0.50025551  0.00110238  1
  Na  Na53  1  -0.00123117  0.50011048  0.24986974  1
  Na  Na54  1  -0.00193418  0.50036159  0.49993257  1
  Na  Na55  1  -0.00172926  0.49975322  0.74898647  1
  Na  Na56  1  0.00098919  0.83364338  -0.00124422  1
  Na  Na57  1  0.00215824  0.83312595  0.25057183  1
  Na  Na58  1  -0.00079112  0.83394747  0.50128043  1
  Na  Na59  1  0.00004541  0.83330935  0.75003491  1
  Na  Na60  1  0.49972211  0.16587680  -0.00039365  1
  Na  Na61  1  0.49875752  0.16649043  0.25066307  1
  Na  Na62  1  0.49898674  0.16609541  0.49927088  1
  Na  Na63  1  0.49820106  0.16695256  0.75050990  1
  Na  Na64  1  0.50088871  0.50020742  0.00045233  1
  Na  Na65  1  0.49950545  0.50072262  0.25092795  1
  Na  Na66  1  0.50053369  0.50030520  0.49887199  1
  Na  Na67  1  0.50182570  0.50026242  0.75033138  1
  Na  Na68  1  0.50289747  0.83256008  -0.00096613  1
  Na  Na69  1  0.50039945  0.83328816  0.25003702  1
  Na  Na70  1  0.50148352  0.83235736  0.50098893  1
  Na  Na71  1  0.50206384  0.83263163  0.74962704  1
  Na  Na72  1  0.25204573  0.16641533  0.12466619  1
  Na  Na73  1  0.25267903  0.16593924  0.37506122  1
  Na  Na74  1  0.25141845  0.16674760  0.62497450  1
  Na  Na75  1  0.25368825  0.16551158  0.87519917  1
  Na  Na76  1  0.24921806  0.50029655  0.12364571  1
  Na  Na77  1  0.25045126  0.50014573  0.37555080  1
  Na  Na78  1  0.25171792  0.50073868  0.62487449  1
  Na  Na79  1  0.25203734  0.49998627  0.87525696  1
  Na  Na80  1  0.24668327  0.83371820  0.12572737  1
  Na  Na81  1  0.24727377  0.83359345  0.37433266  1
  Na  Na82  1  0.24961603  0.83307043  0.62479217  1
  Na  Na83  1  0.24817979  0.83395278  0.87571869  1
  Na  Na84  1  0.74890292  0.16728049  0.12523257  1
  Na  Na85  1  0.75051777  0.16613981  0.37440790  1
  Na  Na86  1  0.74888464  0.16647305  0.62449653  1
  Na  Na87  1  0.74984601  0.16570182  0.87577343  1
  Na  Na88  1  0.75050536  0.49983639  0.12543146  1
  Na  Na89  1  0.75094313  0.49940549  0.37587373  1
  Na  Na90  1  0.74871879  0.50021958  0.62466319  1
  Na  Na91  1  0.74970590  0.49973291  0.87458569  1
  Na  Na92  1  0.75027569  0.83328200  0.12621566  1
  Na  Na93  1  0.75067818  0.83335796  0.37521467  1
  Na  Na94  1  0.75059062  0.83290279  0.62393774  1
  Na  Na95  1  0.74778166  0.83429370  0.87415517  1
  Mn  Mn96  1  0.85726903  0.08353940  0.00299112  1
  Mn  Mn97  1  0.60846215  0.75061104  0.12282026  1
  Mn  Mn98  1  0.10786437  0.08355678  0.62312106  1
  Mn  Mn99  1  0.35869965  0.41664411  0.50262390  1
  Mn  Mn100  1  0.10793328  0.08310643  0.37320035  1
  Mn  Mn101  1  0.35653389  0.74984243  0.25227538  1
  Mn  Mn102  1  0.35860444  0.41640745  0.00241187  1
  Mn  Mn103  1  0.10796989  0.41670813  0.62290362  1
  Mn  Mn104  1  0.64317281  0.91671946  0.49751597  1
  Mn  Mn105  1  0.64127429  0.24849841  0.74740217  1
  Mn  Mn106  1  0.10749701  0.41758380  0.37274535  1
  Mn  Mn107  1  0.39272041  0.25011429  0.12722998  1
  Mn  Mn108  1  0.14172933  0.58336443  0.99667038  1
  Mn  Mn109  1  0.10775562  0.74949286  0.62335861  1
  Mn  Mn110  1  0.85912921  0.74947127  0.25272879  1
  Mn  Mn111  1  0.85664610  0.41642247  0.75230389  1
  Mn  Mn112  1  0.64205235  0.24992075  0.24786289  1
  Mn  Mn113  1  0.64260239  0.91676910  0.24819799  1
  Mn  Mn114  1  0.10809235  0.08415232  0.87233858  1
  Mn  Mn115  1  0.35944310  0.41662337  0.75238103  1
  Mn  Mn116  1  0.60820871  0.41614846  0.12302115  1
  Mn  Mn117  1  0.39215936  0.91625365  0.12698617  1
  Mn  Mn118  1  0.14302498  0.58371001  0.74821357  1
  Mn  Mn119  1  0.85824745  0.08363512  0.25199186  1
  Mn  Mn120  1  0.89194742  0.24995858  0.37861862  1
  Mn  Mn121  1  0.60756823  0.08332991  0.87245183  1
  Mn  Mn122  1  0.10755429  0.74900919  0.87191405  1
  Mn  Mn123  1  0.39120392  0.91590913  0.37715852  1
  Mn  Mn124  1  0.14284192  0.58335010  0.49779523  1
  Mn  Mn125  1  0.10713147  0.41704707  0.87259355  1
  Mn  Mn126  1  0.60732149  0.08279165  0.37296465  1
  Mn  Mn127  1  0.64186936  0.58427521  0.74733899  1
  Mn  Mn128  1  0.14283104  0.25042876  0.24738811  1
  Mn  Mn129  1  0.39235669  0.58357669  0.12741782  1
  Mn  Mn130  1  0.35795294  0.75111441  0.00234628  1
  Mn  Mn131  1  0.89093615  0.58381865  0.62689821  1
  Mn  Mn132  1  0.89096786  0.25087612  0.87732840  1
  Mn  Mn133  1  0.64252962  0.58327636  0.24872367  1
  Mn  Mn134  1  0.89225092  0.58383754  0.12746965  1
  Mn  Mn135  1  0.39305147  0.25080335  0.62675273  1
  Mn  Mn136  1  0.89185911  0.91625936  0.87698122  1
  Mn  Mn137  1  0.14296958  0.24964300  0.74804296  1
  Mn  Mn138  1  0.85694631  0.74991740  0.00229231  1
  Mn  Mn139  1  0.14191012  0.24933829  0.99770137  1
  Mn  Mn140  1  0.10785618  0.08414774  0.12274201  1
  Mn  Mn141  1  0.39256855  0.91602509  0.62747052  1
  Mn  Mn142  1  0.89144930  0.24945224  0.62654601  1
  Mn  Mn143  1  0.39272666  0.91624431  0.87722526  1
  Fe  Fe144  1  0.60762639  0.74955553  0.87271745  1
  Fe  Fe145  1  0.35832409  0.75077289  0.75180495  1
  Fe  Fe146  1  0.60735696  0.74969497  0.62259871  1
  Fe  Fe147  1  0.64294648  0.91691030  0.74766482  1
  Fe  Fe148  1  0.60692283  0.41726037  0.37298649  1
  Fe  Fe149  1  0.14332344  0.91666870  0.74851378  1
  Fe  Fe150  1  0.60713693  0.74977997  0.37398848  1
  Fe  Fe151  1  0.64274589  0.25008788  0.99872205  1
  Fe  Fe152  1  0.89359784  0.91567082  0.37695771  1
  Fe  Fe153  1  0.89194861  0.24985515  0.12647571  1
  Fe  Fe154  1  0.89316809  0.91697233  0.12635783  1
  Fe  Fe155  1  0.39240316  0.58343673  0.37637026  1
  Fe  Fe156  1  0.85606662  0.75064389  0.75183329  1
  Fe  Fe157  1  0.85640844  0.41667963  0.00155854  1
  Fe  Fe158  1  0.14228052  0.58278109  0.24896350  1
  Fe  Fe159  1  0.10732901  0.74941165  0.37465820  1
  Fe  Fe160  1  0.85729676  0.08379607  0.50215424  1
  Fe  Fe161  1  0.64269001  0.91664946  0.99847190  1
  Fe  Fe162  1  0.89252814  0.91665138  0.62746809  1
  Fe  Fe163  1  0.60771657  0.41692884  0.87439464  1
  Fe  Fe164  1  0.64235418  0.24973941  0.49816642  1
  Fe  Fe165  1  0.14239483  0.91738546  0.99836330  1
  Fe  Fe166  1  0.85563923  0.41644276  0.50144052  1
  Fe  Fe167  1  0.39271951  0.25062268  0.37699630  1
  Fe  Fe168  1  0.89143155  0.58336099  0.87683240  1
  Fe  Fe169  1  0.39409238  0.58295541  0.87666454  1
  Fe  Fe170  1  0.85777419  0.41682463  0.25229802  1
  Fe  Fe171  1  0.60718130  0.08311729  0.12354034  1
  Fe  Fe172  1  0.10659625  0.41659628  0.12351071  1
  Fe  Fe173  1  0.14186645  0.91702137  0.24807911  1
  Fe  Fe174  1  0.60782894  0.41683091  0.62248944  1
  Fe  Fe175  1  0.39328792  0.25095923  0.87691357  1
  Fe  Fe176  1  0.39403498  0.58314324  0.62645346  1
  Fe  Fe177  1  0.35742916  0.75104156  0.50130743  1
  Fe  Fe178  1  0.35698587  0.08251747  0.50191607  1
  Fe  Fe179  1  0.60739637  0.08326551  0.62266069  1
  Fe  Fe180  1  0.85636868  0.08283113  0.75135759  1
  Fe  Fe181  1  0.64266161  0.58313933  0.99819733  1
  Fe  Fe182  1  0.85735823  0.74966862  0.50160624  1
  Fe  Fe183  1  0.89278182  0.58426654  0.37688535  1
  Fe  Fe184  1  0.35809984  0.08260231  0.75115730  1
  Fe  Fe185  1  0.35700988  0.41675194  0.25139829  1
  Fe  Fe186  1  0.10713743  0.74981811  0.12313078  1
  Fe  Fe187  1  0.14236441  0.91685809  0.49901282  1
  Fe  Fe188  1  0.64228417  0.58350899  0.49777891  1
  Fe  Fe189  1  0.35761695  0.08257627  0.00195902  1
  Fe  Fe190  1  0.14315545  0.24956528  0.49839925  1
  Fe  Fe191  1  0.35756986  0.08326116  0.25147016  1
  P  P192  1  0.05166098  0.25108737  0.11020619  1
  P  P193  1  0.05468700  0.25006681  0.36122038  1
  P  P194  1  0.05387154  0.24986562  0.60903617  1
  P  P195  1  0.05236129  0.25031974  0.85927239  1
  P  P196  1  0.05467604  0.58286152  0.11139918  1
  P  P197  1  0.05256553  0.58411099  0.35998892  1
  P  P198  1  0.05305158  0.58334237  0.60991781  1
  P  P199  1  0.05098622  0.58307848  0.85919279  1
  P  P200  1  0.05408308  0.91645147  0.11045578  1
  P  P201  1  0.05447773  0.91575303  0.36163750  1
  P  P202  1  0.05431332  0.91657922  0.61115774  1
  P  P203  1  0.05519982  0.91688509  0.85986823  1
  P  P204  1  0.55404089  0.24880919  0.10967100  1
  P  P205  1  0.55357294  0.25024432  0.36126866  1
  P  P206  1  0.55412468  0.24921837  0.60897197  1
  P  P207  1  0.55361772  0.25053759  0.86157134  1
  P  P208  1  0.55440205  0.58336560  0.10966403  1
  P  P209  1  0.55350333  0.58395466  0.36163563  1
  P  P210  1  0.55345081  0.58393078  0.60936854  1
  P  P211  1  0.55442792  0.58341194  0.86131835  1
  P  P212  1  0.55394104  0.91768046  0.10929668  1
  P  P213  1  0.55305977  0.91561636  0.36034396  1
  P  P214  1  0.55509463  0.91683511  0.61115607  1
  P  P215  1  0.55553235  0.91588693  0.86009062  1
  P  P216  1  0.44631563  0.08280628  0.13949098  1
  P  P217  1  0.44412052  0.08350742  0.38950229  1
  P  P218  1  0.44638866  0.08301798  0.63918136  1
  P  P219  1  0.44448050  0.08364376  0.88907644  1
  P  P220  1  0.44672797  0.41689000  0.14131243  1
  P  P221  1  0.44621508  0.41692995  0.38846396  1
  P  P222  1  0.44919009  0.41744398  0.63956942  1
  P  P223  1  0.44850719  0.41685727  0.89004374  1
  P  P224  1  0.44705752  0.75022550  0.14039577  1
  P  P225  1  0.44674846  0.74960137  0.39053338  1
  P  P226  1  0.44651088  0.74952332  0.63919320  1
  P  P227  1  0.44717825  0.74964642  0.88879088  1
  P  P228  1  0.94694789  0.08328963  0.13991368  1
  P  P229  1  0.94614287  0.08226636  0.39111030  1
  P  P230  1  0.94445015  0.08251099  0.63956771  1
  P  P231  1  0.94499039  0.08304829  0.88888015  1
  P  P232  1  0.94514879  0.41607012  0.13952152  1
  P  P233  1  0.94444350  0.41794074  0.38974102  1
  P  P234  1  0.94444899  0.41633457  0.63846758  1
  P  P235  1  0.94501898  0.41786855  0.89076555  1
  P  P236  1  0.94794820  0.75113090  0.13959465  1
  P  P237  1  0.94764640  0.74976180  0.39075420  1
  P  P238  1  0.94415832  0.75101932  0.63965375  1
  P  P239  1  0.94480424  0.74935577  0.88877956  1
  P  P240  1  0.19789717  0.08332056  0.23521384  1
  P  P241  1  0.19766793  0.08323331  0.48531971  1
  P  P242  1  0.19850272  0.08271746  0.73517828  1
  P  P243  1  0.19774150  0.08286700  0.98491709  1
  P  P244  1  0.19713371  0.41767001  0.23437505  1
  P  P245  1  0.19708767  0.41611914  0.48500524  1
  P  P246  1  0.19787677  0.41710282  0.73496305  1
  P  P247  1  0.19552892  0.41637297  0.98567448  1
  P  P248  1  0.19364131  0.74928148  0.23628468  1
  P  P249  1  0.19718363  0.75041889  0.48492295  1
  P  P250  1  0.19849590  0.75010783  0.73513731  1
  P  P251  1  0.19493237  0.75074454  0.98601239  1
  P  P252  1  0.69612028  0.08311507  0.23450472  1
  P  P253  1  0.69686840  0.08372205  0.48577672  1
  P  P254  1  0.69677671  0.08202160  0.73373647  1
  P  P255  1  0.69507880  0.08324918  0.98685096  1
  P  P256  1  0.69678204  0.41706470  0.23653024  1
  P  P257  1  0.69477016  0.41686960  0.48554846  1
  P  P258  1  0.69389539  0.41684047  0.73541140  1
  P  P259  1  0.69698641  0.41645961  0.98494461  1
  P  P260  1  0.69629920  0.74986144  0.23659913  1
  P  P261  1  0.69608384  0.74935274  0.48550685  1
  P  P262  1  0.69557747  0.75093678  0.73495873  1
  P  P263  1  0.69577980  0.75028013  0.98441376  1
  P  P264  1  0.30505117  0.24926123  0.01379075  1
  P  P265  1  0.30454101  0.25041289  0.26524226  1
  P  P266  1  0.30397428  0.24940068  0.51372763  1
  P  P267  1  0.30510817  0.24946971  0.76557731  1
  P  P268  1  0.30491578  0.58375494  0.01392964  1
  P  P269  1  0.30242354  0.58246472  0.26523703  1
  P  P270  1  0.30613433  0.58446748  0.51434182  1
  P  P271  1  0.30659555  0.58427703  0.76453048  1
  P  P272  1  0.30214185  0.91710463  0.01511704  1
  P  P273  1  0.30143610  0.91683867  0.26465575  1
  P  P274  1  0.30221742  0.91615198  0.51457357  1
  P  P275  1  0.30297637  0.91609548  0.76498759  1
  P  P276  1  0.80216647  0.25101333  0.01562191  1
  P  P277  1  0.80474606  0.25065254  0.26425385  1
  P  P278  1  0.80140130  0.25048218  0.51485377  1
  P  P279  1  0.80233288  0.24862901  0.76470569  1
  P  P280  1  0.80268359  0.58270930  0.01387486  1
  P  P281  1  0.80442402  0.58277279  0.26607156  1
  P  P282  1  0.80287751  0.58343605  0.51335214  1
  P  P283  1  0.80313066  0.58434923  0.76533120  1
  P  P284  1  0.80249289  0.91632764  0.01564776  1
  P  P285  1  0.80591028  0.91645254  0.26487782  1
  P  P286  1  0.80617828  0.91608804  0.51390500  1
  P  P287  1  0.80302203  0.91682375  0.76327972  1
  O  O288  1  0.05579801  0.25044825  0.18692945  1
  O  O289  1  0.05968788  0.24974905  0.43787308  1
  O  O290  1  0.05716023  0.24969587  0.68582106  1
  O  O291  1  0.05589762  0.24992359  0.93606624  1
  O  O292  1  0.05849159  0.58245519  0.18810152  1
  O  O293  1  0.05636523  0.58308462  0.43666425  1
  O  O294  1  0.05672753  0.58339101  0.68661251  1
  O  O295  1  0.05519598  0.58341047  0.93592321  1
  O  O296  1  0.05857884  0.91747696  0.18727675  1
  O  O297  1  0.05907066  0.91682653  0.43838513  1
  O  O298  1  0.05984510  0.91664361  0.68780205  1
  O  O299  1  0.05950726  0.91732979  0.93666932  1
  O  O300  1  0.55649329  0.24953664  0.18652072  1
  O  O301  1  0.55867213  0.24947979  0.43790202  1
  O  O302  1  0.55625633  0.24862778  0.68584019  1
  O  O303  1  0.55851855  0.24965113  0.93814833  1
  O  O304  1  0.55734270  0.58336404  0.18648168  1
  O  O305  1  0.55811382  0.58377393  0.43831159  1
  O  O306  1  0.55651651  0.58436332  0.68592582  1
  O  O307  1  0.55889671  0.58353311  0.93806908  1
  O  O308  1  0.55676473  0.91698655  0.18610391  1
  O  O309  1  0.55666567  0.91644848  0.43716664  1
  O  O310  1  0.55882399  0.91709669  0.68785941  1
  O  O311  1  0.55953053  0.91678918  0.93679423  1
  O  O312  1  0.44155459  0.08246492  0.06276657  1
  O  O313  1  0.44014550  0.08255290  0.31264202  1
  O  O314  1  0.44099544  0.08240162  0.56248712  1
  O  O315  1  0.44071762  0.08238260  0.81241281  1
  O  O316  1  0.44383876  0.41687270  0.06449084  1
  O  O317  1  0.44132258  0.41694106  0.31189397  1
  O  O318  1  0.44528267  0.41672367  0.56284817  1
  O  O319  1  0.44546847  0.41669533  0.81337053  1
  O  O320  1  0.44391890  0.75048998  0.06359381  1
  O  O321  1  0.44275637  0.75043745  0.31383173  1
  O  O322  1  0.44145669  0.75111033  0.56258401  1
  O  O323  1  0.44248069  0.75083716  0.81211312  1
  O  O324  1  0.94413506  0.08328074  0.06308858  1
  O  O325  1  0.94341127  0.08354351  0.31434855  1
  O  O326  1  0.94026297  0.08360573  0.56280302  1
  O  O327  1  0.94033352  0.08268628  0.81212401  1
  O  O328  1  0.94014516  0.41671191  0.06286470  1
  O  O329  1  0.94089562  0.41678818  0.31292615  1
  O  O330  1  0.93954223  0.41628459  0.56175313  1
  O  O331  1  0.94203590  0.41676074  0.81391280  1
  O  O332  1  0.94387405  0.75058732  0.06289362  1
  O  O333  1  0.94487993  0.74980555  0.31410583  1
  O  O334  1  0.94025464  0.74996892  0.56286399  1
  O  O335  1  0.94021784  0.75039146  0.81204031  1
  O  O336  1  0.19375035  0.08389079  0.06165994  1
  O  O337  1  0.19408376  0.08383878  0.31181839  1
  O  O338  1  0.19421714  0.08351217  0.56215906  1
  O  O339  1  0.19477848  0.08343282  0.81177695  1
  O  O340  1  0.19052760  0.41636246  0.06240729  1
  O  O341  1  0.19340016  0.41714699  0.31109406  1
  O  O342  1  0.19397700  0.41684403  0.56177320  1
  O  O343  1  0.19433358  0.41748656  0.81174381  1
  O  O344  1  0.19055879  0.74968367  0.06281133  1
  O  O345  1  0.19018594  0.74917186  0.31307086  1
  O  O346  1  0.19371919  0.74939995  0.56165205  1
  O  O347  1  0.19442509  0.74912130  0.81182092  1
  O  O348  1  0.69140671  0.08324309  0.06316245  1
  O  O349  1  0.69297107  0.08288092  0.31136527  1
  O  O350  1  0.69180704  0.08303112  0.56233595  1
  O  O351  1  0.69321939  0.08287155  0.81096509  1
  O  O352  1  0.69409198  0.41672373  0.06170470  1
  O  O353  1  0.69121365  0.41704162  0.31320743  1
  O  O354  1  0.69060121  0.41714880  0.56237206  1
  O  O355  1  0.68988852  0.41685443  0.81220194  1
  O  O356  1  0.69371885  0.75005240  0.06125476  1
  O  O357  1  0.69156323  0.75009948  0.31336201  1
  O  O358  1  0.69122125  0.74972079  0.56218484  1
  O  O359  1  0.69097841  0.74990663  0.81167540  1
  O  O360  1  0.30718140  0.25047376  0.18840391  1
  O  O361  1  0.30873368  0.25071294  0.43710987  1
  O  O362  1  0.30786994  0.25060538  0.68867285  1
  O  O363  1  0.30951952  0.25069770  0.93711406  1
  O  O364  1  0.30588209  0.58322595  0.18851167  1
  O  O365  1  0.30996797  0.58329430  0.43753479  1
  O  O366  1  0.31083147  0.58316339  0.68769281  1
  O  O367  1  0.31033381  0.58357801  0.93719684  1
  O  O368  1  0.30537530  0.91610822  0.18795851  1
  O  O369  1  0.30537814  0.91590909  0.43820203  1
  O  O370  1  0.30650516  0.91583302  0.68802042  1
  O  O371  1  0.30636596  0.91608955  0.93852143  1
  O  O372  1  0.80883218  0.25008256  0.18757708  1
  O  O373  1  0.80505068  0.25035808  0.43801788  1
  O  O374  1  0.80534081  0.24964151  0.68799923  1
  O  O375  1  0.80540189  0.25009125  0.93886369  1
  O  O376  1  0.80708001  0.58372424  0.18921193  1
  O  O377  1  0.80778716  0.58398552  0.43676217  1
  O  O378  1  0.80576999  0.58358161  0.68840817  1
  O  O379  1  0.80708495  0.58350399  0.93722762  1
  O  O380  1  0.81016881  0.91615576  0.18813254  1
  O  O381  1  0.81011490  0.91582408  0.43707805  1
  O  O382  1  0.80735372  0.91659193  0.68666525  1
  O  O383  1  0.80621883  0.91643114  0.93888262  1
  O  O384  1  0.23507728  0.24946345  0.03816886  1
  O  O385  1  0.23482463  0.25012969  0.29046581  1
  O  O386  1  0.23376632  0.24944066  0.53781658  1
  O  O387  1  0.23543832  0.24964716  0.79089279  1
  O  O388  1  0.23464919  0.58351815  0.03705720  1
  O  O389  1  0.23235584  0.58329969  0.28990964  1
  O  O390  1  0.23608511  0.58382298  0.53852618  1
  O  O391  1  0.23657582  0.58382597  0.78889308  1
  O  O392  1  0.23207575  0.91715503  0.03957687  1
  O  O393  1  0.23124040  0.91654532  0.28896225  1
  O  O394  1  0.23226063  0.91648943  0.53982722  1
  O  O395  1  0.23300459  0.91640336  0.78967822  1
  O  O396  1  0.73215325  0.25076534  0.04037650  1
  O  O397  1  0.73476396  0.24980221  0.28859813  1
  O  O398  1  0.73141367  0.25044969  0.53950967  1
  O  O399  1  0.73265311  0.24866295  0.79001322  1
  O  O400  1  0.73246197  0.58309221  0.03805797  1
  O  O401  1  0.73479467  0.58326085  0.29132820  1
  O  O402  1  0.73256974  0.58333363  0.53738776  1
  O  O403  1  0.73344477  0.58378155  0.79016582  1
  O  O404  1  0.73233449  0.91631569  0.03983511  1
  O  O405  1  0.73579698  0.91695845  0.28893294  1
  O  O406  1  0.73598279  0.91612913  0.53773494  1
  O  O407  1  0.73282289  0.91685882  0.78761985  1
  O  O408  1  0.26801087  0.08353583  0.21064119  1
  O  O409  1  0.26765931  0.08259599  0.46059539  1
  O  O410  1  0.26855791  0.08297530  0.71047263  1
  O  O411  1  0.26778606  0.08267293  0.96056602  1
  O  O412  1  0.26725640  0.41685418  0.20986559  1
  O  O413  1  0.26687436  0.41677955  0.46011010  1
  O  O414  1  0.26766427  0.41671271  0.71005086  1
  O  O415  1  0.26577010  0.41655790  0.96220547  1
  O  O416  1  0.26362190  0.74944505  0.21154215  1
  O  O417  1  0.26718905  0.75030344  0.46013828  1
  O  O418  1  0.26856972  0.75022675  0.71066835  1
  O  O419  1  0.26495960  0.75068671  0.96193156  1
  O  O420  1  0.76589870  0.08322282  0.20979995  1
  O  O421  1  0.76732499  0.08318434  0.46227710  1
  O  O422  1  0.76671103  0.08270296  0.70945558  1
  O  O423  1  0.76490427  0.08291984  0.96174137  1
  O  O424  1  0.76712918  0.41725259  0.21316909  1
  O  O425  1  0.76516147  0.41671547  0.46180961  1
  O  O426  1  0.76397890  0.41700971  0.71141387  1
  O  O427  1  0.76685960  0.41624149  0.95969670  1
  O  O428  1  0.76629438  0.74957454  0.21257656  1
  O  O429  1  0.76663414  0.75034364  0.46225766  1
  O  O430  1  0.76596350  0.75029768  0.71134879  1
  O  O431  1  0.76531634  0.75071401  0.95866538  1
  O  O432  1  0.01639386  0.08338560  0.16589502  1
  O  O433  1  0.01581906  0.08241321  0.41632025  1
  O  O434  1  0.01460770  0.08303314  0.66356354  1
  O  O435  1  0.01506414  0.08333505  0.91282210  1
  O  O436  1  0.01557894  0.41681484  0.16318931  1
  O  O437  1  0.01448153  0.41735566  0.41389619  1
  O  O438  1  0.01453013  0.41659431  0.66231142  1
  O  O439  1  0.01466540  0.41721189  0.91594567  1
  O  O440  1  0.01799015  0.75032421  0.16406549  1
  O  O441  1  0.01756616  0.74995160  0.41605884  1
  O  O442  1  0.01423415  0.75012764  0.66380265  1
  O  O443  1  0.01484520  0.74994444  0.91278168  1
  O  O444  1  0.51659207  0.08340432  0.16328398  1
  O  O445  1  0.51430455  0.08268742  0.41345947  1
  O  O446  1  0.51682429  0.08350140  0.66247083  1
  O  O447  1  0.51492344  0.08300035  0.91294996  1
  O  O448  1  0.51642502  0.41654316  0.16637029  1
  O  O449  1  0.51666640  0.41720878  0.41217743  1
  O  O450  1  0.51925643  0.41704757  0.66404627  1
  O  O451  1  0.51838336  0.41699330  0.91535082  1
  O  O452  1  0.51673401  0.75003706  0.16539254  1
  O  O453  1  0.51688920  0.74952704  0.41498974  1
  O  O454  1  0.51702685  0.74974059  0.66246748  1
  O  O455  1  0.51755403  0.74979922  0.91240471  1
  O  O456  1  0.48442412  0.24961325  0.08434550  1
  O  O457  1  0.48319530  0.24992111  0.33772833  1
  O  O458  1  0.48456636  0.24989434  0.58330441  1
  O  O459  1  0.48348309  0.25027581  0.83742277  1
  O  O460  1  0.48470507  0.58367065  0.08463161  1
  O  O461  1  0.48319681  0.58390063  0.33764360  1
  O  O462  1  0.48336400  0.58382031  0.58455329  1
  O  O463  1  0.48425107  0.58335756  0.83706353  1
  O  O464  1  0.48437562  0.91650733  0.08368227  1
  O  O465  1  0.48343497  0.91627951  0.33539302  1
  O  O466  1  0.48507189  0.91614910  0.58654542  1
  O  O467  1  0.48555443  0.91662108  0.83590869  1
  O  O468  1  0.98158128  0.25066538  0.08568699  1
  O  O469  1  0.98432637  0.25054026  0.33797731  1
  O  O470  1  0.98402049  0.24984087  0.58430706  1
  O  O471  1  0.98260999  0.25053000  0.83443937  1
  O  O472  1  0.98464017  0.58339830  0.08687339  1
  O  O473  1  0.98249790  0.58386405  0.33541751  1
  O  O474  1  0.98313233  0.58367844  0.58543478  1
  O  O475  1  0.98095440  0.58296191  0.83483554  1
  O  O476  1  0.98379293  0.91685703  0.08636902  1
  O  O477  1  0.98404273  0.91591297  0.33801567  1
  O  O478  1  0.98374643  0.91647715  0.58840312  1
  O  O479  1  0.98498579  0.91635812  0.83626954  1
  O  O480  1  0.08535745  0.31620709  0.07762606  1
  O  O481  1  0.08799621  0.31510160  0.32791662  1
  O  O482  1  0.08818550  0.31470516  0.57647415  1
  O  O483  1  0.08648076  0.31537646  0.82700043  1
  O  O484  1  0.08831220  0.64802751  0.07855241  1
  O  O485  1  0.08647590  0.64935285  0.32787267  1
  O  O486  1  0.08703819  0.64842657  0.57738197  1
  O  O487  1  0.08481012  0.64810780  0.82625109  1
  O  O488  1  0.08780482  0.98131997  0.07695928  1
  O  O489  1  0.08777279  0.98056069  0.32759549  1
  O  O490  1  0.08737791  0.98159699  0.57734008  1
  O  O491  1  0.08855923  0.98188421  0.82644868  1
  O  O492  1  0.58878565  0.31368515  0.07738196  1
  O  O493  1  0.58670233  0.31547547  0.32810919  1
  O  O494  1  0.58882294  0.31431019  0.57725494  1
  O  O495  1  0.58711011  0.31549769  0.82868561  1
  O  O496  1  0.58895895  0.64809943  0.07714035  1
  O  O497  1  0.58680638  0.64915127  0.32863738  1
  O  O498  1  0.58740339  0.64893763  0.57640255  1
  O  O499  1  0.58758110  0.64850265  0.82780434  1
  O  O500  1  0.58762206  0.98307131  0.07709346  1
  O  O501  1  0.58743722  0.98045629  0.32771060  1
  O  O502  1  0.58825783  0.98205526  0.57788715  1
  O  O503  1  0.58959358  0.98086245  0.82674824  1
  O  O504  1  0.41304422  0.01779693  0.17302434  1
  O  O505  1  0.41012427  0.01883715  0.42290956  1
  O  O506  1  0.41334608  0.01790871  0.67297101  1
  O  O507  1  0.41090411  0.01887342  0.92282023  1
  O  O508  1  0.41220848  0.35198494  0.17350055  1
  O  O509  1  0.41343733  0.35172379  0.42219274  1
  O  O510  1  0.41544637  0.35245213  0.67246022  1
  O  O511  1  0.41457350  0.35182633  0.92269852  1
  O  O512  1  0.41287881  0.68522005  0.17278529  1
  O  O513  1  0.41265484  0.68459750  0.42288320  1
  O  O514  1  0.41342037  0.68421675  0.67197675  1
  O  O515  1  0.41391678  0.68450835  0.92174558  1
  O  O516  1  0.91282560  0.01802820  0.17194620  1
  O  O517  1  0.91200203  0.01705772  0.42291140  1
  O  O518  1  0.91117557  0.01711365  0.67233827  1
  O  O519  1  0.91171493  0.01796499  0.92225559  1
  O  O520  1  0.91205198  0.35092356  0.17286638  1
  O  O521  1  0.91024025  0.35328748  0.42323018  1
  O  O522  1  0.91119444  0.35125631  0.67184063  1
  O  O523  1  0.91028122  0.35318592  0.92351355  1
  O  O524  1  0.91397638  0.68614471  0.17246588  1
  O  O525  1  0.91334679  0.68469235  0.42327277  1
  O  O526  1  0.90969558  0.68645748  0.67273625  1
  O  O527  1  0.91162995  0.68393567  0.92165280  1
  O  O528  1  0.16397270  0.01822343  0.20280598  1
  O  O529  1  0.16353769  0.01810061  0.45313139  1
  O  O530  1  0.16469848  0.01757175  0.70264516  1
  O  O531  1  0.16375982  0.01776723  0.95263724  1
  O  O532  1  0.16281203  0.35285178  0.20141078  1
  O  O533  1  0.16330833  0.35096819  0.45265577  1
  O  O534  1  0.16364552  0.35194703  0.70286251  1
  O  O535  1  0.16232070  0.35121643  0.95249411  1
  O  O536  1  0.16004231  0.68415950  0.20332521  1
  O  O537  1  0.16307658  0.68559821  0.45179472  1
  O  O538  1  0.16489456  0.68513336  0.70190691  1
  O  O539  1  0.16148253  0.68588219  0.95224411  1
  O  O540  1  0.66193698  0.01821889  0.20195735  1
  O  O541  1  0.66362954  0.01871019  0.45212869  1
  O  O542  1  0.66309405  0.01698378  0.70131234  1
  O  O543  1  0.66124440  0.01819211  0.95356693  1
  O  O544  1  0.66374382  0.35196231  0.20309046  1
  O  O545  1  0.66127251  0.35181798  0.45246550  1
  O  O546  1  0.66028865  0.35177667  0.70242895  1
  O  O547  1  0.66264662  0.35139468  0.95264096  1
  O  O548  1  0.66268707  0.68488568  0.20360111  1
  O  O549  1  0.66313520  0.68417054  0.45209650  1
  O  O550  1  0.66194368  0.68616411  0.70132292  1
  O  O551  1  0.66167460  0.68508949  0.95202248  1
  O  O552  1  0.33876774  0.31399866  0.04741045  1
  O  O553  1  0.33855690  0.31564297  0.29768607  1
  O  O554  1  0.33738072  0.31427551  0.54757564  1
  O  O555  1  0.33958854  0.31434813  0.79829923  1
  O  O556  1  0.33782945  0.64894495  0.04739832  1
  O  O557  1  0.33694245  0.64715250  0.29818987  1
  O  O558  1  0.33949444  0.64996432  0.54667913  1
  O  O559  1  0.34009465  0.64971244  0.79698280  1
  O  O560  1  0.33605433  0.98227987  0.04749165  1
  O  O561  1  0.33517614  0.98190573  0.29710388  1
  O  O562  1  0.33656232  0.98102745  0.54731706  1
  O  O563  1  0.33703648  0.98112553  0.79710336  1
  O  O564  1  0.83615540  0.31617456  0.04783627  1
  O  O565  1  0.83785395  0.31594868  0.29726523  1
  O  O566  1  0.83500806  0.31562104  0.54743352  1
  O  O567  1  0.83611116  0.31382931  0.79739081  1
  O  O568  1  0.83624790  0.64758629  0.04752002  1
  O  O569  1  0.83908152  0.64753840  0.29868802  1
  O  O570  1  0.83619276  0.64849860  0.54677930  1
  O  O571  1  0.83699680  0.64967024  0.79738488  1
  O  O572  1  0.83651661  0.98120429  0.04852175  1
  O  O573  1  0.83984508  0.98132362  0.29780373  1
  O  O574  1  0.83963842  0.98121062  0.54693780  1
  O  O575  1  0.83636884  0.98191707  0.79654243  1
  O  O576  1  0.41251781  0.14770418  0.17264383  1
  O  O577  1  0.41106852  0.14899783  0.42215092  1
  O  O578  1  0.41277229  0.14793092  0.67225465  1
  O  O579  1  0.41148446  0.14896164  0.92185600  1
  O  O580  1  0.41251756  0.48189863  0.17370900  1
  O  O581  1  0.41301041  0.48199142  0.42182920  1
  O  O582  1  0.41569014  0.48263523  0.67206891  1
  O  O583  1  0.41449548  0.48193823  0.92250443  1
  O  O584  1  0.41294157  0.81520707  0.17291837  1
  O  O585  1  0.41308464  0.81454717  0.42391088  1
  O  O586  1  0.41319866  0.81429886  0.67347259  1
  O  O587  1  0.41401716  0.81461629  0.92259444  1
  O  O588  1  0.91258019  0.14842857  0.17192732  1
  O  O589  1  0.91167530  0.14716530  0.42399697  1
  O  O590  1  0.91036784  0.14717761  0.67281138  1
  O  O591  1  0.91122497  0.14805892  0.92185868  1
  O  O592  1  0.91147129  0.48100721  0.17298942  1
  O  O593  1  0.91093384  0.48335101  0.42208559  1
  O  O594  1  0.91078798  0.48134582  0.67155808  1
  O  O595  1  0.91102507  0.48321303  0.92284320  1
  O  O596  1  0.91468920  0.81627149  0.17246656  1
  O  O597  1  0.91332739  0.81462670  0.42334876  1
  O  O598  1  0.91100759  0.81642508  0.67253514  1
  O  O599  1  0.91123718  0.81425111  0.92225006  1
  O  O600  1  0.08550671  0.18601959  0.07723211  1
  O  O601  1  0.08750839  0.18486807  0.32767843  1
  O  O602  1  0.08801868  0.18469736  0.57657875  1
  O  O603  1  0.08625279  0.18518601  0.82661985  1
  O  O604  1  0.08779536  0.51757812  0.07819688  1
  O  O605  1  0.08663750  0.51937059  0.32657113  1
  O  O606  1  0.08678696  0.51837547  0.57703981  1
  O  O607  1  0.08498775  0.51809941  0.82663970  1
  O  O608  1  0.08744062  0.85118354  0.07771210  1
  O  O609  1  0.08766523  0.85050084  0.32885232  1
  O  O610  1  0.08754388  0.85164468  0.57750375  1
  O  O611  1  0.08900277  0.85190936  0.82683833  1
  O  O612  1  0.58796723  0.18369354  0.07744757  1
  O  O613  1  0.58679135  0.18524788  0.32772061  1
  O  O614  1  0.58821651  0.18410230  0.57647397  1
  O  O615  1  0.58675721  0.18527443  0.82772796  1
  O  O616  1  0.58847288  0.51819521  0.07728860  1
  O  O617  1  0.58687209  0.51896202  0.32824509  1
  O  O618  1  0.58746216  0.51886052  0.57672743  1
  O  O619  1  0.58778864  0.51833063  0.82841401  1
  O  O620  1  0.58903143  0.85305758  0.07690747  1
  O  O621  1  0.58691146  0.85020977  0.32834484  1
  O  O622  1  0.58907838  0.85179148  0.57852400  1
  O  O623  1  0.58907285  0.85076249  0.82727539  1
  O  O624  1  0.33847404  0.18374027  0.04613789  1
  O  O625  1  0.33908107  0.18543760  0.29733759  1
  O  O626  1  0.33739244  0.18411065  0.54636333  1
  O  O627  1  0.33940103  0.18422522  0.79708109  1
  O  O628  1  0.33823293  0.51870555  0.04728211  1
  O  O629  1  0.33616854  0.51720564  0.29770724  1
  O  O630  1  0.34033914  0.51987109  0.54791470  1
  O  O631  1  0.34069941  0.51954517  0.79792771  1
  O  O632  1  0.33567320  0.85213703  0.04847775  1
  O  O633  1  0.33499460  0.85180763  0.29779447  1
  O  O634  1  0.33609044  0.85098122  0.54743799  1
  O  O635  1  0.33670231  0.85103040  0.79775525  1
  O  O636  1  0.83636829  0.18615634  0.04856562  1
  O  O637  1  0.83867867  0.18578100  0.29743395  1
  O  O638  1  0.83541863  0.18543703  0.54728217  1
  O  O639  1  0.83634895  0.18345102  0.79675322  1
  O  O640  1  0.83597922  0.51750376  0.04679843  1
  O  O641  1  0.83854462  0.51762238  0.29804296  1
  O  O642  1  0.83599400  0.51820086  0.54653600  1
  O  O643  1  0.83758964  0.51955145  0.79790605  1
  O  O644  1  0.83641230  0.85136526  0.04845902  1
  O  O645  1  0.83934116  0.85141562  0.29825027  1
  O  O646  1  0.83953586  0.85101586  0.54715000  1
  O  O647  1  0.83625739  0.85169220  0.79670657  1
  O  O648  1  0.16428173  0.14837081  0.20204988  1
  O  O649  1  0.16420092  0.14828189  0.45234702  1
  O  O650  1  0.16459707  0.14766105  0.70220149  1
  O  O651  1  0.16416476  0.14790663  0.95172892  1
  O  O652  1  0.16342858  0.48294159  0.20197110  1
  O  O653  1  0.16289420  0.48116395  0.45239917  1
  O  O654  1  0.16406970  0.48221283  0.70226996  1
  O  O655  1  0.16225566  0.48141126  0.95221891  1
  O  O656  1  0.15974254  0.81447130  0.20361403  1
  O  O657  1  0.16293821  0.81551477  0.45283399  1
  O  O658  1  0.16442006  0.81521832  0.70288272  1
  O  O659  1  0.16139276  0.81608955  0.95371124  1
  O  O660  1  0.66177920  0.14803996  0.20220931  1
  O  O661  1  0.66381582  0.14888305  0.45249610  1
  O  O662  1  0.66228351  0.14673246  0.70123085  1
  O  O663  1  0.66161340  0.14857480  0.95353639  1
  O  O664  1  0.66357871  0.48199561  0.20310556  1
  O  O665  1  0.66148495  0.48202524  0.45225638  1
  O  O666  1  0.66034554  0.48175359  0.70214122  1
  O  O667  1  0.66293432  0.48145488  0.95218641  1
  O  O668  1  0.66295400  0.81494152  0.20336226  1
  O  O669  1  0.66232920  0.81410508  0.45197421  1
  O  O670  1  0.66245209  0.81609144  0.70183189  1
  O  O671  1  0.66114360  0.81529281  0.95243821  1
