# generated using pymatgen
data_Na2MnFe(PO4)2
_symmetry_space_group_name_H-M   'P 1'
_cell_length_a   21.08826796
_cell_length_b   18.94218951
_cell_length_c   20.04708487
_cell_angle_alpha   90.00023167
_cell_angle_beta   90.00063972
_cell_angle_gamma   89.99961440
_symmetry_Int_Tables_number   1
_chemical_formula_structural   Na2MnFe(PO4)2
_chemical_formula_sum   'Na96 Mn48 Fe48 P96 O384'
_cell_volume   8007.96779163
_cell_formula_units_Z   48
loop_
 _symmetry_equiv_pos_site_id
 _symmetry_equiv_pos_as_xyz
  1  'x, y, z'
loop_
 _atom_site_type_symbol
 _atom_site_label
 _atom_site_symmetry_multiplicity
 _atom_site_fract_x
 _atom_site_fract_y
 _atom_site_fract_z
 _atom_site_occupancy
  Na  Na0  1  -0.00026791  -0.00020216  0.00044710  1
  Na  Na1  1  0.00083098  0.00029098  0.24925730  1
  Na  Na2  1  -0.00137854  -0.00082428  0.49977973  1
  Na  Na3  1  0.00003031  0.00018542  0.75067907  1
  Na  Na4  1  -0.00153663  0.33316607  0.00187466  1
  Na  Na5  1  -0.00001385  0.33372005  0.25003475  1
  Na  Na6  1  0.00000067  0.33348788  0.49903418  1
  Na  Na7  1  -0.00099842  0.33332012  0.74936940  1
  Na  Na8  1  -0.00042079  0.66644413  0.00107718  1
  Na  Na9  1  -0.00002448  0.66648533  0.25023809  1
  Na  Na10  1  0.00010042  0.66642705  0.49880283  1
  Na  Na11  1  0.00242120  0.66805894  0.74930134  1
  Na  Na12  1  0.49877974  -0.00023216  0.00049271  1
  Na  Na13  1  0.49959242  0.00028228  0.25041871  1
  Na  Na14  1  0.49913284  0.00009702  0.49987729  1
  Na  Na15  1  0.49990731  0.00048859  0.74907456  1
  Na  Na16  1  0.50057778  0.33248722  0.00111021  1
  Na  Na17  1  0.49955092  0.33303197  0.24998646  1
  Na  Na18  1  0.49934336  0.33398689  0.49923970  1
  Na  Na19  1  0.50044950  0.33349273  0.74943000  1
  Na  Na20  1  0.50045564  0.66615996  0.00019173  1
  Na  Na21  1  0.50329679  0.66780381  0.24889587  1
  Na  Na22  1  0.50198941  0.66706649  0.50012520  1
  Na  Na23  1  0.50065702  0.66612825  0.75119059  1
  Na  Na24  1  0.25054008  -0.00001284  0.12479466  1
  Na  Na25  1  0.25222545  0.00079278  0.37549053  1
  Na  Na26  1  0.24961148  0.00061848  0.62457451  1
  Na  Na27  1  0.24690111  -0.00074660  0.87544337  1
  Na  Na28  1  0.24991065  0.33362445  0.12470579  1
  Na  Na29  1  0.24860325  0.33302120  0.37446426  1
  Na  Na30  1  0.24930425  0.33371297  0.62598285  1
  Na  Na31  1  0.25018371  0.33361418  0.87526498  1
  Na  Na32  1  0.25078276  0.66703528  0.12539448  1
  Na  Na33  1  0.24817759  0.66529346  0.37510289  1
  Na  Na34  1  0.24841184  0.66614923  0.62569321  1
  Na  Na35  1  0.25051489  0.66728033  0.87374534  1
  Na  Na36  1  0.74913975  -0.00001275  0.12463520  1
  Na  Na37  1  0.74867510  -0.00076760  0.37504653  1
  Na  Na38  1  0.75295222  0.00020721  0.62425550  1
  Na  Na39  1  0.75314345  0.00070535  0.87536909  1
  Na  Na40  1  0.75071001  0.33281451  0.12477557  1
  Na  Na41  1  0.75164373  0.33399319  0.37591321  1
  Na  Na42  1  0.74976268  0.33273023  0.62422615  1
  Na  Na43  1  0.75191197  0.33370290  0.87465774  1
  Na  Na44  1  0.74680318  0.66578382  0.12613786  1
  Na  Na45  1  0.74971515  0.66731422  0.37532135  1
  Na  Na46  1  0.74923548  0.66654265  0.62372042  1
  Na  Na47  1  0.74802663  0.66635702  0.87508480  1
  Na  Na48  1  -0.00003390  0.16618997  0.00083063  1
  Na  Na49  1  0.00080075  0.16701075  0.25016179  1
  Na  Na50  1  0.00142200  0.16620032  0.49913856  1
  Na  Na51  1  0.00022007  0.16634323  0.75008533  1
  Na  Na52  1  -0.00076231  0.49998480  0.00132412  1
  Na  Na53  1  -0.00061872  0.50009041  0.24996807  1
  Na  Na54  1  0.00022457  0.49981153  0.49886126  1
  Na  Na55  1  0.00102049  0.49926046  0.74942164  1
  Na  Na56  1  -0.00089845  0.83363598  0.00156047  1
  Na  Na57  1  -0.00020242  0.83313730  0.24916526  1
  Na  Na58  1  -0.00199650  0.83402528  0.49991836  1
  Na  Na59  1  -0.00021491  0.83324272  0.74968301  1
  Na  Na60  1  0.50119241  0.16669351  0.00073950  1
  Na  Na61  1  0.50231055  0.16557827  0.24966155  1
  Na  Na62  1  0.50052569  0.16604643  0.49932971  1
  Na  Na63  1  0.49854051  0.16735652  0.74981913  1
  Na  Na64  1  0.50018611  0.50055143  0.00057085  1
  Na  Na65  1  0.49884673  0.50048969  0.25039630  1
  Na  Na66  1  0.49856372  0.50034971  0.49956630  1
  Na  Na67  1  0.50133618  0.49965733  0.75022089  1
  Na  Na68  1  0.49853336  0.83415260  0.00056998  1
  Na  Na69  1  0.50100205  0.83319913  0.24903025  1
  Na  Na70  1  0.50082642  0.83340934  0.50019390  1
  Na  Na71  1  0.50150309  0.83242053  0.75002641  1
  Na  Na72  1  0.24868830  0.16705242  0.12384615  1
  Na  Na73  1  0.24979144  0.16622863  0.37518187  1
  Na  Na74  1  0.24743661  0.16738690  0.62613811  1
  Na  Na75  1  0.24963370  0.16567520  0.87541612  1
  Na  Na76  1  0.25133828  0.49955666  0.12562444  1
  Na  Na77  1  0.25002745  0.50008291  0.37434030  1
  Na  Na78  1  0.25061636  0.49937662  0.62614022  1
  Na  Na79  1  0.24880884  0.50107413  0.87425455  1
  Na  Na80  1  0.25131444  0.83307400  0.12566259  1
  Na  Na81  1  0.25051911  0.83343818  0.37541258  1
  Na  Na82  1  0.24774751  0.83430968  0.62426557  1
  Na  Na83  1  0.24899614  0.83319074  0.87464896  1
  Na  Na84  1  0.74696664  0.16765020  0.12526584  1
  Na  Na85  1  0.74885986  0.16667851  0.37457581  1
  Na  Na86  1  0.75163091  0.16651181  0.62382367  1
  Na  Na87  1  0.75224774  0.16588028  0.87565918  1
  Na  Na88  1  0.75109055  0.49926046  0.12523176  1
  Na  Na89  1  0.75100310  0.49969883  0.37606821  1
  Na  Na90  1  0.74959010  0.50032635  0.62377187  1
  Na  Na91  1  0.74842059  0.50049771  0.87465562  1
  Na  Na92  1  0.74920344  0.83355397  0.12489203  1
  Na  Na93  1  0.75009304  0.83317439  0.37563450  1
  Na  Na94  1  0.75054421  0.83381499  0.62464682  1
  Na  Na95  1  0.75248344  0.83252984  0.87490774  1
  Mn  Mn96  1  0.89273822  0.58384776  0.62726730  1
  Mn  Mn97  1  0.10759956  0.41649792  0.12307986  1
  Mn  Mn98  1  0.14167356  0.58374827  0.74782812  1
  Mn  Mn99  1  0.35735506  0.08287098  0.00211808  1
  Mn  Mn100  1  0.64365654  0.91689360  0.74794769  1
  Mn  Mn101  1  0.85680626  0.08352617  0.25223870  1
  Mn  Mn102  1  0.39285428  0.24990512  0.12768768  1
  Mn  Mn103  1  0.10809189  0.41664184  0.62166011  1
  Mn  Mn104  1  0.89105357  0.58348491  0.12755247  1
  Mn  Mn105  1  0.60828418  0.41662171  0.12325067  1
  Mn  Mn106  1  0.39276837  0.58289883  0.87750902  1
  Mn  Mn107  1  0.64232781  0.25007546  0.49751698  1
  Mn  Mn108  1  0.14196532  0.91683256  0.49697284  1
  Mn  Mn109  1  0.35662040  0.08301624  0.75222133  1
  Mn  Mn110  1  0.39150912  0.25071569  0.62684695  1
  Mn  Mn111  1  0.14241824  0.91572905  0.99801949  1
  Mn  Mn112  1  0.85622030  0.74974675  0.25238578  1
  Mn  Mn113  1  0.60819641  0.75076008  0.87323269  1
  Mn  Mn114  1  0.89297616  0.24924990  0.62690099  1
  Mn  Mn115  1  0.60869818  0.41596723  0.87293208  1
  Mn  Mn116  1  0.60839209  0.08338168  0.62306383  1
  Mn  Mn117  1  0.64236847  0.58323110  0.49760306  1
  Mn  Mn118  1  0.35727764  0.75073216  0.75159246  1
  Mn  Mn119  1  0.35806037  0.74913818  0.50265790  1
  Mn  Mn120  1  0.60763328  0.41660208  0.37222256  1
  Mn  Mn121  1  0.35836703  0.75009801  0.25293488  1
  Mn  Mn122  1  0.60860368  0.08327004  0.87238295  1
  Mn  Mn123  1  0.35818870  0.41629031  0.75264059  1
  Mn  Mn124  1  0.64264188  0.91692428  0.49796044  1
  Mn  Mn125  1  0.39160739  0.24942883  0.37702752  1
  Mn  Mn126  1  0.85824293  0.08320911  0.50147343  1
  Mn  Mn127  1  0.85821905  0.74955548  0.75232024  1
  Mn  Mn128  1  0.14171370  0.25059448  0.99706058  1
  Mn  Mn129  1  0.35806484  0.41748071  0.00213394  1
  Mn  Mn130  1  0.89180684  0.24955772  0.12774922  1
  Mn  Mn131  1  0.39198120  0.91559946  0.62762750  1
  Mn  Mn132  1  0.10826982  0.08317071  0.37212083  1
  Mn  Mn133  1  0.14240853  0.58371960  0.99790278  1
  Mn  Mn134  1  0.10706345  0.74985366  0.37281628  1
  Mn  Mn135  1  0.64254772  0.91693675  0.99722553  1
  Mn  Mn136  1  0.64283579  0.24974660  0.74771757  1
  Mn  Mn137  1  0.85749412  0.41676984  0.75214898  1
  Mn  Mn138  1  0.39215633  0.58446507  0.37719411  1
  Mn  Mn139  1  0.89180400  0.58359745  0.87718896  1
  Mn  Mn140  1  0.10824189  0.75031193  0.12284896  1
  Mn  Mn141  1  0.89197537  0.91685742  0.12783623  1
  Mn  Mn142  1  0.14120969  0.24962095  0.74876163  1
  Mn  Mn143  1  0.39128912  0.91721475  0.87660888  1
  Fe  Fe144  1  0.14261073  0.58330654  0.24820358  1
  Fe  Fe145  1  0.89271207  0.58333766  0.37651639  1
  Fe  Fe146  1  0.89353457  0.91655885  0.62684246  1
  Fe  Fe147  1  0.35740099  0.08396331  0.25116294  1
  Fe  Fe148  1  0.85779275  0.41712390  0.50170515  1
  Fe  Fe149  1  0.35713970  0.08438994  0.50190897  1
  Fe  Fe150  1  0.64295841  0.25040892  0.24883678  1
  Fe  Fe151  1  0.10710534  0.41690696  0.37315623  1
  Fe  Fe152  1  0.85905057  0.08358700  0.75189168  1
  Fe  Fe153  1  0.10791516  0.08316116  0.12379719  1
  Fe  Fe154  1  0.89309466  0.25000806  0.37636745  1
  Fe  Fe155  1  0.60696160  0.41682243  0.62295858  1
  Fe  Fe156  1  0.14268023  0.24962509  0.24851219  1
  Fe  Fe157  1  0.85721186  0.41655540  0.25234652  1
  Fe  Fe158  1  0.89268435  0.24989129  0.87696804  1
  Fe  Fe159  1  0.60696372  0.08261185  0.12306139  1
  Fe  Fe160  1  0.89366623  0.91652547  0.87678842  1
  Fe  Fe161  1  0.10591781  0.08329590  0.87358954  1
  Fe  Fe162  1  0.14258236  0.25072471  0.49801631  1
  Fe  Fe163  1  0.64161185  0.91693248  0.24826773  1
  Fe  Fe164  1  0.10697521  0.75045866  0.62236862  1
  Fe  Fe165  1  0.14073844  0.91652570  0.74829951  1
  Fe  Fe166  1  0.14330361  0.91691888  0.24881855  1
  Fe  Fe167  1  0.60676751  0.08280477  0.37290199  1
  Fe  Fe168  1  0.10726801  0.74992735  0.87390876  1
  Fe  Fe169  1  0.85742110  0.41692346  0.00110824  1
  Fe  Fe170  1  0.10682001  0.08279571  0.62309316  1
  Fe  Fe171  1  0.85743039  0.74947106  0.00170777  1
  Fe  Fe172  1  0.35776754  0.74984559  0.00136649  1
  Fe  Fe173  1  0.64214228  0.58333900  0.74735335  1
  Fe  Fe174  1  0.35660507  0.41614448  0.25165457  1
  Fe  Fe175  1  0.89190588  0.91663898  0.37572888  1
  Fe  Fe176  1  0.39271251  0.24986181  0.87690115  1
  Fe  Fe177  1  0.60676841  0.75057434  0.12258694  1
  Fe  Fe178  1  0.85772960  0.08347975  0.00250251  1
  Fe  Fe179  1  0.39308609  0.58353560  0.62617202  1
  Fe  Fe180  1  0.39334251  0.58377984  0.12691784  1
  Fe  Fe181  1  0.60782721  0.74969639  0.62366667  1
  Fe  Fe182  1  0.60805124  0.75077243  0.37346611  1
  Fe  Fe183  1  0.39296574  0.91656642  0.12737041  1
  Fe  Fe184  1  0.10645993  0.41671372  0.87431275  1
  Fe  Fe185  1  0.35644002  0.41641820  0.50138287  1
  Fe  Fe186  1  0.64293190  0.58263193  0.99900164  1
  Fe  Fe187  1  0.64365555  0.25017516  0.99769941  1
  Fe  Fe188  1  0.14285646  0.58253456  0.49826200  1
  Fe  Fe189  1  0.85731254  0.74953966  0.50157137  1
  Fe  Fe190  1  0.64293796  0.58265867  0.24855510  1
  Fe  Fe191  1  0.39329362  0.91640838  0.37615448  1
  P  P192  1  0.05488066  0.24922940  0.11156425  1
  P  P193  1  0.05432619  0.25117201  0.36053501  1
  P  P194  1  0.05413945  0.24900297  0.60909936  1
  P  P195  1  0.05132170  0.25040068  0.86077518  1
  P  P196  1  0.05420922  0.58329119  0.11128970  1
  P  P197  1  0.05395839  0.58223263  0.36050111  1
  P  P198  1  0.05410680  0.58415589  0.60872539  1
  P  P199  1  0.05283170  0.58323900  0.86046535  1
  P  P200  1  0.05499567  0.91755131  0.11152647  1
  P  P201  1  0.05222696  0.91642384  0.35907919  1
  P  P202  1  0.05345697  0.91688228  0.61087646  1
  P  P203  1  0.05266931  0.91625717  0.86038201  1
  P  P204  1  0.55622695  0.24937696  0.11096645  1
  P  P205  1  0.55360917  0.24930117  0.35933766  1
  P  P206  1  0.55328485  0.25078478  0.60963256  1
  P  P207  1  0.55370107  0.24976802  0.86082963  1
  P  P208  1  0.55468510  0.58360783  0.11099767  1
  P  P209  1  0.55407752  0.58398848  0.35937862  1
  P  P210  1  0.55382136  0.58313104  0.61089911  1
  P  P211  1  0.55597080  0.58314699  0.86083724  1
  P  P212  1  0.55355389  0.91695452  0.11120433  1
  P  P213  1  0.55297914  0.91686282  0.35974854  1
  P  P214  1  0.55383610  0.91602683  0.61016962  1
  P  P215  1  0.55306887  0.91707845  0.85959384  1
  P  P216  1  0.44700368  0.08280789  0.14044179  1
  P  P217  1  0.44555674  0.08272806  0.38892835  1
  P  P218  1  0.44520929  0.08369958  0.63888376  1
  P  P219  1  0.44669401  0.08415052  0.89008930  1
  P  P220  1  0.44624853  0.41752692  0.14089858  1
  P  P221  1  0.44423931  0.41656412  0.38927401  1
  P  P222  1  0.44618067  0.41781319  0.63852752  1
  P  P223  1  0.44748376  0.41563389  0.89046186  1
  P  P224  1  0.44643516  0.74974651  0.13858175  1
  P  P225  1  0.44846890  0.75079313  0.38985972  1
  P  P226  1  0.44813883  0.74869578  0.64007827  1
  P  P227  1  0.44619076  0.75017016  0.89070719  1
  P  P228  1  0.94673209  0.08344348  0.13960975  1
  P  P229  1  0.94683048  0.08337749  0.38911318  1
  P  P230  1  0.94740065  0.08253337  0.64012065  1
  P  P231  1  0.94597192  0.08330522  0.88971045  1
  P  P232  1  0.94411747  0.41668694  0.14018531  1
  P  P233  1  0.94563448  0.41670369  0.38873038  1
  P  P234  1  0.94586329  0.41681850  0.63851092  1
  P  P235  1  0.94694052  0.41628893  0.89066458  1
  P  P236  1  0.94511056  0.74972564  0.13958002  1
  P  P237  1  0.94531294  0.74996869  0.38976412  1
  P  P238  1  0.94679444  0.75050497  0.63840583  1
  P  P239  1  0.94757026  0.75047813  0.89069914  1
  P  P240  1  0.19744535  0.08306570  0.23479158  1
  P  P241  1  0.19635946  0.08410675  0.48607333  1
  P  P242  1  0.19332989  0.08233695  0.73586231  1
  P  P243  1  0.19439874  0.08303884  0.98540569  1
  P  P244  1  0.19594714  0.41662445  0.23649343  1
  P  P245  1  0.19685785  0.41699679  0.48413597  1
  P  P246  1  0.19488647  0.41647895  0.73654123  1
  P  P247  1  0.19614727  0.41723187  0.98421814  1
  P  P248  1  0.19657503  0.75029375  0.23567232  1
  P  P249  1  0.19556232  0.74904132  0.48592120  1
  P  P250  1  0.19381657  0.75111020  0.73519251  1
  P  P251  1  0.19786908  0.74978184  0.98440968  1
  P  P252  1  0.69416719  0.08302388  0.23567213  1
  P  P253  1  0.69614959  0.08320387  0.48403465  1
  P  P254  1  0.69963752  0.08329893  0.73474539  1
  P  P255  1  0.69701230  0.08384076  0.98616532  1
  P  P256  1  0.69809453  0.41657594  0.23532317  1
  P  P257  1  0.69661433  0.41675506  0.48592991  1
  P  P258  1  0.69608139  0.41703549  0.73375284  1
  P  P259  1  0.69805859  0.41623743  0.98565437  1
  P  P260  1  0.69368604  0.75046114  0.23588235  1
  P  P261  1  0.69611211  0.75018223  0.48559313  1
  P  P262  1  0.69654563  0.74964656  0.73421199  1
  P  P263  1  0.69669941  0.74963549  0.98648856  1
  P  P264  1  0.30438873  0.25008099  0.01406642  1
  P  P265  1  0.30208026  0.24955814  0.26466180  1
  P  P266  1  0.30162811  0.25049161  0.51464687  1
  P  P267  1  0.30338714  0.24971618  0.76623888  1
  P  P268  1  0.30427300  0.58438816  0.01571330  1
  P  P269  1  0.30352614  0.58291386  0.26386135  1
  P  P270  1  0.30265341  0.58226790  0.51553671  1
  P  P271  1  0.30465488  0.58367518  0.76382266  1
  P  P272  1  0.30421645  0.91566212  0.01572958  1
  P  P273  1  0.30443115  0.91771587  0.26452743  1
  P  P274  1  0.30494120  0.91727388  0.51359769  1
  P  P275  1  0.30059430  0.91676259  0.76485474  1
  P  P276  1  0.80423126  0.24974837  0.01389976  1
  P  P277  1  0.80265667  0.25033522  0.26556717  1
  P  P278  1  0.80530220  0.25059613  0.51336034  1
  P  P279  1  0.80468114  0.24919347  0.76540970  1
  P  P280  1  0.80213469  0.58354901  0.01488974  1
  P  P281  1  0.80233072  0.58279104  0.26587097  1
  P  P282  1  0.80523606  0.58353438  0.51348607  1
  P  P283  1  0.80158896  0.58344170  0.76462922  1
  P  P284  1  0.80543010  0.91653362  0.01373429  1
  P  P285  1  0.80155175  0.91676949  0.26528417  1
  P  P286  1  0.80592617  0.91571980  0.51415434  1
  P  P287  1  0.80638734  0.91732258  0.76448360  1
  O  O288  1  0.05931778  0.24996168  0.18833106  1
  O  O289  1  0.05915748  0.25052013  0.43723474  1
  O  O290  1  0.05646175  0.25026451  0.68582180  1
  O  O291  1  0.05455974  0.25043481  0.93750629  1
  O  O292  1  0.05897758  0.58330914  0.18804361  1
  O  O293  1  0.05890234  0.58265182  0.43711371  1
  O  O294  1  0.05680430  0.58315464  0.68544993  1
  O  O295  1  0.05537488  0.58325997  0.93726268  1
  O  O296  1  0.05961908  0.91682579  0.18820172  1
  O  O297  1  0.05601807  0.91651831  0.43588706  1
  O  O298  1  0.05714189  0.91672063  0.68755724  1
  O  O299  1  0.05599074  0.91605053  0.93710344  1
  O  O300  1  0.56033128  0.25061165  0.18770150  1
  O  O301  1  0.55663016  0.25037529  0.43614202  1
  O  O302  1  0.55651488  0.25006126  0.68641215  1
  O  O303  1  0.55927554  0.24984253  0.93750349  1
  O  O304  1  0.55948741  0.58240715  0.18770151  1
  O  O305  1  0.55700201  0.58275784  0.43611754  1
  O  O306  1  0.55788744  0.58300967  0.68767623  1
  O  O307  1  0.56042688  0.58291202  0.93763602  1
  O  O308  1  0.55791188  0.91703597  0.18785147  1
  O  O309  1  0.55648862  0.91693422  0.43641560  1
  O  O310  1  0.55734421  0.91685273  0.68689599  1
  O  O311  1  0.55641856  0.91722150  0.93640065  1
  O  O312  1  0.44304793  0.08364556  0.06382188  1
  O  O313  1  0.44083760  0.08401346  0.31222484  1
  O  O314  1  0.44068088  0.08406056  0.56208098  1
  O  O315  1  0.44318825  0.08346316  0.81331868  1
  O  O316  1  0.44344630  0.41667741  0.06399897  1
  O  O317  1  0.43953419  0.41626817  0.31254638  1
  O  O318  1  0.44095123  0.41692493  0.56188236  1
  O  O319  1  0.44448449  0.41633328  0.81366036  1
  O  O320  1  0.44194063  0.74961362  0.06202203  1
  O  O321  1  0.44461631  0.74993937  0.31310450  1
  O  O322  1  0.44435257  0.74943763  0.56337814  1
  O  O323  1  0.44295536  0.75008093  0.81391793  1
  O  O324  1  0.94170623  0.08348848  0.06293610  1
  O  O325  1  0.94365544  0.08365307  0.31233074  1
  O  O326  1  0.94382018  0.08339398  0.56342594  1
  O  O327  1  0.94224039  0.08362867  0.81297264  1
  O  O328  1  0.93949993  0.41689061  0.06343011  1
  O  O329  1  0.94107149  0.41675431  0.31195955  1
  O  O330  1  0.94163407  0.41704945  0.56182378  1
  O  O331  1  0.94355335  0.41698316  0.81390368  1
  O  O332  1  0.94050718  0.74935501  0.06284122  1
  O  O333  1  0.94242963  0.74973056  0.31297355  1
  O  O334  1  0.94188345  0.74956614  0.56181229  1
  O  O335  1  0.94416082  0.74949970  0.81394761  1
  O  O336  1  0.19073602  0.08323554  0.06222476  1
  O  O337  1  0.19415528  0.08288839  0.31132914  1
  O  O338  1  0.19135904  0.08309959  0.56279011  1
  O  O339  1  0.18889030  0.08302677  0.81264437  1
  O  O340  1  0.19296823  0.41685023  0.06105490  1
  O  O341  1  0.19135831  0.41691930  0.31306076  1
  O  O342  1  0.19382310  0.41698373  0.56118826  1
  O  O343  1  0.18990246  0.41652997  0.81313664  1
  O  O344  1  0.19394029  0.74995952  0.06112804  1
  O  O345  1  0.19325771  0.75020979  0.31240026  1
  O  O346  1  0.19125022  0.75017466  0.56265821  1
  O  O347  1  0.18977507  0.75037879  0.81199803  1
  O  O348  1  0.69156013  0.08291311  0.06275146  1
  O  O349  1  0.69041034  0.08255596  0.31246943  1
  O  O350  1  0.69342534  0.08311053  0.56081896  1
  O  O351  1  0.69560698  0.08318641  0.81147389  1
  O  O352  1  0.69464657  0.41608051  0.06195672  1
  O  O353  1  0.69452570  0.41668754  0.31235565  1
  O  O354  1  0.69125121  0.41666023  0.56245299  1
  O  O355  1  0.69362109  0.41611831  0.81060086  1
  O  O356  1  0.69156279  0.75068234  0.06315662  1
  O  O357  1  0.69050872  0.75088762  0.31278004  1
  O  O358  1  0.69123844  0.75021294  0.56222644  1
  O  O359  1  0.69364067  0.75054442  0.81103749  1
  O  O360  1  0.30585803  0.24971420  0.18770944  1
  O  O361  1  0.30521128  0.25003769  0.43820829  1
  O  O362  1  0.30643581  0.25009075  0.68933826  1
  O  O363  1  0.30885372  0.24976260  0.93747247  1
  O  O364  1  0.30885585  0.58387235  0.18724584  1
  O  O365  1  0.30632416  0.58363769  0.43880306  1
  O  O366  1  0.30918898  0.58349092  0.68705133  1
  O  O367  1  0.30699605  0.58363167  0.93892697  1
  O  O368  1  0.30933583  0.91669052  0.18780531  1
  O  O369  1  0.30962098  0.91627259  0.43689156  1
  O  O370  1  0.30511546  0.91669061  0.68814502  1
  O  O371  1  0.30644700  0.91668903  0.93893372  1
  O  O372  1  0.80598371  0.24937769  0.18887397  1
  O  O373  1  0.80949400  0.24980563  0.43659246  1
  O  O374  1  0.80753348  0.24966053  0.68861041  1
  O  O375  1  0.80905632  0.24957891  0.93721423  1
  O  O376  1  0.80549939  0.58356243  0.18919045  1
  O  O377  1  0.80924262  0.58358088  0.43668959  1
  O  O378  1  0.80603905  0.58370823  0.68800400  1
  O  O379  1  0.80544082  0.58388647  0.93817274  1
  O  O380  1  0.80568431  0.91689947  0.18858467  1
  O  O381  1  0.80954633  0.91662555  0.43734176  1
  O  O382  1  0.81023086  0.91657687  0.68766879  1
  O  O383  1  0.80990475  0.91643036  0.93697639  1
  O  O384  1  0.23431213  0.25047622  0.03797236  1
  O  O385  1  0.23203386  0.24932243  0.28918064  1
  O  O386  1  0.23164043  0.25087823  0.53975844  1
  O  O387  1  0.23359626  0.24964871  0.79093052  1
  O  O388  1  0.23465341  0.58321983  0.04104116  1
  O  O389  1  0.23308917  0.58302370  0.28730790  1
  O  O390  1  0.23256969  0.58254319  0.53999144  1
  O  O391  1  0.23457050  0.58395506  0.78760563  1
  O  O392  1  0.23455202  0.91624473  0.04103029  1
  O  O393  1  0.23403289  0.91719107  0.28821935  1
  O  O394  1  0.23474544  0.91724325  0.53732389  1
  O  O395  1  0.23056732  0.91645763  0.78912111  1
  O  O396  1  0.73397180  0.24985339  0.03780085  1
  O  O397  1  0.73253598  0.25026026  0.29008062  1
  O  O398  1  0.73532689  0.24994722  0.53762780  1
  O  O399  1  0.73502023  0.24983206  0.79067503  1
  O  O400  1  0.73225017  0.58282100  0.04010545  1
  O  O401  1  0.73225638  0.58333721  0.29055203  1
  O  O402  1  0.73524495  0.58342594  0.53762316  1
  O  O403  1  0.73149315  0.58340498  0.78876281  1
  O  O404  1  0.73536708  0.91689227  0.03781792  1
  O  O405  1  0.73138143  0.91635094  0.28928875  1
  O  O406  1  0.73591329  0.91686858  0.53841405  1
  O  O407  1  0.73646578  0.91640462  0.78908143  1
  O  O408  1  0.26750119  0.08345257  0.20978649  1
  O  O409  1  0.26671502  0.08386818  0.46239699  1
  O  O410  1  0.26340793  0.08353313  0.71183477  1
  O  O411  1  0.26441161  0.08250680  0.96130149  1
  O  O412  1  0.26627932  0.41647050  0.21235448  1
  O  O413  1  0.26678337  0.41679861  0.45941697  1
  O  O414  1  0.26505391  0.41638556  0.71286242  1
  O  O415  1  0.26591537  0.41749672  0.95947429  1
  O  O416  1  0.26638444  0.75016296  0.21079665  1
  O  O417  1  0.26554191  0.74911008  0.46158242  1
  O  O418  1  0.26387939  0.75039342  0.71093793  1
  O  O419  1  0.26787253  0.75013166  0.95998200  1
  O  O420  1  0.76418715  0.08356227  0.21111535  1
  O  O421  1  0.76590102  0.08306703  0.45909445  1
  O  O422  1  0.76963858  0.08354358  0.71017999  1
  O  O423  1  0.76752031  0.08346099  0.96299140  1
  O  O424  1  0.76810795  0.41631915  0.21075638  1
  O  O425  1  0.76703473  0.41704707  0.46264969  1
  O  O426  1  0.76573064  0.41655048  0.70842588  1
  O  O427  1  0.76802667  0.41678250  0.96027621  1
  O  O428  1  0.76366020  0.75004253  0.21132290  1
  O  O429  1  0.76648680  0.75000716  0.46211937  1
  O  O430  1  0.76629365  0.74997159  0.70919388  1
  O  O431  1  0.76697325  0.74967160  0.96253907  1
  O  O432  1  0.01699642  0.08352679  0.16327309  1
  O  O433  1  0.01641969  0.08291758  0.41435813  1
  O  O434  1  0.01737986  0.08308282  0.66474725  1
  O  O435  1  0.01632344  0.08299737  0.91385654  1
  O  O436  1  0.01433884  0.41672472  0.16361202  1
  O  O437  1  0.01606886  0.41664718  0.41237038  1
  O  O438  1  0.01598261  0.41647855  0.66249284  1
  O  O439  1  0.01683062  0.41663069  0.91579022  1
  O  O440  1  0.01518578  0.74991340  0.16336132  1
  O  O441  1  0.01507933  0.75018781  0.41482194  1
  O  O442  1  0.01707820  0.75060907  0.66212504  1
  O  O443  1  0.01763592  0.75004799  0.91549161  1
  O  O444  1  0.51720418  0.08295209  0.16442366  1
  O  O445  1  0.51609082  0.08312292  0.41235756  1
  O  O446  1  0.51525932  0.08362020  0.66291511  1
  O  O447  1  0.51635283  0.08342396  0.91531421  1
  O  O448  1  0.51588341  0.41685499  0.16579104  1
  O  O449  1  0.51458956  0.41684392  0.41263298  1
  O  O450  1  0.51644907  0.41715366  0.66236623  1
  O  O451  1  0.51702681  0.41625648  0.91597729  1
  O  O452  1  0.51678328  0.75017295  0.16242551  1
  O  O453  1  0.51855245  0.75052261  0.41427048  1
  O  O454  1  0.51808075  0.74904722  0.66479885  1
  O  O455  1  0.51595803  0.75026192  0.91563441  1
  O  O456  1  0.48587796  0.24972239  0.08732870  1
  O  O457  1  0.48393123  0.24934863  0.33440607  1
  O  O458  1  0.48362166  0.25035805  0.58435972  1
  O  O459  1  0.48342881  0.24996038  0.83723240  1
  O  O460  1  0.48423957  0.58340076  0.08748048  1
  O  O461  1  0.48432588  0.58399681  0.33436742  1
  O  O462  1  0.48379985  0.58356105  0.58611510  1
  O  O463  1  0.48579450  0.58309635  0.83721158  1
  O  O464  1  0.48320084  0.91688209  0.08739903  1
  O  O465  1  0.48291177  0.91676837  0.33495529  1
  O  O466  1  0.48409915  0.91646105  0.58520039  1
  O  O467  1  0.48345978  0.91678433  0.83439967  1
  O  O468  1  0.98480468  0.24962097  0.08770729  1
  O  O469  1  0.98381775  0.25065546  0.33701135  1
  O  O470  1  0.98459613  0.24959593  0.58355756  1
  O  O471  1  0.98145649  0.24991007  0.83552263  1
  O  O472  1  0.98408225  0.58322201  0.08768219  1
  O  O473  1  0.98336213  0.58311753  0.33719924  1
  O  O474  1  0.98447600  0.58347960  0.58355033  1
  O  O475  1  0.98341065  0.58367204  0.83430151  1
  O  O476  1  0.98493874  0.91696792  0.08759206  1
  O  O477  1  0.98204560  0.91653800  0.33477471  1
  O  O478  1  0.98334253  0.91670114  0.58636873  1
  O  O479  1  0.98260927  0.91663883  0.83563567  1
  O  O480  1  0.08824495  0.31427148  0.07821787  1
  O  O481  1  0.08741749  0.31634039  0.32737724  1
  O  O482  1  0.08886608  0.31367273  0.57616626  1
  O  O483  1  0.08499752  0.31550557  0.82814512  1
  O  O484  1  0.08760138  0.64831270  0.07804783  1
  O  O485  1  0.08763232  0.64703280  0.32696143  1
  O  O486  1  0.08808725  0.64939161  0.57668291  1
  O  O487  1  0.08745410  0.64829460  0.82854648  1
  O  O488  1  0.08806333  0.98283027  0.07860151  1
  O  O489  1  0.08650672  0.98124303  0.32656249  1
  O  O490  1  0.08670159  0.98218518  0.57780083  1
  O  O491  1  0.08657729  0.98129175  0.82772521  1
  O  O492  1  0.58985271  0.31408420  0.07735676  1
  O  O493  1  0.58790079  0.31424572  0.32651326  1
  O  O494  1  0.58710525  0.31612055  0.57738169  1
  O  O495  1  0.58709030  0.31476576  0.82751751  1
  O  O496  1  0.58791043  0.64888804  0.07802254  1
  O  O497  1  0.58840349  0.64910497  0.32767769  1
  O  O498  1  0.58782899  0.64814754  0.57825691  1
  O  O499  1  0.58937251  0.64825782  0.82773637  1
  O  O500  1  0.58682775  0.98207017  0.07788131  1
  O  O501  1  0.58673052  0.98195026  0.32689045  1
  O  O502  1  0.58800366  0.98089144  0.57734170  1
  O  O503  1  0.58724115  0.98201534  0.82705229  1
  O  O504  1  0.41307876  0.01784694  0.17308727  1
  O  O505  1  0.41252325  0.01739127  0.42173108  1
  O  O506  1  0.41161882  0.01858173  0.67186618  1
  O  O507  1  0.41223133  0.01916371  0.92247364  1
  O  O508  1  0.41155697  0.35267652  0.17347214  1
  O  O509  1  0.41093359  0.35159230  0.42268035  1
  O  O510  1  0.41258131  0.35297461  0.67214823  1
  O  O511  1  0.41345422  0.35051934  0.92258490  1
  O  O512  1  0.41359838  0.68455127  0.17232000  1
  O  O513  1  0.41465799  0.68583026  0.42286245  1
  O  O514  1  0.41426359  0.68360824  0.67241282  1
  O  O515  1  0.41219782  0.68512837  0.92335428  1
  O  O516  1  0.91324999  0.01851247  0.17285480  1
  O  O517  1  0.91251347  0.01826095  0.42111696  1
  O  O518  1  0.91370042  0.01737254  0.67262387  1
  O  O519  1  0.91251041  0.01816659  0.92266468  1
  O  O520  1  0.91077866  0.35161909  0.17342498  1
  O  O521  1  0.91224875  0.35163870  0.42189576  1
  O  O522  1  0.91229783  0.35180665  0.67141379  1
  O  O523  1  0.91292025  0.35122893  0.92313367  1
  O  O524  1  0.91165297  0.68482018  0.17288526  1
  O  O525  1  0.91140945  0.68479066  0.42229120  1
  O  O526  1  0.91382374  0.68556637  0.67244558  1
  O  O527  1  0.91317492  0.68570295  0.92360662  1
  O  O528  1  0.16358648  0.01787210  0.20210400  1
  O  O529  1  0.16314460  0.01926562  0.45216569  1
  O  O530  1  0.16038491  0.01697853  0.70269095  1
  O  O531  1  0.16033890  0.01817838  0.95266976  1
  O  O532  1  0.16275300  0.35137880  0.20338454  1
  O  O533  1  0.16248065  0.35213734  0.45182241  1
  O  O534  1  0.16158456  0.35138964  0.70322246  1
  O  O535  1  0.16196310  0.35231597  0.95154363  1
  O  O536  1  0.16252309  0.68527677  0.20312373  1
  O  O537  1  0.16200628  0.68367749  0.45353207  1
  O  O538  1  0.15974809  0.68634534  0.70203850  1
  O  O539  1  0.16404384  0.68476657  0.95163025  1
  O  O540  1  0.66083154  0.01782459  0.20240244  1
  O  O541  1  0.66180160  0.01827231  0.45164251  1
  O  O542  1  0.66595842  0.01819946  0.70199740  1
  O  O543  1  0.66396138  0.01898031  0.95216996  1
  O  O544  1  0.66416525  0.35167380  0.20291414  1
  O  O545  1  0.66360370  0.35177466  0.45216674  1
  O  O546  1  0.66149046  0.35221266  0.70129184  1
  O  O547  1  0.66461634  0.35100891  0.95249502  1
  O  O548  1  0.65977459  0.68527139  0.20350283  1
  O  O549  1  0.66250879  0.68541372  0.45214999  1
  O  O550  1  0.66237908  0.68448682  0.70203233  1
  O  O551  1  0.66330016  0.68439661  0.95394094  1
  O  O552  1  0.33810558  0.31504899  0.04722808  1
  O  O553  1  0.33571057  0.31453148  0.29737338  1
  O  O554  1  0.33551881  0.31580701  0.54714463  1
  O  O555  1  0.33781437  0.31453510  0.79871454  1
  O  O556  1  0.33796458  0.64987284  0.04788071  1
  O  O557  1  0.33652009  0.64792786  0.29787996  1
  O  O558  1  0.33693440  0.64694475  0.54874966  1
  O  O559  1  0.33813710  0.64870389  0.79678793  1
  O  O560  1  0.33887142  0.98039179  0.04840010  1
  O  O561  1  0.33758581  0.98305167  0.29724123  1
  O  O562  1  0.33821866  0.98252295  0.54635217  1
  O  O563  1  0.33408879  0.98185584  0.79783443  1
  O  O564  1  0.83750170  0.31496288  0.04685220  1
  O  O565  1  0.83680726  0.31532104  0.29790225  1
  O  O566  1  0.83856693  0.31584655  0.54609873  1
  O  O567  1  0.83919141  0.31412543  0.79787716  1
  O  O568  1  0.83560114  0.64868519  0.04788236  1
  O  O569  1  0.83659457  0.64759709  0.29866132  1
  O  O570  1  0.83844138  0.64883185  0.54655536  1
  O  O571  1  0.83528630  0.64836084  0.79776263  1
  O  O572  1  0.83894307  0.98170419  0.04682913  1
  O  O573  1  0.83530625  0.98177616  0.29815563  1
  O  O574  1  0.84034961  0.98031149  0.54730283  1
  O  O575  1  0.83972607  0.98270227  0.79709238  1
  O  O576  1  0.41330570  0.14778108  0.17384462  1
  O  O577  1  0.41199021  0.14741024  0.42284219  1
  O  O578  1  0.41164572  0.14869903  0.67192283  1
  O  O579  1  0.41296086  0.14937043  0.92257744  1
  O  O580  1  0.41219917  0.48280623  0.17283262  1
  O  O581  1  0.41077460  0.48157695  0.42246935  1
  O  O582  1  0.41329043  0.48316915  0.67171289  1
  O  O583  1  0.41315969  0.48072693  0.92274608  1
  O  O584  1  0.41300641  0.81474300  0.17195025  1
  O  O585  1  0.41465580  0.81583482  0.42220306  1
  O  O586  1  0.41408782  0.81371560  0.67294119  1
  O  O587  1  0.41182711  0.81510980  0.92302308  1
  O  O588  1  0.91328447  0.14833412  0.17295017  1
  O  O589  1  0.91314316  0.14864636  0.42163346  1
  O  O590  1  0.91328051  0.14730851  0.67322442  1
  O  O591  1  0.91264586  0.14831071  0.92313652  1
  O  O592  1  0.91049828  0.48152755  0.17353723  1
  O  O593  1  0.91231480  0.48181440  0.42197577  1
  O  O594  1  0.91267344  0.48182715  0.67198652  1
  O  O595  1  0.91270376  0.48126344  0.92339731  1
  O  O596  1  0.91153298  0.81478157  0.17252293  1
  O  O597  1  0.91108829  0.81502653  0.42194955  1
  O  O598  1  0.91345031  0.81557784  0.67147413  1
  O  O599  1  0.91376362  0.81569307  0.92297728  1
  O  O600  1  0.08820562  0.18406305  0.07874012  1
  O  O601  1  0.08789186  0.18629925  0.32708787  1
  O  O602  1  0.08807453  0.18353949  0.57736215  1
  O  O603  1  0.08549230  0.18535381  0.82847036  1
  O  O604  1  0.08753210  0.51826538  0.07813924  1
  O  O605  1  0.08682264  0.51701758  0.32707421  1
  O  O606  1  0.08872020  0.51932536  0.57592879  1
  O  O607  1  0.08689777  0.51802606  0.82827203  1
  O  O608  1  0.08848942  0.85260617  0.07800669  1
  O  O609  1  0.08615318  0.85142656  0.32651880  1
  O  O610  1  0.08716499  0.85208768  0.57753152  1
  O  O611  1  0.08633400  0.85119328  0.82754189  1
  O  O612  1  0.58937691  0.18395447  0.07818966  1
  O  O613  1  0.58795573  0.18419276  0.32750482  1
  O  O614  1  0.58768489  0.18582852  0.57727507  1
  O  O615  1  0.58688453  0.18475206  0.82722746  1
  O  O616  1  0.58811207  0.51881552  0.07731096  1
  O  O617  1  0.58824291  0.51899346  0.32643987  1
  O  O618  1  0.58715337  0.51801316  0.57763718  1
  O  O619  1  0.58950246  0.51827785  0.82743637  1
  O  O620  1  0.58694946  0.85192827  0.07787626  1
  O  O621  1  0.58700074  0.85194986  0.32700161  1
  O  O622  1  0.58755059  0.85059157  0.57802171  1
  O  O623  1  0.58749634  0.85199506  0.82769751  1
  O  O624  1  0.33758536  0.18494464  0.04751795  1
  O  O625  1  0.33586520  0.18446499  0.29715052  1
  O  O626  1  0.33537267  0.18549681  0.54769754  1
  O  O627  1  0.33751024  0.18465007  0.79847652  1
  O  O628  1  0.33937106  0.51988171  0.04833753  1
  O  O629  1  0.33666472  0.51780637  0.29689480  1
  O  O630  1  0.33646357  0.51689454  0.54760428  1
  O  O631  1  0.33795529  0.51865469  0.79718367  1
  O  O632  1  0.33826829  0.85037154  0.04769971  1
  O  O633  1  0.33815184  0.85292980  0.29822910  1
  O  O634  1  0.33803413  0.85208696  0.54717040  1
  O  O635  1  0.33469310  0.85187926  0.79745099  1
  O  O636  1  0.83736991  0.18469015  0.04755379  1
  O  O637  1  0.83665846  0.18543268  0.29849460  1
  O  O638  1  0.83896625  0.18559594  0.54649785  1
  O  O639  1  0.83875600  0.18409990  0.79775159  1
  O  O640  1  0.83645272  0.51850656  0.04703168  1
  O  O641  1  0.83633925  0.51769683  0.29820744  1
  O  O642  1  0.83879511  0.51847823  0.54640517  1
  O  O643  1  0.83523707  0.51834793  0.79744130  1
  O  O644  1  0.83852802  0.85125586  0.04684416  1
  O  O645  1  0.83571100  0.85198321  0.29806054  1
  O  O646  1  0.83900651  0.85027328  0.54691082  1
  O  O647  1  0.84063375  0.85259395  0.79762972  1
  O  O648  1  0.16301696  0.14795778  0.20223697  1
  O  O649  1  0.16322453  0.14932442  0.45312929  1
  O  O650  1  0.15919589  0.14708156  0.70274582  1
  O  O651  1  0.16083227  0.14801709  0.95220477  1
  O  O652  1  0.16273656  0.48165193  0.20301041  1
  O  O653  1  0.16285784  0.48207444  0.45169623  1
  O  O654  1  0.16166545  0.48148444  0.70297158  1
  O  O655  1  0.16182025  0.48213305  0.95192626  1
  O  O656  1  0.16294352  0.81563766  0.20324357  1
  O  O657  1  0.16196409  0.81397236  0.45252126  1
  O  O658  1  0.16043410  0.81637810  0.70232252  1
  O  O659  1  0.16354370  0.81459517  0.95169143  1
  O  O660  1  0.66028483  0.14810545  0.20315138  1
  O  O661  1  0.66178346  0.14805719  0.45164342  1
  O  O662  1  0.66554575  0.14825429  0.70213813  1
  O  O663  1  0.66416151  0.14915346  0.95288691  1
  O  O664  1  0.66450409  0.48175254  0.20283429  1
  O  O665  1  0.66327773  0.48164310  0.45239919  1
  O  O666  1  0.66193751  0.48231955  0.70183216  1
  O  O667  1  0.66382335  0.48123094  0.95318958  1
  O  O668  1  0.66012270  0.81550517  0.20271697  1
  O  O669  1  0.66283556  0.81520639  0.45212057  1
  O  O670  1  0.66225059  0.81450868  0.70151176  1
  O  O671  1  0.66362906  0.81458739  0.95260896  1
