# generated using pymatgen
data_Na2MnFe(PO4)2
_symmetry_space_group_name_H-M   'P 1'
_cell_length_a   21.08748768
_cell_length_b   18.93993239
_cell_length_c   20.04580995
_cell_angle_alpha   89.99938649
_cell_angle_beta   90.00268568
_cell_angle_gamma   89.99900654
_symmetry_Int_Tables_number   1
_chemical_formula_structural   Na2MnFe(PO4)2
_chemical_formula_sum   'Na96 Mn48 Fe48 P96 O384'
_cell_volume   8006.20810215
_cell_formula_units_Z   48
loop_
 _symmetry_equiv_pos_site_id
 _symmetry_equiv_pos_as_xyz
  1  'x, y, z'
loop_
 _atom_site_type_symbol
 _atom_site_label
 _atom_site_symmetry_multiplicity
 _atom_site_fract_x
 _atom_site_fract_y
 _atom_site_fract_z
 _atom_site_occupancy
  Na  Na0  1  -0.00123219  -0.00029130  -0.00030963  1
  Na  Na1  1  0.00059098  0.00006239  0.24998590  1
  Na  Na2  1  0.00164219  0.00034269  0.49965391  1
  Na  Na3  1  0.00063343  0.00014695  0.75088478  1
  Na  Na4  1  -0.00143015  0.33373772  0.00048171  1
  Na  Na5  1  -0.00245270  0.33230660  0.25011304  1
  Na  Na6  1  0.00020228  0.33355072  0.49881332  1
  Na  Na7  1  -0.00159846  0.33303268  0.75013808  1
  Na  Na8  1  -0.00123797  0.66685787  0.00078123  1
  Na  Na9  1  0.00022529  0.66669300  0.24920394  1
  Na  Na10  1  -0.00037389  0.66596461  0.49973656  1
  Na  Na11  1  -0.00228403  0.66568625  0.75022665  1
  Na  Na12  1  0.49910441  0.00041923  0.00018217  1
  Na  Na13  1  0.49903901  0.00030547  0.24970972  1
  Na  Na14  1  0.49874024  0.00028726  0.49959864  1
  Na  Na15  1  0.49955280  0.00141460  0.74983409  1
  Na  Na16  1  0.49977120  0.33288199  -0.00021937  1
  Na  Na17  1  0.50145551  0.33419543  0.25148920  1
  Na  Na18  1  0.49933658  0.33311462  0.50014409  1
  Na  Na19  1  0.49874598  0.33287628  0.74895291  1
  Na  Na20  1  0.50273037  0.66656621  -0.00059737  1
  Na  Na21  1  0.50273666  0.66649362  0.24912812  1
  Na  Na22  1  0.50192728  0.66671531  0.50114301  1
  Na  Na23  1  0.50174777  0.66683710  0.75075408  1
  Na  Na24  1  0.25266424  0.00073397  0.12644892  1
  Na  Na25  1  0.25000706  0.00051129  0.37483240  1
  Na  Na26  1  0.25068209  0.00071909  0.62484683  1
  Na  Na27  1  0.25088703  -0.00009634  0.87389116  1
  Na  Na28  1  0.25051728  0.33344141  0.12384056  1
  Na  Na29  1  0.25150293  0.33478179  0.37577451  1
  Na  Na30  1  0.24910759  0.33333029  0.62571334  1
  Na  Na31  1  0.25072743  0.33382170  0.87475774  1
  Na  Na32  1  0.24933608  0.66558050  0.12496282  1
  Na  Na33  1  0.24979663  0.66615794  0.37533957  1
  Na  Na34  1  0.24942545  0.66592507  0.62423872  1
  Na  Na35  1  0.25146610  0.66736728  0.87530754  1
  Na  Na36  1  0.75063312  0.00098760  0.12587462  1
  Na  Na37  1  0.74742756  -0.00042764  0.37535362  1
  Na  Na38  1  0.74965498  0.00072906  0.62565890  1
  Na  Na39  1  0.74968978  -0.00001236  0.87334255  1
  Na  Na40  1  0.75026814  0.33287354  0.12442513  1
  Na  Na41  1  0.75039746  0.33300027  0.37554240  1
  Na  Na42  1  0.75064401  0.33233546  0.62462836  1
  Na  Na43  1  0.75243412  0.33393239  0.87496065  1
  Na  Na44  1  0.74640855  0.66561624  0.12636219  1
  Na  Na45  1  0.74899240  0.66673908  0.37608726  1
  Na  Na46  1  0.74982549  0.66620155  0.62373762  1
  Na  Na47  1  0.75044354  0.66712990  0.87429780  1
  Na  Na48  1  -0.00256426  0.16727188  0.00078198  1
  Na  Na49  1  -0.00000258  0.16615558  0.24953104  1
  Na  Na50  1  0.00130044  0.16643733  0.50001772  1
  Na  Na51  1  -0.00070427  0.16712022  0.75007035  1
  Na  Na52  1  -0.00078857  0.49954994  0.00077972  1
  Na  Na53  1  -0.00097871  0.50019300  0.24976957  1
  Na  Na54  1  -0.00010892  0.49988221  0.49844316  1
  Na  Na55  1  0.00020966  0.49897179  0.75014996  1
  Na  Na56  1  -0.00100003  0.83348601  -0.00091540  1
  Na  Na57  1  -0.00043786  0.83415283  0.25014108  1
  Na  Na58  1  0.00037618  0.83346646  0.49962113  1
  Na  Na59  1  -0.00223148  0.83409192  0.75120586  1
  Na  Na60  1  0.49939460  0.16718400  0.00076562  1
  Na  Na61  1  0.50043802  0.16684607  0.24992142  1
  Na  Na62  1  0.50202341  0.16550402  0.50022689  1
  Na  Na63  1  0.50074008  0.16627910  0.74843787  1
  Na  Na64  1  0.50260396  0.49896238  -0.00067473  1
  Na  Na65  1  0.49995884  0.50021570  0.25023167  1
  Na  Na66  1  0.49796472  0.50056012  0.50105014  1
  Na  Na67  1  0.49981527  0.49988162  0.74994756  1
  Na  Na68  1  0.50012178  0.83360506  -0.00062216  1
  Na  Na69  1  0.50285960  0.83222407  0.25011176  1
  Na  Na70  1  0.50107119  0.83277700  0.49985996  1
  Na  Na71  1  0.49830053  0.83433495  0.75087286  1
  Na  Na72  1  0.25223405  0.16595299  0.12490711  1
  Na  Na73  1  0.24936862  0.16666910  0.37553056  1
  Na  Na74  1  0.24963946  0.16639664  0.62474214  1
  Na  Na75  1  0.25272605  0.16571356  0.87511690  1
  Na  Na76  1  0.25057226  0.49976771  0.12460244  1
  Na  Na77  1  0.25080099  0.49982817  0.37640623  1
  Na  Na78  1  0.24961505  0.49917062  0.62493260  1
  Na  Na79  1  0.24889643  0.49981967  0.87477972  1
  Na  Na80  1  0.25082167  0.83306532  0.12543790  1
  Na  Na81  1  0.24931279  0.83431750  0.37451143  1
  Na  Na82  1  0.25112392  0.83330198  0.62481773  1
  Na  Na83  1  0.25027507  0.83426411  0.87421728  1
  Na  Na84  1  0.74872532  0.16687181  0.12490316  1
  Na  Na85  1  0.74774763  0.16728759  0.37603216  1
  Na  Na86  1  0.74798418  0.16742654  0.62493837  1
  Na  Na87  1  0.75024885  0.16661609  0.87344079  1
  Na  Na88  1  0.74952795  0.49952125  0.12517231  1
  Na  Na89  1  0.75051698  0.49967819  0.37583803  1
  Na  Na90  1  0.75151852  0.49978068  0.62417391  1
  Na  Na91  1  0.74969024  0.50056674  0.87447899  1
  Na  Na92  1  0.75054151  0.83270363  0.12620218  1
  Na  Na93  1  0.74767996  0.83406995  0.37523436  1
  Na  Na94  1  0.75140631  0.83265417  0.62475055  1
  Na  Na95  1  0.75182257  0.83289640  0.87489216  1
  Mn  Mn96  1  0.64213760  0.91643018  0.74684284  1
  Mn  Mn97  1  0.39244340  0.25046614  0.37772224  1
  Mn  Mn98  1  0.60733492  0.41673745  0.37288591  1
  Mn  Mn99  1  0.10792004  0.08437826  0.87368831  1
  Mn  Mn100  1  0.10763287  0.41618831  0.37197589  1
  Mn  Mn101  1  0.85686629  0.08372883  0.25310844  1
  Mn  Mn102  1  0.14268030  0.91625997  0.24696390  1
  Mn  Mn103  1  0.64224092  0.58245473  0.49782238  1
  Mn  Mn104  1  0.89094766  0.58418768  0.12791635  1
  Mn  Mn105  1  0.39360457  0.58353439  0.12708922  1
  Mn  Mn106  1  0.14203396  0.24975563  0.74843540  1
  Mn  Mn107  1  0.39192014  0.24957438  0.62685484  1
  Mn  Mn108  1  0.85770404  0.08347900  0.75144844  1
  Mn  Mn109  1  0.14276380  0.91651718  0.74747830  1
  Mn  Mn110  1  0.85778073  0.75059329  0.50213971  1
  Mn  Mn111  1  0.39197393  0.58435786  0.62781561  1
  Mn  Mn112  1  0.14258894  0.25107536  0.24791991  1
  Mn  Mn113  1  0.64268387  0.91691070  0.99798772  1
  Mn  Mn114  1  0.39215907  0.91754723  0.87769542  1
  Mn  Mn115  1  0.85838784  0.41618823  0.50240190  1
  Mn  Mn116  1  0.10802244  0.75011469  0.37263241  1
  Mn  Mn117  1  0.39270411  0.25066951  0.12786512  1
  Mn  Mn118  1  0.64139514  0.91731087  0.49862630  1
  Mn  Mn119  1  0.60881115  0.41515722  0.87179869  1
  Mn  Mn120  1  0.89192700  0.91704807  0.37732426  1
  Mn  Mn121  1  0.85774189  0.08316932  0.50220419  1
  Mn  Mn122  1  0.35816941  0.41677813  0.00201799  1
  Mn  Mn123  1  0.85621424  0.74944247  0.25273150  1
  Mn  Mn124  1  0.39324685  0.58270097  0.87695385  1
  Mn  Mn125  1  0.10737574  0.41646498  0.12348572  1
  Mn  Mn126  1  0.60731273  0.08333716  0.12240676  1
  Mn  Mn127  1  0.35883883  0.74906838  0.25231987  1
  Mn  Mn128  1  0.10753792  0.75062224  0.12270687  1
  Mn  Mn129  1  0.89178664  0.91739830  0.87779644  1
  Mn  Mn130  1  0.39288366  0.91578535  0.37742260  1
  Mn  Mn131  1  0.89117525  0.24913534  0.12769511  1
  Mn  Mn132  1  0.10809710  0.08288554  0.12245213  1
  Mn  Mn133  1  0.35827123  0.75034453  0.00270772  1
  Mn  Mn134  1  0.14244886  0.24915145  0.99741227  1
  Mn  Mn135  1  0.60880671  0.75097579  0.87214188  1
  Mn  Mn136  1  0.64257855  0.24996932  0.99670709  1
  Mn  Mn137  1  0.10751129  0.74979462  0.62310640  1
  Mn  Mn138  1  0.10736337  0.74934373  0.87267353  1
  Mn  Mn139  1  0.35818362  0.75004724  0.50231393  1
  Mn  Mn140  1  0.14196521  0.58381674  0.74795793  1
  Mn  Mn141  1  0.14181347  0.58386310  0.99746066  1
  Mn  Mn142  1  0.60770938  0.41647882  0.62310496  1
  Mn  Mn143  1  0.89120053  0.58261405  0.87765074  1
  Fe  Fe144  1  0.35663990  0.41651944  0.75190041  1
  Fe  Fe145  1  0.14267751  0.91676706  0.49905266  1
  Fe  Fe146  1  0.89199308  0.24982645  0.87639398  1
  Fe  Fe147  1  0.89248191  0.58321286  0.37609873  1
  Fe  Fe148  1  0.10770527  0.08357674  0.37341218  1
  Fe  Fe149  1  0.10626036  0.41629854  0.87376856  1
  Fe  Fe150  1  0.35785956  0.08388375  0.75168705  1
  Fe  Fe151  1  0.89302105  0.24963353  0.62621695  1
  Fe  Fe152  1  0.35755467  0.08409614  0.25251402  1
  Fe  Fe153  1  0.60720002  0.08387907  0.87340061  1
  Fe  Fe154  1  0.60750081  0.75081824  0.62427817  1
  Fe  Fe155  1  0.85622829  0.41663356  0.25139129  1
  Fe  Fe156  1  0.64361182  0.58317217  0.99817238  1
  Fe  Fe157  1  0.85693113  0.08290098  0.00150545  1
  Fe  Fe158  1  0.39267141  0.58369384  0.37627592  1
  Fe  Fe159  1  0.14218161  0.58334421  0.49799316  1
  Fe  Fe160  1  0.35617440  0.41639596  0.50214236  1
  Fe  Fe161  1  0.60743111  0.75000096  0.37349728  1
  Fe  Fe162  1  0.89227795  0.24942091  0.37690193  1
  Fe  Fe163  1  0.10688454  0.41623804  0.62382363  1
  Fe  Fe164  1  0.89309539  0.58333131  0.62645824  1
  Fe  Fe165  1  0.35668460  0.08391767  0.50150922  1
  Fe  Fe166  1  0.35824247  0.74944420  0.75143943  1
  Fe  Fe167  1  0.85791400  0.41695944  0.75104406  1
  Fe  Fe168  1  0.39318119  0.25008346  0.87580827  1
  Fe  Fe169  1  0.60774371  0.75004550  0.12270142  1
  Fe  Fe170  1  0.60827712  0.41694991  0.12353558  1
  Fe  Fe171  1  0.60650064  0.08273845  0.62300524  1
  Fe  Fe172  1  0.85681944  0.75038807  0.00240418  1
  Fe  Fe173  1  0.64197296  0.91711581  0.24753145  1
  Fe  Fe174  1  0.89215145  0.91686846  0.12666155  1
  Fe  Fe175  1  0.85696540  0.41695842  0.00207324  1
  Fe  Fe176  1  0.85724805  0.74943102  0.75079747  1
  Fe  Fe177  1  0.64281398  0.25048852  0.24875459  1
  Fe  Fe178  1  0.64372769  0.58286287  0.74801533  1
  Fe  Fe179  1  0.60660433  0.08278567  0.37322522  1
  Fe  Fe180  1  0.35798614  0.08304835  0.00161124  1
  Fe  Fe181  1  0.39225389  0.91648148  0.62579518  1
  Fe  Fe182  1  0.35841743  0.41687355  0.25147884  1
  Fe  Fe183  1  0.39306328  0.91599720  0.12666723  1
  Fe  Fe184  1  0.89311320  0.91692671  0.62608608  1
  Fe  Fe185  1  0.14310962  0.58291152  0.24889263  1
  Fe  Fe186  1  0.10785387  0.08363428  0.62360256  1
  Fe  Fe187  1  0.64303435  0.25081062  0.74807085  1
  Fe  Fe188  1  0.14198443  0.24990435  0.49853153  1
  Fe  Fe189  1  0.64281681  0.25032877  0.49834882  1
  Fe  Fe190  1  0.64217323  0.58230372  0.24892112  1
  Fe  Fe191  1  0.14311482  0.91697146  0.99925008  1
  P  P192  1  0.05303255  0.24995811  0.10999190  1
  P  P193  1  0.05324814  0.24911862  0.36086778  1
  P  P194  1  0.05286129  0.25022815  0.60988625  1
  P  P195  1  0.05165023  0.25077315  0.86043802  1
  P  P196  1  0.05388482  0.58319975  0.11119801  1
  P  P197  1  0.05380548  0.58315329  0.36001799  1
  P  P198  1  0.05265786  0.58228467  0.60957741  1
  P  P199  1  0.05252187  0.58224572  0.86017610  1
  P  P200  1  0.05238070  0.91672652  0.10894663  1
  P  P201  1  0.05502345  0.91765810  0.36098154  1
  P  P202  1  0.05295443  0.91713620  0.60999153  1
  P  P203  1  0.05475106  0.91699846  0.86131880  1
  P  P204  1  0.55514868  0.25127035  0.11124735  1
  P  P205  1  0.55506937  0.24924535  0.36108952  1
  P  P206  1  0.55511340  0.24953457  0.61047390  1
  P  P207  1  0.55301799  0.24898379  0.85879195  1
  P  P208  1  0.55631306  0.58265169  0.11040962  1
  P  P209  1  0.55271973  0.58342735  0.35994483  1
  P  P210  1  0.55493369  0.58371251  0.61176109  1
  P  P211  1  0.55654522  0.58285074  0.86006803  1
  P  P212  1  0.55324587  0.91632531  0.11072886  1
  P  P213  1  0.55407142  0.91706881  0.35963110  1
  P  P214  1  0.55161548  0.91686505  0.61037957  1
  P  P215  1  0.55363953  0.91827167  0.85995218  1
  P  P216  1  0.44466249  0.08278528  0.13959887  1
  P  P217  1  0.44583405  0.08367885  0.38962325  1
  P  P218  1  0.44532583  0.08283820  0.63870071  1
  P  P219  1  0.44635149  0.08494899  0.88925244  1
  P  P220  1  0.44834322  0.41694562  0.14064035  1
  P  P221  1  0.44459212  0.41784416  0.39002702  1
  P  P222  1  0.44432373  0.41657588  0.63951797  1
  P  P223  1  0.44621074  0.41560582  0.88847290  1
  P  P224  1  0.44882437  0.75023501  0.13975036  1
  P  P225  1  0.44848129  0.74863433  0.38996388  1
  P  P226  1  0.44762683  0.75072305  0.64061784  1
  P  P227  1  0.44624815  0.74969957  0.88915839  1
  P  P228  1  0.94508484  0.08199912  0.13934273  1
  P  P229  1  0.94771576  0.08393347  0.39005400  1
  P  P230  1  0.94820638  0.08326016  0.63955891  1
  P  P231  1  0.94571776  0.08439759  0.89053918  1
  P  P232  1  0.94392331  0.41675417  0.14011311  1
  P  P233  1  0.94461161  0.41646497  0.38792535  1
  P  P234  1  0.94724255  0.41648845  0.63981846  1
  P  P235  1  0.94503929  0.41583911  0.88956253  1
  P  P236  1  0.94468487  0.75138214  0.13936174  1
  P  P237  1  0.94637228  0.74924989  0.38960639  1
  P  P238  1  0.94621330  0.75012234  0.64032732  1
  P  P239  1  0.94412022  0.74959672  0.88973729  1
  P  P240  1  0.19691893  0.08391626  0.23610043  1
  P  P241  1  0.19544610  0.08335543  0.48601579  1
  P  P242  1  0.19752285  0.08363035  0.73467903  1
  P  P243  1  0.19862685  0.08209416  0.98515668  1
  P  P244  1  0.19849070  0.41765238  0.23519377  1
  P  P245  1  0.19511575  0.41640439  0.48671933  1
  P  P246  1  0.19543214  0.41645420  0.73583869  1
  P  P247  1  0.19567194  0.41638996  0.98419690  1
  P  P248  1  0.19711027  0.74864311  0.23500363  1
  P  P249  1  0.19660631  0.75029173  0.48525678  1
  P  P250  1  0.19842632  0.74998104  0.73488158  1
  P  P251  1  0.19685302  0.75149836  0.98492388  1
  P  P252  1  0.69462191  0.08372237  0.23651981  1
  P  P253  1  0.69427728  0.08398018  0.48593671  1
  P  P254  1  0.69440146  0.08456845  0.73530120  1
  P  P255  1  0.69729685  0.08315974  0.98389063  1
  P  P256  1  0.69694077  0.41626493  0.23517318  1
  P  P257  1  0.69670355  0.41566082  0.48523160  1
  P  P258  1  0.69856092  0.41629418  0.73463831  1
  P  P259  1  0.69707842  0.41714527  0.98584142  1
  P  P260  1  0.69357801  0.74991991  0.23632700  1
  P  P261  1  0.69440170  0.75039098  0.48586718  1
  P  P262  1  0.69768096  0.74939658  0.73410089  1
  P  P263  1  0.69686078  0.74979015  0.98621195  1
  P  P264  1  0.30521925  0.24931902  0.01355995  1
  P  P265  1  0.30379586  0.25051887  0.26533899  1
  P  P266  1  0.30184271  0.24997417  0.51486101  1
  P  P267  1  0.30408010  0.24989146  0.76517155  1
  P  P268  1  0.30368081  0.58318481  0.01504325  1
  P  P269  1  0.30347517  0.58241088  0.26564487  1
  P  P270  1  0.30326461  0.58271303  0.51389462  1
  P  P271  1  0.30352087  0.58303827  0.76493042  1
  P  P272  1  0.30336590  0.91748865  0.01577237  1
  P  P273  1  0.30537640  0.91697403  0.26410447  1
  P  P274  1  0.30291013  0.91765164  0.51494334  1
  P  P275  1  0.30564257  0.91687083  0.76311776  1
  P  P276  1  0.80446131  0.24945273  0.01337934  1
  P  P277  1  0.80228054  0.25035748  0.26584310  1
  P  P278  1  0.80406692  0.24930037  0.51466893  1
  P  P279  1  0.80458932  0.25063248  0.76359173  1
  P  P280  1  0.80213104  0.58364211  0.01524351  1
  P  P281  1  0.80162503  0.58261270  0.26583875  1
  P  P282  1  0.80543821  0.58339398  0.51433833  1
  P  P283  1  0.80405229  0.58314640  0.76298820  1
  P  P284  1  0.80356844  0.91711647  0.01580656  1
  P  P285  1  0.80221071  0.91673690  0.26439962  1
  P  P286  1  0.80340299  0.91724645  0.51592312  1
  P  P287  1  0.80486148  0.91614904  0.76320216  1
  O  O288  1  0.05672642  0.24999382  0.18678927  1
  O  O289  1  0.05834003  0.25006818  0.43753094  1
  O  O290  1  0.05620882  0.25030104  0.68658137  1
  O  O291  1  0.05556942  0.24994204  0.93708304  1
  O  O292  1  0.05882554  0.58295996  0.18790996  1
  O  O293  1  0.05889912  0.58304868  0.43674365  1
  O  O294  1  0.05627859  0.58295797  0.68630229  1
  O  O295  1  0.05556543  0.58331762  0.93695254  1
  O  O296  1  0.05671219  0.91676586  0.18572276  1
  O  O297  1  0.05947596  0.91680260  0.43770554  1
  O  O298  1  0.05641480  0.91644223  0.68675544  1
  O  O299  1  0.05928051  0.91695843  0.93795609  1
  O  O300  1  0.55920023  0.25089105  0.18799506  1
  O  O301  1  0.55884525  0.25027330  0.43785393  1
  O  O302  1  0.55915985  0.25094940  0.68719995  1
  O  O303  1  0.55663884  0.24997987  0.93558251  1
  O  O304  1  0.55974531  0.58217743  0.18724017  1
  O  O305  1  0.55619170  0.58230753  0.43668781  1
  O  O306  1  0.55963129  0.58254494  0.68847810  1
  O  O307  1  0.56088153  0.58282692  0.93688513  1
  O  O308  1  0.55783738  0.91711237  0.18739274  1
  O  O309  1  0.55628323  0.91731379  0.43642828  1
  O  O310  1  0.55508200  0.91713298  0.68705203  1
  O  O311  1  0.55691631  0.91743345  0.93671388  1
  O  O312  1  0.44093785  0.08344062  0.06276200  1
  O  O313  1  0.44118883  0.08432741  0.31291008  1
  O  O314  1  0.44034851  0.08380791  0.56200324  1
  O  O315  1  0.44191619  0.08415510  0.81251574  1
  O  O316  1  0.44426437  0.41664537  0.06392099  1
  O  O317  1  0.44097271  0.41687248  0.31323007  1
  O  O318  1  0.43969564  0.41640755  0.56272554  1
  O  O319  1  0.44143584  0.41660065  0.81178334  1
  O  O320  1  0.44496728  0.74977451  0.06304267  1
  O  O321  1  0.44498233  0.74898710  0.31329153  1
  O  O322  1  0.44404837  0.74961929  0.56385210  1
  O  O323  1  0.44157902  0.74942791  0.81242852  1
  O  O324  1  0.94059252  0.08284367  0.06266859  1
  O  O325  1  0.94357835  0.08343660  0.31335725  1
  O  O326  1  0.94459359  0.08318969  0.56293893  1
  O  O327  1  0.94289490  0.08351792  0.81374766  1
  O  O328  1  0.93969247  0.41714077  0.06328583  1
  O  O329  1  0.94012156  0.41644214  0.31122522  1
  O  O330  1  0.94407698  0.41654145  0.56306792  1
  O  O331  1  0.94067343  0.41687532  0.81280749  1
  O  O332  1  0.94030267  0.75021749  0.06258768  1
  O  O333  1  0.94300664  0.74988879  0.31283407  1
  O  O334  1  0.94368958  0.75016008  0.56352530  1
  O  O335  1  0.93980535  0.74940936  0.81297026  1
  O  O336  1  0.19493809  0.08299813  0.06186837  1
  O  O337  1  0.19173879  0.08387148  0.31275911  1
  O  O338  1  0.19087595  0.08343689  0.56275447  1
  O  O339  1  0.19342797  0.08367338  0.81134047  1
  O  O340  1  0.19241638  0.41630625  0.06098912  1
  O  O341  1  0.19443422  0.41689203  0.31192097  1
  O  O342  1  0.19036350  0.41627283  0.56339367  1
  O  O343  1  0.19024817  0.41625615  0.81243120  1
  O  O344  1  0.19356614  0.75044182  0.06170533  1
  O  O345  1  0.19380687  0.74977189  0.31175516  1
  O  O346  1  0.19353927  0.75014661  0.56201077  1
  O  O347  1  0.19405882  0.75004469  0.81152771  1
  O  O348  1  0.69311880  0.08335718  0.06062346  1
  O  O349  1  0.69082633  0.08324450  0.31325875  1
  O  O350  1  0.69026223  0.08279658  0.56272131  1
  O  O351  1  0.69065263  0.08364340  0.81203232  1
  O  O352  1  0.69252240  0.41612077  0.06244827  1
  O  O353  1  0.69356410  0.41643650  0.31187694  1
  O  O354  1  0.69357369  0.41635753  0.56192556  1
  O  O355  1  0.69527667  0.41608970  0.81136926  1
  O  O356  1  0.69188293  0.75065047  0.06288811  1
  O  O357  1  0.69006383  0.75005768  0.31321607  1
  O  O358  1  0.69023261  0.75055399  0.56261230  1
  O  O359  1  0.69445133  0.75056588  0.81089271  1
  O  O360  1  0.30658846  0.25042094  0.18852768  1
  O  O361  1  0.30586718  0.24999993  0.43824876  1
  O  O362  1  0.30638025  0.24979062  0.68837586  1
  O  O363  1  0.30929227  0.25009359  0.93686780  1
  O  O364  1  0.30748092  0.58315333  0.18894777  1
  O  O365  1  0.30840782  0.58373289  0.43732814  1
  O  O366  1  0.30579629  0.58306204  0.68808008  1
  O  O367  1  0.30743484  0.58309460  0.93833565  1
  O  O368  1  0.30984797  0.91579609  0.18738276  1
  O  O369  1  0.30664915  0.91695533  0.43822595  1
  O  O370  1  0.30939483  0.91679134  0.68635610  1
  O  O371  1  0.30669286  0.91682310  0.93894992  1
  O  O372  1  0.80577916  0.24911308  0.18908545  1
  O  O373  1  0.80901940  0.24905973  0.43800618  1
  O  O374  1  0.80948889  0.24955673  0.68687389  1
  O  O375  1  0.80808347  0.24956522  0.93660126  1
  O  O376  1  0.80503426  0.58353960  0.18913016  1
  O  O377  1  0.80951942  0.58346997  0.43760653  1
  O  O378  1  0.80882539  0.58299690  0.68633204  1
  O  O379  1  0.80529075  0.58361080  0.93848445  1
  O  O380  1  0.80752857  0.91696381  0.18785381  1
  O  O381  1  0.80627204  0.91741776  0.43909321  1
  O  O382  1  0.80941227  0.91724250  0.68652485  1
  O  O383  1  0.80596582  0.91716895  0.93888066  1
  O  O384  1  0.23530730  0.24960766  0.03815929  1
  O  O385  1  0.23428262  0.25077461  0.29101704  1
  O  O386  1  0.23177296  0.24972694  0.53940905  1
  O  O387  1  0.23449832  0.24971720  0.79076618  1
  O  O388  1  0.23384813  0.58283550  0.03957199  1
  O  O389  1  0.23340487  0.58294175  0.29019071  1
  O  O390  1  0.23281532  0.58259684  0.53746775  1
  O  O391  1  0.23405056  0.58337795  0.79073600  1
  O  O392  1  0.23352699  0.91711112  0.04087402  1
  O  O393  1  0.23527908  0.91720614  0.28801727  1
  O  O394  1  0.23281508  0.91721863  0.53945755  1
  O  O395  1  0.23572618  0.91722203  0.78772455  1
  O  O396  1  0.73458721  0.24960575  0.03811352  1
  O  O397  1  0.73215432  0.25029312  0.29014722  1
  O  O398  1  0.73362954  0.24968399  0.53791393  1
  O  O399  1  0.73418128  0.25027641  0.78718926  1
  O  O400  1  0.73227390  0.58315072  0.04033893  1
  O  O401  1  0.73147364  0.58305426  0.29031184  1
  O  O402  1  0.73530262  0.58298500  0.53808546  1
  O  O403  1  0.73381864  0.58343785  0.78714094  1
  O  O404  1  0.73400534  0.91692755  0.04141559  1
  O  O405  1  0.73177719  0.91664309  0.28771154  1
  O  O406  1  0.73369256  0.91696276  0.54088471  1
  O  O407  1  0.73478007  0.91641498  0.78727079  1
  O  O408  1  0.26738006  0.08365439  0.21291436  1
  O  O409  1  0.26593069  0.08358921  0.46232614  1
  O  O410  1  0.26776515  0.08374564  0.71074565  1
  O  O411  1  0.26856294  0.08256102  0.96029064  1
  O  O412  1  0.26849108  0.41710129  0.21053196  1
  O  O413  1  0.26555569  0.41678024  0.46312647  1
  O  O414  1  0.26592318  0.41613988  0.71256821  1
  O  O415  1  0.26559982  0.41674318  0.95975385  1
  O  O416  1  0.26683617  0.74873493  0.21001371  1
  O  O417  1  0.26628383  0.75044442  0.45986843  1
  O  O418  1  0.26850697  0.74966171  0.71049867  1
  O  O419  1  0.26657113  0.75103110  0.95989711  1
  O  O420  1  0.76452655  0.08409539  0.21192017  1
  O  O421  1  0.76429662  0.08342195  0.46168232  1
  O  O422  1  0.76452460  0.08418421  0.71111679  1
  O  O423  1  0.76737137  0.08314067  0.95967482  1
  O  O424  1  0.76697926  0.41617649  0.21036341  1
  O  O425  1  0.76640612  0.41603235  0.46038829  1
  O  O426  1  0.76846178  0.41610065  0.70952917  1
  O  O427  1  0.76734959  0.41703186  0.96181746  1
  O  O428  1  0.76361414  0.74931181  0.21203713  1
  O  O429  1  0.76447780  0.75060692  0.46187271  1
  O  O430  1  0.76769387  0.74939037  0.70946733  1
  O  O431  1  0.76714187  0.75029267  0.96241163  1
  O  O432  1  0.01514164  0.08267442  0.16343081  1
  O  O433  1  0.01773850  0.08356136  0.41447946  1
  O  O434  1  0.01822022  0.08361063  0.66459701  1
  O  O435  1  0.01537780  0.08384913  0.91578905  1
  O  O436  1  0.01398003  0.41622226  0.16413847  1
  O  O437  1  0.01468656  0.41654726  0.41200120  1
  O  O438  1  0.01731378  0.41613592  0.66457884  1
  O  O439  1  0.01523821  0.41643408  0.91367702  1
  O  O440  1  0.01467928  0.75097050  0.16353906  1
  O  O441  1  0.01602795  0.74959650  0.41473101  1
  O  O442  1  0.01582089  0.75001077  0.66604520  1
  O  O443  1  0.01423309  0.74979045  0.91356249  1
  O  O444  1  0.51475175  0.08374155  0.16359962  1
  O  O445  1  0.51623439  0.08298783  0.41301289  1
  O  O446  1  0.51582673  0.08370037  0.66198403  1
  O  O447  1  0.51658147  0.08404276  0.91345154  1
  O  O448  1  0.51843218  0.41722238  0.16492810  1
  O  O449  1  0.51462207  0.41682754  0.41434760  1
  O  O450  1  0.51455429  0.41652871  0.66308499  1
  O  O451  1  0.51634378  0.41565745  0.91234965  1
  O  O452  1  0.51890119  0.74957210  0.16409105  1
  O  O453  1  0.51847987  0.74947266  0.41471225  1
  O  O454  1  0.51767209  0.75054903  0.66535577  1
  O  O455  1  0.51641386  0.74995794  0.91281551  1
  O  O456  1  0.48517215  0.25030784  0.08697255  1
  O  O457  1  0.48504710  0.25031756  0.33684761  1
  O  O458  1  0.48497498  0.24941205  0.58636847  1
  O  O459  1  0.48309205  0.24959408  0.83406790  1
  O  O460  1  0.48642308  0.58295425  0.08556345  1
  O  O461  1  0.48280441  0.58322611  0.33503781  1
  O  O462  1  0.48481380  0.58360818  0.58784941  1
  O  O463  1  0.48640310  0.58295723  0.83639704  1
  O  O464  1  0.48305782  0.91672303  0.08656598  1
  O  O465  1  0.48446860  0.91660763  0.33409676  1
  O  O466  1  0.48180027  0.91661291  0.58498658  1
  O  O467  1  0.48389625  0.91809252  0.83519158  1
  O  O468  1  0.98312292  0.25023811  0.08575498  1
  O  O469  1  0.98288081  0.24937469  0.33719873  1
  O  O470  1  0.98271010  0.25015305  0.58515746  1
  O  O471  1  0.98169069  0.25014874  0.83571082  1
  O  O472  1  0.98369169  0.58341442  0.08756151  1
  O  O473  1  0.98331852  0.58308732  0.33669139  1
  O  O474  1  0.98245953  0.58287775  0.58524679  1
  O  O475  1  0.98284493  0.58224606  0.83512013  1
  O  O476  1  0.98226931  0.91664038  0.08496520  1
  O  O477  1  0.98494809  0.91723998  0.33688090  1
  O  O478  1  0.98289407  0.91680602  0.58525205  1
  O  O479  1  0.98453186  0.91722274  0.83761076  1
  O  O480  1  0.08697360  0.31492656  0.07748176  1
  O  O481  1  0.08645086  0.31415417  0.32718251  1
  O  O482  1  0.08666119  0.31522935  0.57694693  1
  O  O483  1  0.08511600  0.31602811  0.82780400  1
  O  O484  1  0.08721200  0.64831141  0.07794241  1
  O  O485  1  0.08723048  0.64807216  0.32671102  1
  O  O486  1  0.08684528  0.64714671  0.57667610  1
  O  O487  1  0.08649449  0.64720573  0.82723420  1
  O  O488  1  0.08637468  0.98170498  0.07613112  1
  O  O489  1  0.08830822  0.98301773  0.32820891  1
  O  O490  1  0.08695062  0.98227855  0.57767333  1
  O  O491  1  0.08820185  0.98209473  0.82818273  1
  O  O492  1  0.58821086  0.31659554  0.07816906  1
  O  O493  1  0.58929449  0.31387617  0.32774010  1
  O  O494  1  0.58866651  0.31439358  0.57684404  1
  O  O495  1  0.58750659  0.31364352  0.82567411  1
  O  O496  1  0.59030818  0.64780697  0.07783790  1
  O  O497  1  0.58693750  0.64839432  0.32777836  1
  O  O498  1  0.58829312  0.64901385  0.57926691  1
  O  O499  1  0.59028953  0.64783070  0.82708172  1
  O  O500  1  0.58667083  0.98130741  0.07730609  1
  O  O501  1  0.58803779  0.98225657  0.32715136  1
  O  O502  1  0.58540325  0.98195158  0.57761779  1
  O  O503  1  0.58751614  0.98337490  0.82768870  1
  O  O504  1  0.41153654  0.01743754  0.17231081  1
  O  O505  1  0.41202239  0.01876947  0.42257405  1
  O  O506  1  0.41258126  0.01758804  0.67192428  1
  O  O507  1  0.41233031  0.02025376  0.92279143  1
  O  O508  1  0.41453574  0.35207279  0.17384093  1
  O  O509  1  0.41027584  0.35321583  0.42339093  1
  O  O510  1  0.41082326  0.35151247  0.67255839  1
  O  O511  1  0.41292330  0.35024825  0.92120199  1
  O  O512  1  0.41508513  0.68519056  0.17266818  1
  O  O513  1  0.41490990  0.68357915  0.42276367  1
  O  O514  1  0.41367175  0.68584710  0.67378116  1
  O  O515  1  0.41311826  0.68468870  0.92257637  1
  O  O516  1  0.91187140  0.01668132  0.17231460  1
  O  O517  1  0.91378418  0.01897037  0.42289248  1
  O  O518  1  0.91440339  0.01824706  0.67238577  1
  O  O519  1  0.91108081  0.01965193  0.92320051  1
  O  O520  1  0.90986982  0.35183267  0.17288198  1
  O  O521  1  0.91139238  0.35126356  0.42121672  1
  O  O522  1  0.91303957  0.35151769  0.67227783  1
  O  O523  1  0.91165505  0.35056303  0.92222249  1
  O  O524  1  0.91095562  0.68649796  0.17276721  1
  O  O525  1  0.91245287  0.68402330  0.42169586  1
  O  O526  1  0.91189737  0.68491266  0.67246020  1
  O  O527  1  0.91057536  0.68463967  0.92305932  1
  O  O528  1  0.16368020  0.01893354  0.20253732  1
  O  O529  1  0.16238383  0.01816298  0.45271967  1
  O  O530  1  0.16369636  0.01879002  0.70154831  1
  O  O531  1  0.16490610  0.01689481  0.95286873  1
  O  O532  1  0.16441059  0.35277073  0.20230399  1
  O  O533  1  0.16233441  0.35114535  0.45314303  1
  O  O534  1  0.16198807  0.35151602  0.70232056  1
  O  O535  1  0.16181909  0.35127217  0.95144532  1
  O  O536  1  0.16294509  0.68340832  0.20319924  1
  O  O537  1  0.16257135  0.68502961  0.45304142  1
  O  O538  1  0.16433952  0.68505595  0.70217160  1
  O  O539  1  0.16255481  0.68657037  0.95218440  1
  O  O540  1  0.66123337  0.01864517  0.20311848  1
  O  O541  1  0.66019905  0.01929279  0.45258092  1
  O  O542  1  0.66051015  0.01976008  0.70179380  1
  O  O543  1  0.66335064  0.01817898  0.95121971  1
  O  O544  1  0.66304407  0.35128288  0.20235845  1
  O  O545  1  0.66278414  0.35054161  0.45296401  1
  O  O546  1  0.66429732  0.35131418  0.70226212  1
  O  O547  1  0.66386523  0.35222598  0.95192582  1
  O  O548  1  0.65971112  0.68483938  0.20377674  1
  O  O549  1  0.66092181  0.68527268  0.45277443  1
  O  O550  1  0.66351640  0.68443900  0.70192012  1
  O  O551  1  0.66385415  0.68452401  0.95319274  1
  O  O552  1  0.33897928  0.31423345  0.04694324  1
  O  O553  1  0.33819829  0.31560728  0.29731290  1
  O  O554  1  0.33555580  0.31498127  0.54772894  1
  O  O555  1  0.33844735  0.31496130  0.79734385  1
  O  O556  1  0.33736729  0.64835460  0.04778171  1
  O  O557  1  0.33771115  0.64723098  0.29880477  1
  O  O558  1  0.33644959  0.64779691  0.54755061  1
  O  O559  1  0.33821386  0.64800788  0.79678582  1
  O  O560  1  0.33764865  0.98256008  0.04779812  1
  O  O561  1  0.33887129  0.98218077  0.29677162  1
  O  O562  1  0.33673344  0.98277508  0.54742601  1
  O  O563  1  0.33920327  0.98221767  0.79590836  1
  O  O564  1  0.83809169  0.31456203  0.04622330  1
  O  O565  1  0.83624087  0.31551362  0.29795171  1
  O  O566  1  0.83772842  0.31418503  0.54793800  1
  O  O567  1  0.83787478  0.31582896  0.79653988  1
  O  O568  1  0.83561279  0.64884212  0.04801955  1
  O  O569  1  0.83582414  0.64733534  0.29888603  1
  O  O570  1  0.83877171  0.64840069  0.54761674  1
  O  O571  1  0.83736533  0.64814468  0.79629046  1
  O  O572  1  0.83772897  0.98233441  0.04789142  1
  O  O573  1  0.83532192  0.98172010  0.29816160  1
  O  O574  1  0.83755863  0.98219067  0.54850501  1
  O  O575  1  0.83823174  0.98121146  0.79667133  1
  O  O576  1  0.41066639  0.14754330  0.17296782  1
  O  O577  1  0.41281918  0.14864916  0.42349751  1
  O  O578  1  0.41180362  0.14757388  0.67254806  1
  O  O579  1  0.41327772  0.15028517  0.92211081  1
  O  O580  1  0.41425340  0.48188744  0.17331185  1
  O  O581  1  0.41135406  0.48330079  0.42251932  1
  O  O582  1  0.41082932  0.48148319  0.67280915  1
  O  O583  1  0.41304253  0.48052749  0.92228958  1
  O  O584  1  0.41529410  0.81528136  0.17253445  1
  O  O585  1  0.41442280  0.81364852  0.42264284  1
  O  O586  1  0.41348965  0.81584228  0.67256670  1
  O  O587  1  0.41288106  0.81498777  0.92200393  1
  O  O588  1  0.91131746  0.14690247  0.17276062  1
  O  O589  1  0.91399814  0.14900890  0.42276530  1
  O  O590  1  0.91409957  0.14836238  0.67201022  1
  O  O591  1  0.91163416  0.14960059  0.92250484  1
  O  O592  1  0.91035855  0.48173286  0.17333075  1
  O  O593  1  0.91128969  0.48164141  0.42096657  1
  O  O594  1  0.91345593  0.48158730  0.67262579  1
  O  O595  1  0.91117728  0.48055931  0.92322768  1
  O  O596  1  0.91128765  0.81671335  0.17198305  1
  O  O597  1  0.91220993  0.81426154  0.42218559  1
  O  O598  1  0.91188292  0.81515266  0.67255079  1
  O  O599  1  0.91035809  0.81462183  0.92273658  1
  O  O600  1  0.08667609  0.18474195  0.07732306  1
  O  O601  1  0.08657410  0.18395543  0.32797838  1
  O  O602  1  0.08697704  0.18520678  0.57732840  1
  O  O603  1  0.08584164  0.18595036  0.82749419  1
  O  O604  1  0.08702236  0.51807329  0.07793406  1
  O  O605  1  0.08720409  0.51819459  0.32651146  1
  O  O606  1  0.08618121  0.51706975  0.57694253  1
  O  O607  1  0.08658264  0.51700640  0.82823531  1
  O  O608  1  0.08638657  0.85184029  0.07614496  1
  O  O609  1  0.08860271  0.85275331  0.32749807  1
  O  O610  1  0.08710552  0.85229535  0.57706795  1
  O  O611  1  0.08785882  0.85190197  0.82777850  1
  O  O612  1  0.58898122  0.18638240  0.07802078  1
  O  O613  1  0.58813622  0.18382622  0.32835390  1
  O  O614  1  0.58881447  0.18432436  0.57805719  1
  O  O615  1  0.58691373  0.18382084  0.82662747  1
  O  O616  1  0.58998029  0.51749669  0.07747630  1
  O  O617  1  0.58681897  0.51852671  0.32685191  1
  O  O618  1  0.58815783  0.51874225  0.57799415  1
  O  O619  1  0.59008404  0.51786763  0.82678209  1
  O  O620  1  0.58661820  0.85113950  0.07779185  1
  O  O621  1  0.58864463  0.85209570  0.32767913  1
  O  O622  1  0.58590637  0.85185901  0.57821664  1
  O  O623  1  0.58764723  0.85323545  0.82714904  1
  O  O624  1  0.33878048  0.18407386  0.04618815  1
  O  O625  1  0.33783711  0.18535111  0.29777231  1
  O  O626  1  0.33583253  0.18493373  0.54749394  1
  O  O627  1  0.33867363  0.18485534  0.79721302  1
  O  O628  1  0.33785138  0.51827649  0.04767234  1
  O  O629  1  0.33722440  0.51728612  0.29825377  1
  O  O630  1  0.33661311  0.51771365  0.54710592  1
  O  O631  1  0.33755200  0.51764559  0.79694314  1
  O  O632  1  0.33783349  0.85263952  0.04853208  1
  O  O633  1  0.33852675  0.85177156  0.29755256  1
  O  O634  1  0.33724707  0.85281652  0.54774085  1
  O  O635  1  0.33908143  0.85174201  0.79611005  1
  O  O636  1  0.83778231  0.18413385  0.04633224  1
  O  O637  1  0.83613797  0.18558280  0.29931030  1
  O  O638  1  0.83716633  0.18439215  0.54845475  1
  O  O639  1  0.83810876  0.18580404  0.79727032  1
  O  O640  1  0.83629228  0.51864717  0.04758441  1
  O  O641  1  0.83547142  0.51739858  0.29801617  1
  O  O642  1  0.83928302  0.51853336  0.54749172  1
  O  O643  1  0.83699494  0.51783736  0.79636539  1
  O  O644  1  0.83800804  0.85216086  0.04801320  1
  O  O645  1  0.83535721  0.85166633  0.29786881  1
  O  O646  1  0.83802026  0.85238671  0.54801992  1
  O  O647  1  0.83816264  0.85090583  0.79596092  1
  O  O648  1  0.16397474  0.14899890  0.20255560  1
  O  O649  1  0.16196824  0.14840788  0.45272604  1
  O  O650  1  0.16359132  0.14861223  0.70184363  1
  O  O651  1  0.16457125  0.14702524  0.95212675  1
  O  O652  1  0.16465841  0.48285878  0.20288553  1
  O  O653  1  0.16177084  0.48136925  0.45331498  1
  O  O654  1  0.16229673  0.48147401  0.70219025  1
  O  O655  1  0.16122755  0.48118847  0.95165375  1
  O  O656  1  0.16308751  0.81368540  0.20222992  1
  O  O657  1  0.16257936  0.81554196  0.45311608  1
  O  O658  1  0.16482216  0.81505914  0.70200364  1
  O  O659  1  0.16318569  0.81697044  0.95298515  1
  O  O660  1  0.66097659  0.14897325  0.20389178  1
  O  O661  1  0.66077345  0.14927224  0.45340626  1
  O  O662  1  0.66094310  0.14982046  0.70271354  1
  O  O663  1  0.66330080  0.14804087  0.95086655  1
  O  O664  1  0.66313277  0.48138564  0.20250962  1
  O  O665  1  0.66255832  0.48054477  0.45246920  1
  O  O666  1  0.66466338  0.48138367  0.70213979  1
  O  O667  1  0.66376419  0.48224923  0.95293320  1
  O  O668  1  0.66033452  0.81510985  0.20300903  1
  O  O669  1  0.66055673  0.81526545  0.45283821  1
  O  O670  1  0.66362300  0.81436299  0.70115125  1
  O  O671  1  0.66351349  0.81469982  0.95249360  1
