# generated using pymatgen
data_Na2MnFe(PO4)2
_symmetry_space_group_name_H-M   'P 1'
_cell_length_a   21.08089420
_cell_length_b   18.93238947
_cell_length_c   20.04027536
_cell_angle_alpha   90.00065867
_cell_angle_beta   89.99874930
_cell_angle_gamma   89.99807421
_symmetry_Int_Tables_number   1
_chemical_formula_structural   Na2MnFe(PO4)2
_chemical_formula_sum   'Na96 Mn48 Fe48 P96 O384'
_cell_volume   7998.30834890
_cell_formula_units_Z   48
loop_
 _symmetry_equiv_pos_site_id
 _symmetry_equiv_pos_as_xyz
  1  'x, y, z'
loop_
 _atom_site_type_symbol
 _atom_site_label
 _atom_site_symmetry_multiplicity
 _atom_site_fract_x
 _atom_site_fract_y
 _atom_site_fract_z
 _atom_site_occupancy
  Na  Na0  1  0.00125132  0.00027324  0.00035772  1
  Na  Na1  1  0.00083838  0.00083817  0.25014574  1
  Na  Na2  1  -0.00097663  -0.00020608  0.49941827  1
  Na  Na3  1  0.00001580  -0.00019685  0.74919022  1
  Na  Na4  1  0.00171718  0.33382567  0.00008088  1
  Na  Na5  1  -0.00052737  0.33320329  0.25051843  1
  Na  Na6  1  -0.00141090  0.33295297  0.50039280  1
  Na  Na7  1  -0.00093448  0.33224304  0.74980091  1
  Na  Na8  1  0.00021851  0.66702319  -0.00022471  1
  Na  Na9  1  -0.00345858  0.66487084  0.25123366  1
  Na  Na10  1  0.00106763  0.66740133  0.49927992  1
  Na  Na11  1  0.00179962  0.66708080  0.74969481  1
  Na  Na12  1  0.49926836  0.00065169  -0.00050183  1
  Na  Na13  1  0.50146288  0.00109981  0.25014062  1
  Na  Na14  1  0.49948204  -0.00002408  0.50022527  1
  Na  Na15  1  0.49783412  -0.00027562  0.75052577  1
  Na  Na16  1  0.50149104  0.33334668  -0.00034753  1
  Na  Na17  1  0.50129245  0.33311564  0.24971981  1
  Na  Na18  1  0.49911335  0.33317305  0.50037906  1
  Na  Na19  1  0.49971754  0.33355508  0.74969679  1
  Na  Na20  1  0.49871187  0.66601094  0.00083694  1
  Na  Na21  1  0.50025508  0.66679494  0.24919286  1
  Na  Na22  1  0.50009343  0.66681913  0.49921771  1
  Na  Na23  1  0.49687368  0.66557856  0.75106310  1
  Na  Na24  1  0.24783302  -0.00027368  0.12472425  1
  Na  Na25  1  0.24853201  -0.00008261  0.37607862  1
  Na  Na26  1  0.25001703  0.00096995  0.62506249  1
  Na  Na27  1  0.24853995  0.00049126  0.87485146  1
  Na  Na28  1  0.24888398  0.33317882  0.12595621  1
  Na  Na29  1  0.24826376  0.33294697  0.37335046  1
  Na  Na30  1  0.25083793  0.33465230  0.62544901  1
  Na  Na31  1  0.24822172  0.33276736  0.87632889  1
  Na  Na32  1  0.25305056  0.66732809  0.12464737  1
  Na  Na33  1  0.25182126  0.66686002  0.37525988  1
  Na  Na34  1  0.24860142  0.66562879  0.62511403  1
  Na  Na35  1  0.25177665  0.66716933  0.87427022  1
  Na  Na36  1  0.74961238  -0.00005164  0.12333490  1
  Na  Na37  1  0.75207064  0.00096727  0.37463427  1
  Na  Na38  1  0.75237289  -0.00019052  0.62611941  1
  Na  Na39  1  0.75270168  0.00085410  0.87527909  1
  Na  Na40  1  0.74963100  0.33268298  0.12443202  1
  Na  Na41  1  0.75084614  0.33272041  0.37445997  1
  Na  Na42  1  0.75214011  0.33326572  0.62597582  1
  Na  Na43  1  0.75010465  0.33309395  0.87401378  1
  Na  Na44  1  0.74861624  0.66577207  0.12571219  1
  Na  Na45  1  0.74933988  0.66645869  0.37477286  1
  Na  Na46  1  0.75155639  0.66726225  0.62420856  1
  Na  Na47  1  0.75040719  0.66688036  0.87604405  1
  Na  Na48  1  0.00088234  0.16634675  -0.00075707  1
  Na  Na49  1  -0.00255403  0.16780159  0.25147522  1
  Na  Na50  1  -0.00172248  0.16676728  0.49916787  1
  Na  Na51  1  0.00001965  0.16648482  0.74988821  1
  Na  Na52  1  0.00109631  0.49972971  -0.00000960  1
  Na  Na53  1  0.00041773  0.49970048  0.25046254  1
  Na  Na54  1  0.00006783  0.50050097  0.50016606  1
  Na  Na55  1  0.00154500  0.49945642  0.74903983  1
  Na  Na56  1  0.00045843  0.83336312  0.00076615  1
  Na  Na57  1  -0.00118289  0.83323691  0.25006834  1
  Na  Na58  1  -0.00071382  0.83319784  0.49941714  1
  Na  Na59  1  0.00091472  0.83290014  0.75006557  1
  Na  Na60  1  0.50018214  0.16652612  -0.00049624  1
  Na  Na61  1  0.50138964  0.16691558  0.24922859  1
  Na  Na62  1  0.50071612  0.16652021  0.50012193  1
  Na  Na63  1  0.49786904  0.16703847  0.75137933  1
  Na  Na64  1  0.49988271  0.50034655  0.00025659  1
  Na  Na65  1  0.49940599  0.50035349  0.24970564  1
  Na  Na66  1  0.49657013  0.50083892  0.50058770  1
  Na  Na67  1  0.49740232  0.50027337  0.75003671  1
  Na  Na68  1  0.49980989  0.83304563  0.00021623  1
  Na  Na69  1  0.50115977  0.83283802  0.25015080  1
  Na  Na70  1  0.50135689  0.83322771  0.49897421  1
  Na  Na71  1  0.49918712  0.83391114  0.74990029  1
  Na  Na72  1  0.24922119  0.16640796  0.12558649  1
  Na  Na73  1  0.24944129  0.16643567  0.37459085  1
  Na  Na74  1  0.24758868  0.16725284  0.62523689  1
  Na  Na75  1  0.24982058  0.16573392  0.87542877  1
  Na  Na76  1  0.25047503  0.50004184  0.12520753  1
  Na  Na77  1  0.25046083  0.50035116  0.37358585  1
  Na  Na78  1  0.25197444  0.49927665  0.62515954  1
  Na  Na79  1  0.25021508  0.49967032  0.87597871  1
  Na  Na80  1  0.25062676  0.83290933  0.12452946  1
  Na  Na81  1  0.24968579  0.83298790  0.37635794  1
  Na  Na82  1  0.24940926  0.83323584  0.62530114  1
  Na  Na83  1  0.24847518  0.83401284  0.87384123  1
  Na  Na84  1  0.74993168  0.16783343  0.12375645  1
  Na  Na85  1  0.75224612  0.16663452  0.37486493  1
  Na  Na86  1  0.75458322  0.16542004  0.62491490  1
  Na  Na87  1  0.75148153  0.16729228  0.87536378  1
  Na  Na88  1  0.74892342  0.50022962  0.12536794  1
  Na  Na89  1  0.75094392  0.49997296  0.37476909  1
  Na  Na90  1  0.75103904  0.49977252  0.62562143  1
  Na  Na91  1  0.74804532  0.50098785  0.87475743  1
  Na  Na92  1  0.74975075  0.83233546  0.12410418  1
  Na  Na93  1  0.74768202  0.83410788  0.37468699  1
  Na  Na94  1  0.75122653  0.83325314  0.62544754  1
  Na  Na95  1  0.75185839  0.83283713  0.87561801  1
  Mn  Mn96  1  0.10764277  0.74923931  0.37195301  1
  Mn  Mn97  1  0.64338234  0.24935649  0.74770279  1
  Mn  Mn98  1  0.89278936  0.58320704  0.87751036  1
  Mn  Mn99  1  0.10836450  0.41653656  0.62177863  1
  Mn  Mn100  1  0.14262178  0.58352442  0.99842203  1
  Mn  Mn101  1  0.85836211  0.41732916  0.75301435  1
  Mn  Mn102  1  0.85859708  0.08381883  0.00236935  1
  Mn  Mn103  1  0.60698426  0.41674019  0.62255231  1
  Mn  Mn104  1  0.64359011  0.24946623  0.49850560  1
  Mn  Mn105  1  0.14176121  0.24996711  0.74766170  1
  Mn  Mn106  1  0.14208321  0.91654260  0.99750681  1
  Mn  Mn107  1  0.14173703  0.91653495  0.49806983  1
  Mn  Mn108  1  0.10778551  0.74927796  0.12351810  1
  Mn  Mn109  1  0.60779459  0.75011621  0.62369931  1
  Mn  Mn110  1  0.35736995  0.08424893  0.50248347  1
  Mn  Mn111  1  0.14236157  0.58463440  0.24762961  1
  Mn  Mn112  1  0.35775421  0.08244434  0.25190240  1
  Mn  Mn113  1  0.85784825  0.41726797  0.00155689  1
  Mn  Mn114  1  0.14303463  0.58349314  0.74805016  1
  Mn  Mn115  1  0.10660287  0.08374457  0.37286355  1
  Mn  Mn116  1  0.89145370  0.91628801  0.37692510  1
  Mn  Mn117  1  0.39162229  0.25045887  0.87805601  1
  Mn  Mn118  1  0.35798562  0.74968404  0.50285291  1
  Mn  Mn119  1  0.89256851  0.91675272  0.12779592  1
  Mn  Mn120  1  0.60741623  0.08348601  0.87211494  1
  Mn  Mn121  1  0.60805131  0.41705711  0.37371763  1
  Mn  Mn122  1  0.89304202  0.58375628  0.62727552  1
  Mn  Mn123  1  0.35759620  0.41672810  0.25221874  1
  Mn  Mn124  1  0.60827140  0.08311018  0.62370166  1
  Mn  Mn125  1  0.39243681  0.91670061  0.37723580  1
  Mn  Mn126  1  0.64183717  0.58305793  0.49794949  1
  Mn  Mn127  1  0.39207598  0.91714661  0.12788369  1
  Mn  Mn128  1  0.39218216  0.25051523  0.37730790  1
  Mn  Mn129  1  0.64172239  0.58407671  0.74765237  1
  Mn  Mn130  1  0.39094247  0.91614984  0.87727702  1
  Mn  Mn131  1  0.60934567  0.08359392  0.37298077  1
  Mn  Mn132  1  0.39101732  0.24941727  0.62734025  1
  Mn  Mn133  1  0.60733498  0.74972951  0.87239081  1
  Mn  Mn134  1  0.85718958  0.75016247  0.50205545  1
  Mn  Mn135  1  0.64231780  0.91733070  0.24701507  1
  Mn  Mn136  1  0.64338504  0.91687560  0.74807073  1
  Mn  Mn137  1  0.35695098  0.75057602  0.75210687  1
  Mn  Mn138  1  0.35734856  0.41581216  0.00289899  1
  Mn  Mn139  1  0.64230824  0.91679732  0.99713511  1
  Mn  Mn140  1  0.85811806  0.41678598  0.25221554  1
  Mn  Mn141  1  0.14107693  0.24923874  0.24728081  1
  Mn  Mn142  1  0.85812876  0.74895937  0.00246867  1
  Mn  Mn143  1  0.60806303  0.41645873  0.12243326  1
  Fe  Fe144  1  0.35582728  0.08364857  0.75137290  1
  Fe  Fe145  1  0.14182038  0.91704810  0.74746520  1
  Fe  Fe146  1  0.64197401  0.58275131  0.99821990  1
  Fe  Fe147  1  0.89222815  0.25123052  0.37709579  1
  Fe  Fe148  1  0.14328558  0.58242419  0.49783076  1
  Fe  Fe149  1  0.89275025  0.91640098  0.62690766  1
  Fe  Fe150  1  0.89285422  0.25056174  0.12601891  1
  Fe  Fe151  1  0.64261912  0.58281120  0.24853980  1
  Fe  Fe152  1  0.89221070  0.58272704  0.37701936  1
  Fe  Fe153  1  0.60681486  0.41682701  0.87309890  1
  Fe  Fe154  1  0.39348944  0.58292343  0.12689243  1
  Fe  Fe155  1  0.64293034  0.25060721  0.99767323  1
  Fe  Fe156  1  0.10700272  0.75034355  0.62304991  1
  Fe  Fe157  1  0.14163496  0.25106566  0.49820360  1
  Fe  Fe158  1  0.10685319  0.41657684  0.12385425  1
  Fe  Fe159  1  0.60783209  0.08348364  0.12290041  1
  Fe  Fe160  1  0.35634610  0.08335369  0.00224185  1
  Fe  Fe161  1  0.85787910  0.08291616  0.50228977  1
  Fe  Fe162  1  0.85734880  0.08286119  0.25030845  1
  Fe  Fe163  1  0.60723149  0.74949809  0.37278820  1
  Fe  Fe164  1  0.89178038  0.58264364  0.12662676  1
  Fe  Fe165  1  0.85813582  0.41664943  0.50183111  1
  Fe  Fe166  1  0.89402759  0.24991417  0.87701957  1
  Fe  Fe167  1  0.39319373  0.24989247  0.12628757  1
  Fe  Fe168  1  0.35640880  0.41611885  0.50083039  1
  Fe  Fe169  1  0.39300269  0.58331451  0.37647271  1
  Fe  Fe170  1  0.89354281  0.24979337  0.62665168  1
  Fe  Fe171  1  0.85891725  0.75005121  0.75197303  1
  Fe  Fe172  1  0.85608558  0.75001146  0.25122173  1
  Fe  Fe173  1  0.10724315  0.08322676  0.87294392  1
  Fe  Fe174  1  0.39239182  0.91670245  0.62651263  1
  Fe  Fe175  1  0.35739871  0.75083967  0.00172153  1
  Fe  Fe176  1  0.14209384  0.24972485  0.99921752  1
  Fe  Fe177  1  0.10797242  0.74991099  0.87340238  1
  Fe  Fe178  1  0.39163769  0.58399624  0.62667019  1
  Fe  Fe179  1  0.10677951  0.41693578  0.37421122  1
  Fe  Fe180  1  0.89436095  0.91651788  0.87619229  1
  Fe  Fe181  1  0.10688497  0.08404618  0.12371101  1
  Fe  Fe182  1  0.85917125  0.08269781  0.75244748  1
  Fe  Fe183  1  0.10764900  0.41681126  0.87325865  1
  Fe  Fe184  1  0.60678271  0.75028260  0.12320128  1
  Fe  Fe185  1  0.14237193  0.91598880  0.24887106  1
  Fe  Fe186  1  0.39259973  0.58304442  0.87744114  1
  Fe  Fe187  1  0.35726647  0.41575316  0.75269539  1
  Fe  Fe188  1  0.10627841  0.08302761  0.62304298  1
  Fe  Fe189  1  0.64288103  0.91726574  0.49945132  1
  Fe  Fe190  1  0.64355784  0.24996968  0.24805911  1
  Fe  Fe191  1  0.35815383  0.75081725  0.25165458  1
  P  P192  1  0.05239983  0.24978917  0.10994048  1
  P  P193  1  0.05284914  0.25135690  0.36155690  1
  P  P194  1  0.05278358  0.24902624  0.60939268  1
  P  P195  1  0.05402046  0.24990678  0.86140002  1
  P  P196  1  0.05174651  0.58298900  0.11042922  1
  P  P197  1  0.05335430  0.58209879  0.36125475  1
  P  P198  1  0.05479760  0.58414268  0.60912086  1
  P  P199  1  0.05402484  0.58326658  0.86008012  1
  P  P200  1  0.05472619  0.91705134  0.11158696  1
  P  P201  1  0.05351449  0.91640184  0.35923499  1
  P  P202  1  0.05283634  0.91664236  0.61095260  1
  P  P203  1  0.05377815  0.91668772  0.85952618  1
  P  P204  1  0.55472611  0.24920353  0.11015224  1
  P  P205  1  0.55468697  0.25025424  0.35938627  1
  P  P206  1  0.55296439  0.24956249  0.61024595  1
  P  P207  1  0.55445747  0.25091332  0.86082274  1
  P  P208  1  0.55426282  0.58381915  0.11094095  1
  P  P209  1  0.55295646  0.58359322  0.35945750  1
  P  P210  1  0.55121233  0.58354809  0.61016639  1
  P  P211  1  0.55296203  0.58247243  0.86118714  1
  P  P212  1  0.55350799  0.91694727  0.10980471  1
  P  P213  1  0.55511953  0.91640865  0.36112538  1
  P  P214  1  0.55270051  0.91693067  0.60985553  1
  P  P215  1  0.55276414  0.91670515  0.85962901  1
  P  P216  1  0.44686697  0.08446804  0.13865105  1
  P  P217  1  0.44719275  0.08371779  0.39011651  1
  P  P218  1  0.44572787  0.08263282  0.64101777  1
  P  P219  1  0.44385520  0.08337561  0.88980114  1
  P  P220  1  0.44664106  0.41592935  0.13966560  1
  P  P221  1  0.44605141  0.41743571  0.39043986  1
  P  P222  1  0.44365199  0.41714397  0.63939052  1
  P  P223  1  0.44624142  0.41701932  0.88949064  1
  P  P224  1  0.44600745  0.74970682  0.13934472  1
  P  P225  1  0.44656292  0.74930762  0.38859478  1
  P  P226  1  0.44630538  0.75047985  0.63995849  1
  P  P227  1  0.44544568  0.74933471  0.89086290  1
  P  P228  1  0.94752519  0.08446539  0.14034934  1
  P  P229  1  0.94377188  0.08391058  0.38903544  1
  P  P230  1  0.94592730  0.08314208  0.63899588  1
  P  P231  1  0.94731845  0.08277968  0.88872560  1
  P  P232  1  0.94752343  0.41656420  0.13965530  1
  P  P233  1  0.94667896  0.41703943  0.39051500  1
  P  P234  1  0.94617504  0.41613961  0.63893675  1
  P  P235  1  0.94851739  0.41613849  0.88999364  1
  P  P236  1  0.94581934  0.74879338  0.14096452  1
  P  P237  1  0.94478996  0.74913401  0.38858990  1
  P  P238  1  0.94732458  0.75054829  0.64015451  1
  P  P239  1  0.94757659  0.75083286  0.88895405  1
  P  P240  1  0.19544878  0.08218814  0.23466392  1
  P  P241  1  0.19444843  0.08445544  0.48628198  1
  P  P242  1  0.19464028  0.08271343  0.73544278  1
  P  P243  1  0.19512730  0.08442897  0.98585255  1
  P  P244  1  0.19430671  0.41714315  0.23548492  1
  P  P245  1  0.19703736  0.41695459  0.48401532  1
  P  P246  1  0.19680090  0.41677494  0.73621549  1
  P  P247  1  0.19438740  0.41584510  0.98641646  1
  P  P248  1  0.19851918  0.75052330  0.23493694  1
  P  P249  1  0.19526151  0.74893413  0.48618792  1
  P  P250  1  0.19438022  0.75085697  0.73528099  1
  P  P251  1  0.19757774  0.74963527  0.98438080  1
  P  P252  1  0.69784298  0.08449630  0.23388233  1
  P  P253  1  0.69889636  0.08254866  0.48570511  1
  P  P254  1  0.69946100  0.08334310  0.73531421  1
  P  P255  1  0.69571733  0.08446942  0.98550775  1
  P  P256  1  0.69676579  0.41647152  0.23528337  1
  P  P257  1  0.69865747  0.41625612  0.48532042  1
  P  P258  1  0.69560575  0.41677519  0.73586654  1
  P  P259  1  0.69578931  0.41665535  0.98410205  1
  P  P260  1  0.69529590  0.74900417  0.23548189  1
  P  P261  1  0.69540215  0.75088146  0.48460760  1
  P  P262  1  0.69886699  0.75018466  0.73518580  1
  P  P263  1  0.69508471  0.74885309  0.98617189  1
  P  P264  1  0.30213441  0.24908799  0.01610972  1
  P  P265  1  0.30403486  0.24956190  0.26374108  1
  P  P266  1  0.30096631  0.25108704  0.51467422  1
  P  P267  1  0.30272889  0.24972287  0.76543390  1
  P  P268  1  0.30545355  0.58385989  0.01460468  1
  P  P269  1  0.30578246  0.58440015  0.26412114  1
  P  P270  1  0.30385834  0.58223905  0.51393933  1
  P  P271  1  0.30549346  0.58246324  0.76476001  1
  P  P272  1  0.30306854  0.91701659  0.01485419  1
  P  P273  1  0.30196739  0.91610893  0.26545050  1
  P  P274  1  0.30366320  0.91677536  0.51597399  1
  P  P275  1  0.30236536  0.91782714  0.76349830  1
  P  P276  1  0.80458912  0.25079217  0.01397923  1
  P  P277  1  0.80478098  0.24930204  0.26362425  1
  P  P278  1  0.80615432  0.25032241  0.51453747  1
  P  P279  1  0.80673184  0.24906981  0.76477370  1
  P  P280  1  0.80220798  0.58279682  0.01585426  1
  P  P281  1  0.80387537  0.58385553  0.26432418  1
  P  P282  1  0.80445432  0.58254822  0.51399206  1
  P  P283  1  0.80370598  0.58456845  0.76541049  1
  P  P284  1  0.80532074  0.91650812  0.01368370  1
  P  P285  1  0.80311888  0.91646047  0.26412121  1
  P  P286  1  0.80303964  0.91696548  0.51568861  1
  P  P287  1  0.80651965  0.91629438  0.76491434  1
  O  O288  1  0.05513461  0.24953934  0.18673225  1
  O  O289  1  0.05759133  0.25064720  0.43820234  1
  O  O290  1  0.05635384  0.24980935  0.68616311  1
  O  O291  1  0.05827523  0.24975793  0.93806500  1
  O  O292  1  0.05553960  0.58389020  0.18711292  1
  O  O293  1  0.05855600  0.58314384  0.43784937  1
  O  O294  1  0.05790428  0.58288605  0.68590616  1
  O  O295  1  0.05670757  0.58355289  0.93686705  1
  O  O296  1  0.05856474  0.91601815  0.18830200  1
  O  O297  1  0.05658911  0.91617713  0.43606779  1
  O  O298  1  0.05730273  0.91682013  0.68762789  1
  O  O299  1  0.05681911  0.91669419  0.93637155  1
  O  O300  1  0.55963553  0.24977826  0.18685405  1
  O  O301  1  0.55809271  0.25007897  0.43618375  1
  O  O302  1  0.55666273  0.24947382  0.68701673  1
  O  O303  1  0.55884495  0.25006132  0.93758258  1
  O  O304  1  0.55905049  0.58297641  0.18761591  1
  O  O305  1  0.55631186  0.58287870  0.43621854  1
  O  O306  1  0.55516543  0.58338020  0.68689411  1
  O  O307  1  0.55773441  0.58306662  0.93787718  1
  O  O308  1  0.55649212  0.91706670  0.18664816  1
  O  O309  1  0.55925093  0.91752949  0.43784512  1
  O  O310  1  0.55687219  0.91717683  0.68657911  1
  O  O311  1  0.55641014  0.91694446  0.93637715  1
  O  O312  1  0.44145330  0.08377246  0.06203217  1
  O  O313  1  0.44381995  0.08368880  0.31331269  1
  O  O314  1  0.44291644  0.08381054  0.56418927  1
  O  O315  1  0.43899773  0.08338296  0.81308130  1
  O  O316  1  0.44388465  0.41592276  0.06290653  1
  O  O317  1  0.44338206  0.41623775  0.31364141  1
  O  O318  1  0.43949038  0.41599122  0.56261723  1
  O  O319  1  0.44152157  0.41590513  0.81278047  1
  O  O320  1  0.44125411  0.75063441  0.06269607  1
  O  O321  1  0.44207040  0.75044848  0.31189034  1
  O  O322  1  0.44423558  0.75047310  0.56313812  1
  O  O323  1  0.44222043  0.75067881  0.81401413  1
  O  O324  1  0.94441211  0.08353659  0.06352507  1
  O  O325  1  0.93999245  0.08296443  0.31227518  1
  O  O326  1  0.94164456  0.08265111  0.56221490  1
  O  O327  1  0.94337152  0.08300821  0.81200339  1
  O  O328  1  0.94418086  0.41675827  0.06297981  1
  O  O329  1  0.94346932  0.41694700  0.31380418  1
  O  O330  1  0.94210849  0.41706633  0.56220302  1
  O  O331  1  0.94483399  0.41675020  0.81329149  1
  O  O332  1  0.94348061  0.74962556  0.06406957  1
  O  O333  1  0.93999123  0.74983415  0.31192671  1
  O  O334  1  0.94328990  0.75008533  0.56343694  1
  O  O335  1  0.94319541  0.74980359  0.81229369  1
  O  O336  1  0.19034310  0.08392839  0.06252288  1
  O  O337  1  0.19231078  0.08353472  0.31147043  1
  O  O338  1  0.19010656  0.08373235  0.56307305  1
  O  O339  1  0.19028758  0.08318230  0.81224823  1
  O  O340  1  0.19005459  0.41683599  0.06321719  1
  O  O341  1  0.18999432  0.41712842  0.31220490  1
  O  O342  1  0.19417580  0.41703436  0.56083429  1
  O  O343  1  0.19155724  0.41665379  0.81291012  1
  O  O344  1  0.19356949  0.74933346  0.06108672  1
  O  O345  1  0.19441010  0.74929818  0.31164324  1
  O  O346  1  0.19093925  0.74983138  0.56294510  1
  O  O347  1  0.19069333  0.75012152  0.81210051  1
  O  O348  1  0.69131869  0.08375063  0.06226257  1
  O  O349  1  0.69485872  0.08391281  0.31065866  1
  O  O350  1  0.69510655  0.08305154  0.56236172  1
  O  O351  1  0.69474384  0.08367105  0.81197641  1
  O  O352  1  0.69325426  0.41643425  0.06098669  1
  O  O353  1  0.69408864  0.41665580  0.31200429  1
  O  O354  1  0.69449483  0.41657309  0.56203896  1
  O  O355  1  0.69077914  0.41695303  0.81259276  1
  O  O356  1  0.69056586  0.74954974  0.06293462  1
  O  O357  1  0.69090571  0.74951713  0.31222880  1
  O  O358  1  0.69298363  0.74995310  0.56145108  1
  O  O359  1  0.69446037  0.74995870  0.81188458  1
  O  O360  1  0.30892507  0.24976197  0.18707655  1
  O  O361  1  0.30478437  0.25015374  0.43797237  1
  O  O362  1  0.30532901  0.24993538  0.68864378  1
  O  O363  1  0.30571769  0.24997253  0.93936690  1
  O  O364  1  0.31018310  0.58332627  0.18731272  1
  O  O365  1  0.30851579  0.58347574  0.43723862  1
  O  O366  1  0.30874098  0.58343980  0.68789218  1
  O  O367  1  0.30888469  0.58275446  0.93776777  1
  O  O368  1  0.30574821  0.91683473  0.18869528  1
  O  O369  1  0.30698291  0.91664365  0.43916463  1
  O  O370  1  0.30743772  0.91698652  0.68690961  1
  O  O371  1  0.30529826  0.91706377  0.93805636  1
  O  O372  1  0.80940186  0.25049553  0.18686764  1
  O  O373  1  0.80919360  0.25074981  0.43761372  1
  O  O374  1  0.81080026  0.24972887  0.68795223  1
  O  O375  1  0.81029275  0.25055391  0.93733307  1
  O  O376  1  0.80845824  0.58271227  0.18759579  1
  O  O377  1  0.80834801  0.58295816  0.43718172  1
  O  O378  1  0.80726800  0.58381990  0.68863336  1
  O  O379  1  0.80686423  0.58296521  0.93918419  1
  O  O380  1  0.80579769  0.91620190  0.18731251  1
  O  O381  1  0.80620328  0.91626216  0.43893311  1
  O  O382  1  0.81019673  0.91616266  0.68805156  1
  O  O383  1  0.81031415  0.91668948  0.93697745  1
  O  O384  1  0.23199232  0.24978030  0.04048926  1
  O  O385  1  0.23374114  0.24941975  0.28723542  1
  O  O386  1  0.23102517  0.25132800  0.53970278  1
  O  O387  1  0.23314837  0.24962430  0.79094250  1
  O  O388  1  0.23546728  0.58334219  0.03925284  1
  O  O389  1  0.23559099  0.58383294  0.28787693  1
  O  O390  1  0.23357544  0.58249026  0.53798271  1
  O  O391  1  0.23556086  0.58321077  0.78935183  1
  O  O392  1  0.23346560  0.91660737  0.04035138  1
  O  O393  1  0.23210077  0.91632536  0.29049626  1
  O  O394  1  0.23375720  0.91693734  0.54047071  1
  O  O395  1  0.23205428  0.91736146  0.78736270  1
  O  O396  1  0.73399666  0.25066716  0.03667689  1
  O  O397  1  0.73443617  0.24992563  0.28745327  1
  O  O398  1  0.73640994  0.24959061  0.53978589  1
  O  O399  1  0.73659150  0.24983175  0.78867232  1
  O  O400  1  0.73195980  0.58262605  0.03959265  1
  O  O401  1  0.73341032  0.58323523  0.28792929  1
  O  O402  1  0.73455276  0.58343833  0.53865913  1
  O  O403  1  0.73395594  0.58430873  0.79030487  1
  O  O404  1  0.73516274  0.91627543  0.03730379  1
  O  O405  1  0.73360487  0.91726399  0.28973839  1
  O  O406  1  0.73311315  0.91650142  0.54072732  1
  O  O407  1  0.73657220  0.91683598  0.78956545  1
  O  O408  1  0.26518127  0.08296265  0.20964631  1
  O  O409  1  0.26443916  0.08344872  0.46197495  1
  O  O410  1  0.26494657  0.08369508  0.71166963  1
  O  O411  1  0.26551109  0.08346009  0.96222318  1
  O  O412  1  0.26450178  0.41707660  0.21171707  1
  O  O413  1  0.26685442  0.41670394  0.45866498  1
  O  O414  1  0.26715852  0.41670474  0.71285228  1
  O  O415  1  0.26458633  0.41611634  0.96262317  1
  O  O416  1  0.26853156  0.75017231  0.21040303  1
  O  O417  1  0.26538085  0.74964606  0.46222546  1
  O  O418  1  0.26445197  0.74993729  0.71106769  1
  O  O419  1  0.26767035  0.75042874  0.96004685  1
  O  O420  1  0.76781741  0.08371332  0.20880665  1
  O  O421  1  0.76897017  0.08339832  0.46107643  1
  O  O422  1  0.76975015  0.08271481  0.71167805  1
  O  O423  1  0.76594619  0.08439224  0.96178081  1
  O  O424  1  0.76637087  0.41643381  0.20968054  1
  O  O425  1  0.76860937  0.41617650  0.46058319  1
  O  O426  1  0.76586932  0.41658142  0.71248610  1
  O  O427  1  0.76544251  0.41688287  0.95868110  1
  O  O428  1  0.76565107  0.74932338  0.21159129  1
  O  O429  1  0.76506876  0.75026944  0.45923261  1
  O  O430  1  0.76894373  0.75029023  0.71085571  1
  O  O431  1  0.76527546  0.74935660  0.96237112  1
  O  O432  1  0.01741623  0.08446943  0.16537217  1
  O  O433  1  0.01383715  0.08322210  0.41324942  1
  O  O434  1  0.01630690  0.08327771  0.66293806  1
  O  O435  1  0.01755078  0.08292482  0.91301131  1
  O  O436  1  0.01741936  0.41624196  0.16487843  1
  O  O437  1  0.01664007  0.41676140  0.41551843  1
  O  O438  1  0.01622453  0.41609597  0.66318243  1
  O  O439  1  0.01850043  0.41670151  0.91464615  1
  O  O440  1  0.01543364  0.74902151  0.16648929  1
  O  O441  1  0.01493199  0.74973459  0.41239043  1
  O  O442  1  0.01756333  0.74988512  0.66416086  1
  O  O443  1  0.01783926  0.75037046  0.91316000  1
  O  O444  1  0.51730174  0.08399817  0.16218032  1
  O  O445  1  0.51694063  0.08360993  0.41502651  1
  O  O446  1  0.51538312  0.08333841  0.66648334  1
  O  O447  1  0.51420872  0.08354272  0.91296416  1
  O  O448  1  0.51632298  0.41646978  0.16498160  1
  O  O449  1  0.51563721  0.41716961  0.41598369  1
  O  O450  1  0.51375343  0.41674023  0.66355956  1
  O  O451  1  0.51642506  0.41694019  0.91355084  1
  O  O452  1  0.51649387  0.75001291  0.16284631  1
  O  O453  1  0.51683963  0.74933925  0.41249659  1
  O  O454  1  0.51560613  0.74988430  0.66638023  1
  O  O455  1  0.51518551  0.74954444  0.91570015  1
  O  O456  1  0.48433000  0.24997931  0.08640651  1
  O  O457  1  0.48483743  0.25018848  0.33466070  1
  O  O458  1  0.48308935  0.24947673  0.58559593  1
  O  O459  1  0.48428754  0.25033531  0.83707147  1
  O  O460  1  0.48370314  0.58309392  0.08764596  1
  O  O461  1  0.48295676  0.58339015  0.33474340  1
  O  O462  1  0.48111927  0.58385618  0.58578472  1
  O  O463  1  0.48258861  0.58295977  0.83756195  1
  O  O464  1  0.48381468  0.91696996  0.08463666  1
  O  O465  1  0.48519856  0.91672445  0.33642286  1
  O  O466  1  0.48258086  0.91677261  0.58550913  1
  O  O467  1  0.48286283  0.91661209  0.83525704  1
  O  O468  1  0.98247344  0.25000001  0.08470876  1
  O  O469  1  0.98244810  0.25112836  0.33791072  1
  O  O470  1  0.98264334  0.24944436  0.58516807  1
  O  O471  1  0.98382238  0.24955785  0.83703704  1
  O  O472  1  0.98175603  0.58331305  0.08554936  1
  O  O473  1  0.98293724  0.58222216  0.33776545  1
  O  O474  1  0.98495136  0.58402294  0.58440516  1
  O  O475  1  0.98452688  0.58312043  0.83428336  1
  O  O476  1  0.98484687  0.91669796  0.08685504  1
  O  O477  1  0.98369213  0.91672779  0.33460335  1
  O  O478  1  0.98257881  0.91665053  0.58668004  1
  O  O479  1  0.98385012  0.91672925  0.83459282  1
  O  O480  1  0.08680718  0.31476807  0.07772404  1
  O  O481  1  0.08614735  0.31639264  0.32845667  1
  O  O482  1  0.08683767  0.31398559  0.57647180  1
  O  O483  1  0.08719276  0.31516767  0.82818006  1
  O  O484  1  0.08596152  0.64783365  0.07747005  1
  O  O485  1  0.08654339  0.64695132  0.32710183  1
  O  O486  1  0.08878085  0.64932595  0.57701777  1
  O  O487  1  0.08820705  0.64842780  0.82789609  1
  O  O488  1  0.08799459  0.98259792  0.07908598  1
  O  O489  1  0.08784624  0.98136842  0.32701624  1
  O  O490  1  0.08612561  0.98172097  0.57767493  1
  O  O491  1  0.08771581  0.98180609  0.82691365  1
  O  O492  1  0.58849741  0.31415208  0.07674508  1
  O  O493  1  0.58875498  0.31539792  0.32691032  1
  O  O494  1  0.58678733  0.31464968  0.57755154  1
  O  O495  1  0.58759228  0.31629522  0.82805742  1
  O  O496  1  0.58706868  0.64906757  0.07763521  1
  O  O497  1  0.58707184  0.64860797  0.32693635  1
  O  O498  1  0.58526926  0.64853955  0.57769312  1
  O  O499  1  0.58619720  0.64753814  0.82754620  1
  O  O500  1  0.58771976  0.98200375  0.07747278  1
  O  O501  1  0.58897317  0.98124707  0.32771095  1
  O  O502  1  0.58666399  0.98195837  0.57688806  1
  O  O503  1  0.58666084  0.98172092  0.82686250  1
  O  O504  1  0.41360296  0.01947464  0.17249698  1
  O  O505  1  0.41292336  0.01875997  0.42248004  1
  O  O506  1  0.41169191  0.01713453  0.67280941  1
  O  O507  1  0.41042841  0.01837216  0.92318881  1
  O  O508  1  0.41282016  0.35063094  0.17196190  1
  O  O509  1  0.41139766  0.35274047  0.42326356  1
  O  O510  1  0.40978253  0.35233273  0.67305688  1
  O  O511  1  0.41277233  0.35215181  0.92319795  1
  O  O512  1  0.41286739  0.68445736  0.17234992  1
  O  O513  1  0.41318713  0.68395158  0.42137445  1
  O  O514  1  0.41128153  0.68560839  0.67171971  1
  O  O515  1  0.41139212  0.68409494  0.92285443  1
  O  O516  1  0.91338497  0.01953419  0.17319555  1
  O  O517  1  0.90988682  0.01914109  0.42256417  1
  O  O518  1  0.91261101  0.01816794  0.67247417  1
  O  O519  1  0.91405301  0.01760760  0.92178055  1
  O  O520  1  0.91354889  0.35143437  0.17212875  1
  O  O521  1  0.91237800  0.35210035  0.42303423  1
  O  O522  1  0.91265111  0.35089273  0.67150599  1
  O  O523  1  0.91493915  0.35098073  0.92260964  1
  O  O524  1  0.91126064  0.68367649  0.17263569  1
  O  O525  1  0.91173444  0.68380714  0.42163902  1
  O  O526  1  0.91339135  0.68572948  0.67340745  1
  O  O527  1  0.91381338  0.68600474  0.92250700  1
  O  O528  1  0.16169909  0.01676121  0.20274127  1
  O  O529  1  0.16036224  0.01962238  0.45328198  1
  O  O530  1  0.16141069  0.01758573  0.70216302  1
  O  O531  1  0.16129729  0.01966469  0.95220520  1
  O  O532  1  0.16063054  0.35206707  0.20240915  1
  O  O533  1  0.16234971  0.35207249  0.45177149  1
  O  O534  1  0.16350955  0.35179056  0.70266274  1
  O  O535  1  0.16107030  0.35050546  0.95364331  1
  O  O536  1  0.16468282  0.68563957  0.20157666  1
  O  O537  1  0.16233637  0.68352666  0.45305327  1
  O  O538  1  0.16041133  0.68611251  0.70208625  1
  O  O539  1  0.16410155  0.68445481  0.95140659  1
  O  O540  1  0.66320935  0.01979455  0.20114847  1
  O  O541  1  0.66552837  0.01724453  0.45299671  1
  O  O542  1  0.66559184  0.01835138  0.70252009  1
  O  O543  1  0.66248070  0.01940249  0.95204246  1
  O  O544  1  0.66268145  0.35132407  0.20289455  1
  O  O545  1  0.66482015  0.35118815  0.45269699  1
  O  O546  1  0.66237237  0.35163836  0.70262165  1
  O  O547  1  0.66154050  0.35160017  0.95176934  1
  O  O548  1  0.66186347  0.68381875  0.20259671  1
  O  O549  1  0.66072610  0.68609917  0.45191939  1
  O  O550  1  0.66491195  0.68530774  0.70212765  1
  O  O551  1  0.66203531  0.68333023  0.95336742  1
  O  O552  1  0.33653348  0.31380330  0.04906159  1
  O  O553  1  0.33706322  0.31479142  0.29713585  1
  O  O554  1  0.33508423  0.31615843  0.54689933  1
  O  O555  1  0.33687824  0.31480037  0.79799992  1
  O  O556  1  0.33906516  0.64929961  0.04678463  1
  O  O557  1  0.33906748  0.64967856  0.29700427  1
  O  O558  1  0.33742786  0.64701044  0.54793171  1
  O  O559  1  0.33965880  0.64734093  0.79767680  1
  O  O560  1  0.33690867  0.98228386  0.04733817  1
  O  O561  1  0.33595162  0.98116924  0.29816805  1
  O  O562  1  0.33788358  0.98169670  0.54847356  1
  O  O563  1  0.33537421  0.98303160  0.79676412  1
  O  O564  1  0.83751220  0.31586677  0.04768562  1
  O  O565  1  0.83850973  0.31405780  0.29749543  1
  O  O566  1  0.83981728  0.31544921  0.54742496  1
  O  O567  1  0.84068393  0.31387342  0.79815997  1
  O  O568  1  0.83601278  0.64765129  0.04900934  1
  O  O569  1  0.83694813  0.64910656  0.29737466  1
  O  O570  1  0.83847340  0.64754628  0.54680387  1
  O  O571  1  0.83776392  0.64973029  0.79770308  1
  O  O572  1  0.83846763  0.98174774  0.04699462  1
  O  O573  1  0.83768671  0.98153182  0.29593587  1
  O  O574  1  0.83725534  0.98200585  0.54806236  1
  O  O575  1  0.84073887  0.98131283  0.79757567  1
  O  O576  1  0.41384178  0.14971728  0.17185033  1
  O  O577  1  0.41312927  0.14883356  0.42266687  1
  O  O578  1  0.41068675  0.14724138  0.67362720  1
  O  O579  1  0.41040983  0.14828492  0.92342914  1
  O  O580  1  0.41228453  0.48096875  0.17184230  1
  O  O581  1  0.41178125  0.48283639  0.42203261  1
  O  O582  1  0.41026512  0.48255905  0.67195539  1
  O  O583  1  0.41270234  0.48212233  0.92233781  1
  O  O584  1  0.41260675  0.81456758  0.17328916  1
  O  O585  1  0.41308154  0.81403054  0.42236751  1
  O  O586  1  0.41211752  0.81582637  0.67203837  1
  O  O587  1  0.41105014  0.81416640  0.92373222  1
  O  O588  1  0.91319786  0.14953729  0.17227726  1
  O  O589  1  0.91058369  0.14934898  0.42163040  1
  O  O590  1  0.91271396  0.14836125  0.67208882  1
  O  O591  1  0.91375879  0.14779334  0.92194369  1
  O  O592  1  0.91366002  0.48161127  0.17242949  1
  O  O593  1  0.91261795  0.48206374  0.42313989  1
  O  O594  1  0.91274128  0.48116735  0.67233830  1
  O  O595  1  0.91442044  0.48107761  0.92282016  1
  O  O596  1  0.91119345  0.81370821  0.17337576  1
  O  O597  1  0.91134646  0.81413383  0.42209115  1
  O  O598  1  0.91387609  0.81568913  0.67302937  1
  O  O599  1  0.91446293  0.81616489  0.92183193  1
  O  O600  1  0.08652535  0.18477688  0.07729194  1
  O  O601  1  0.08593075  0.18630949  0.32783088  1
  O  O602  1  0.08636152  0.18392909  0.57679954  1
  O  O603  1  0.08741556  0.18485846  0.82811165  1
  O  O604  1  0.08564838  0.51780083  0.07814087  1
  O  O605  1  0.08651000  0.51686090  0.32834007  1
  O  O606  1  0.08897272  0.51916428  0.57623602  1
  O  O607  1  0.08834219  0.51807535  0.82795695  1
  O  O608  1  0.08850936  0.85214669  0.07826485  1
  O  O609  1  0.08767775  0.85146492  0.32652651  1
  O  O610  1  0.08625099  0.85148432  0.57787613  1
  O  O611  1  0.08791667  0.85168951  0.82707670  1
  O  O612  1  0.58795216  0.18415075  0.07677711  1
  O  O613  1  0.58905827  0.18539066  0.32661679  1
  O  O614  1  0.58710597  0.18449345  0.57780286  1
  O  O615  1  0.58809643  0.18600419  0.82731564  1
  O  O616  1  0.58777293  0.51901951  0.07713093  1
  O  O617  1  0.58715415  0.51864257  0.32663412  1
  O  O618  1  0.58479732  0.51848669  0.57708387  1
  O  O619  1  0.58600762  0.51733122  0.82785832  1
  O  O620  1  0.58752170  0.85157654  0.07779938  1
  O  O621  1  0.58847269  0.85093086  0.32855644  1
  O  O622  1  0.58677866  0.85192314  0.57723821  1
  O  O623  1  0.58669756  0.85155640  0.82720105  1
  O  O624  1  0.33590375  0.18379890  0.04846568  1
  O  O625  1  0.33737086  0.18460884  0.29714583  1
  O  O626  1  0.33466681  0.18606486  0.54785840  1
  O  O627  1  0.33679643  0.18445719  0.79742202  1
  O  O628  1  0.33950545  0.51911937  0.04797643  1
  O  O629  1  0.33954516  0.51958532  0.29763054  1
  O  O630  1  0.33710416  0.51685670  0.54654639  1
  O  O631  1  0.33896698  0.51719944  0.79748625  1
  O  O632  1  0.33749742  0.85197712  0.04694465  1
  O  O633  1  0.33604123  0.85093928  0.29774460  1
  O  O634  1  0.33765776  0.85167435  0.54856006  1
  O  O635  1  0.33577676  0.85281185  0.79713038  1
  O  O636  1  0.83795076  0.18595500  0.04778348  1
  O  O637  1  0.83792289  0.18397530  0.29635785  1
  O  O638  1  0.84058126  0.18525570  0.54678232  1
  O  O639  1  0.84003758  0.18372300  0.79763714  1
  O  O640  1  0.83598706  0.51771568  0.04877608  1
  O  O641  1  0.83770195  0.51907010  0.29789202  1
  O  O642  1  0.83788959  0.51734050  0.54684597  1
  O  O643  1  0.83764137  0.51944536  0.79822946  1
  O  O644  1  0.83879271  0.85154770  0.04689811  1
  O  O645  1  0.83667508  0.85113578  0.29673270  1
  O  O646  1  0.83742661  0.85211708  0.54847968  1
  O  O647  1  0.84010131  0.85105701  0.79779907  1
  O  O648  1  0.16075415  0.14688797  0.20172064  1
  O  O649  1  0.16144694  0.14993861  0.45337095  1
  O  O650  1  0.16066156  0.14749359  0.70223776  1
  O  O651  1  0.16220665  0.14977997  0.95263221  1
  O  O652  1  0.16085047  0.48212252  0.20212539  1
  O  O653  1  0.16299359  0.48208663  0.45145771  1
  O  O654  1  0.16374530  0.48175245  0.70256930  1
  O  O655  1  0.16089764  0.48074608  0.95277854  1
  O  O656  1  0.16468814  0.81573034  0.20269178  1
  O  O657  1  0.16142391  0.81378959  0.45295469  1
  O  O658  1  0.16104223  0.81618977  0.70248596  1
  O  O659  1  0.16309378  0.81443068  0.95172238  1
  O  O660  1  0.66404082  0.14975969  0.20154502  1
  O  O661  1  0.66496979  0.14742539  0.45259496  1
  O  O662  1  0.66628932  0.14837557  0.70187612  1
  O  O663  1  0.66239534  0.14974731  0.95269246  1
  O  O664  1  0.66252355  0.48157571  0.20296946  1
  O  O665  1  0.66468893  0.48130082  0.45253133  1
  O  O666  1  0.66239983  0.48194042  0.70250335  1
  O  O667  1  0.66122637  0.48182815  0.95222393  1
  O  O668  1  0.66176530  0.81394649  0.20194909  1
  O  O669  1  0.66145624  0.81634246  0.45288466  1
  O  O670  1  0.66509044  0.81535439  0.70257613  1
  O  O671  1  0.66160849  0.81369237  0.95259360  1
