# generated using pymatgen
data_Na2MnFe(PO4)2
_symmetry_space_group_name_H-M   'P 1'
_cell_length_a   21.08286751
_cell_length_b   18.93518695
_cell_length_c   20.04225469
_cell_angle_alpha   90.00046292
_cell_angle_beta   90.00094706
_cell_angle_gamma   89.99983477
_symmetry_Int_Tables_number   1
_chemical_formula_structural   Na2MnFe(PO4)2
_chemical_formula_sum   'Na96 Mn48 Fe48 P96 O384'
_cell_volume   8001.02916444
_cell_formula_units_Z   48
loop_
 _symmetry_equiv_pos_site_id
 _symmetry_equiv_pos_as_xyz
  1  'x, y, z'
loop_
 _atom_site_type_symbol
 _atom_site_label
 _atom_site_symmetry_multiplicity
 _atom_site_fract_x
 _atom_site_fract_y
 _atom_site_fract_z
 _atom_site_occupancy
  Na  Na0  1  -0.00005052  0.00001973  0.00006497  1
  Na  Na1  1  0.00174600  0.00012132  0.24936025  1
  Na  Na2  1  -0.00049545  -0.00018524  0.50022919  1
  Na  Na3  1  -0.00108395  0.00008175  0.75032001  1
  Na  Na4  1  0.00059208  0.33331935  0.00029205  1
  Na  Na5  1  -0.00046459  0.33317837  0.25022549  1
  Na  Na6  1  -0.00057364  0.33388932  0.50008798  1
  Na  Na7  1  -0.00103744  0.33278806  0.75067640  1
  Na  Na8  1  0.00111995  0.66785648  -0.00034539  1
  Na  Na9  1  -0.00103384  0.66680634  0.24986408  1
  Na  Na10  1  0.00025161  0.66763645  0.49971412  1
  Na  Na11  1  -0.00076680  0.66670389  0.74961876  1
  Na  Na12  1  0.50254673  0.00011380  0.00100384  1
  Na  Na13  1  0.50015250  -0.00034659  0.24901517  1
  Na  Na14  1  0.50244692  0.00060110  0.50013198  1
  Na  Na15  1  0.50307425  -0.00012349  0.75031969  1
  Na  Na16  1  0.50037119  0.33357472  -0.00105281  1
  Na  Na17  1  0.50039752  0.33367026  0.24940305  1
  Na  Na18  1  0.50064588  0.33371292  0.49937428  1
  Na  Na19  1  0.50022956  0.33311043  0.75125484  1
  Na  Na20  1  0.50016287  0.66780961  0.00082266  1
  Na  Na21  1  0.49852838  0.66680657  0.25025441  1
  Na  Na22  1  0.49853788  0.66662427  0.49909568  1
  Na  Na23  1  0.49833491  0.66601441  0.75057126  1
  Na  Na24  1  0.24839599  -0.00050499  0.12522888  1
  Na  Na25  1  0.24879761  -0.00041897  0.37492020  1
  Na  Na26  1  0.24804311  -0.00046716  0.62519300  1
  Na  Na27  1  0.24744634  -0.00024941  0.87553799  1
  Na  Na28  1  0.25200990  0.33340871  0.12524210  1
  Na  Na29  1  0.25133791  0.33307385  0.37500995  1
  Na  Na30  1  0.25137182  0.33345346  0.62469718  1
  Na  Na31  1  0.25236494  0.33389447  0.87382657  1
  Na  Na32  1  0.25206354  0.66776907  0.12495424  1
  Na  Na33  1  0.25134498  0.66729306  0.37530755  1
  Na  Na34  1  0.25129875  0.66682110  0.62525041  1
  Na  Na35  1  0.25061586  0.66666495  0.87374026  1
  Na  Na36  1  0.74950447  -0.00076188  0.12517315  1
  Na  Na37  1  0.75093375  0.00013665  0.37472504  1
  Na  Na38  1  0.75020160  -0.00004535  0.62419185  1
  Na  Na39  1  0.75060567  0.00020499  0.87522207  1
  Na  Na40  1  0.74785020  0.33305266  0.12445501  1
  Na  Na41  1  0.74895290  0.33425679  0.37509879  1
  Na  Na42  1  0.74919418  0.33410662  0.62554040  1
  Na  Na43  1  0.74764448  0.33283535  0.87564723  1
  Na  Na44  1  0.74823413  0.66682796  0.12460742  1
  Na  Na45  1  0.75034156  0.66709735  0.37453957  1
  Na  Na46  1  0.75141680  0.66768834  0.62614632  1
  Na  Na47  1  0.74860443  0.66717099  0.87588565  1
  Na  Na48  1  0.00125920  0.16589160  -0.00079523  1
  Na  Na49  1  0.00170661  0.16555666  0.24880859  1
  Na  Na50  1  -0.00030390  0.16621002  0.50042009  1
  Na  Na51  1  -0.00184119  0.16686626  0.75051464  1
  Na  Na52  1  -0.00023711  0.50027046  -0.00001583  1
  Na  Na53  1  -0.00035452  0.49999172  0.25035022  1
  Na  Na54  1  -0.00045550  0.49989006  0.49992631  1
  Na  Na55  1  0.00105150  0.49908975  0.75019853  1
  Na  Na56  1  -0.00044966  0.83364761  0.00052061  1
  Na  Na57  1  -0.00083944  0.83400953  0.25044530  1
  Na  Na58  1  -0.00066902  0.83317686  0.49949287  1
  Na  Na59  1  -0.00129834  0.83353685  0.75006271  1
  Na  Na60  1  0.50040622  0.16581876  0.00029364  1
  Na  Na61  1  0.49809908  0.16659226  0.25007996  1
  Na  Na62  1  0.50021713  0.16576697  0.49929578  1
  Na  Na63  1  0.50098733  0.16618935  0.75113568  1
  Na  Na64  1  0.50045235  0.49936651  -0.00016599  1
  Na  Na65  1  0.50004597  0.49991028  0.24960963  1
  Na  Na66  1  0.50116511  0.49951393  0.49920080  1
  Na  Na67  1  0.49933112  0.50053543  0.75081747  1
  Na  Na68  1  0.50212270  0.83329720  0.00050758  1
  Na  Na69  1  0.50091160  0.83335469  0.24895889  1
  Na  Na70  1  0.49984158  0.83458416  0.49992161  1
  Na  Na71  1  0.50258295  0.83298121  0.75055766  1
  Na  Na72  1  0.25001064  0.16572890  0.12549657  1
  Na  Na73  1  0.24948369  0.16638633  0.37404020  1
  Na  Na74  1  0.25065044  0.16586215  0.62595234  1
  Na  Na75  1  0.24743483  0.16765129  0.87474517  1
  Na  Na76  1  0.25298113  0.49980422  0.12411384  1
  Na  Na77  1  0.25247543  0.49960912  0.37602217  1
  Na  Na78  1  0.25141604  0.50021039  0.62409106  1
  Na  Na79  1  0.25278502  0.49941129  0.87409921  1
  Na  Na80  1  0.24969138  0.83336554  0.12558380  1
  Na  Na81  1  0.24921726  0.83426213  0.37524013  1
  Na  Na82  1  0.24863982  0.83374481  0.62492967  1
  Na  Na83  1  0.24941318  0.83327393  0.87450351  1
  Na  Na84  1  0.74957326  0.16625773  0.12536253  1
  Na  Na85  1  0.74947876  0.16636919  0.37500658  1
  Na  Na86  1  0.75149543  0.16560607  0.62544238  1
  Na  Na87  1  0.75089455  0.16587098  0.87505419  1
  Na  Na88  1  0.74633537  0.50042291  0.12505939  1
  Na  Na89  1  0.74850743  0.49968776  0.37472785  1
  Na  Na90  1  0.74759817  0.50000070  0.62572840  1
  Na  Na91  1  0.74744558  0.49966267  0.87540358  1
  Na  Na92  1  0.75001707  0.83404989  0.12392566  1
  Na  Na93  1  0.75225192  0.83299183  0.37452234  1
  Na  Na94  1  0.75156896  0.83325775  0.62469288  1
  Na  Na95  1  0.74853559  0.83423288  0.87629585  1
  Mn  Mn96  1  0.89182696  0.58305500  0.87777796  1
  Mn  Mn97  1  0.60844919  0.74947462  0.62236222  1
  Mn  Mn98  1  0.14292817  0.25034596  0.24754198  1
  Mn  Mn99  1  0.35703411  0.08262303  0.00150265  1
  Mn  Mn100  1  0.89146038  0.58258308  0.62713425  1
  Mn  Mn101  1  0.85630890  0.41636582  0.00240575  1
  Mn  Mn102  1  0.10814647  0.74986929  0.12304224  1
  Mn  Mn103  1  0.64132288  0.58436214  0.74756023  1
  Mn  Mn104  1  0.39322144  0.91645126  0.87753588  1
  Mn  Mn105  1  0.35799123  0.08274307  0.50217485  1
  Mn  Mn106  1  0.60760953  0.08358581  0.12260909  1
  Mn  Mn107  1  0.89226672  0.24989180  0.12678606  1
  Mn  Mn108  1  0.10792255  0.41678996  0.37237356  1
  Mn  Mn109  1  0.89189786  0.24959247  0.37731071  1
  Mn  Mn110  1  0.64134589  0.58475882  0.24765960  1
  Mn  Mn111  1  0.35760238  0.75094256  0.50212077  1
  Mn  Mn112  1  0.14270714  0.58359275  0.49743196  1
  Mn  Mn113  1  0.85827979  0.08319778  0.25228252  1
  Mn  Mn114  1  0.39271817  0.58330526  0.12708560  1
  Mn  Mn115  1  0.35837495  0.75042990  0.75236747  1
  Mn  Mn116  1  0.10704196  0.08387828  0.62281844  1
  Mn  Mn117  1  0.60797757  0.75063437  0.37251337  1
  Mn  Mn118  1  0.14324849  0.58304775  0.99749382  1
  Mn  Mn119  1  0.35898925  0.41615362  0.50273108  1
  Mn  Mn120  1  0.39255063  0.24927486  0.37742979  1
  Mn  Mn121  1  0.85670357  0.41715764  0.25168123  1
  Mn  Mn122  1  0.14310487  0.58269841  0.74779486  1
  Mn  Mn123  1  0.89159453  0.25065749  0.62719053  1
  Mn  Mn124  1  0.64193956  0.25035990  0.49807852  1
  Mn  Mn125  1  0.39273887  0.24908684  0.87784301  1
  Mn  Mn126  1  0.64234430  0.24899405  0.74749577  1
  Mn  Mn127  1  0.10861190  0.41664373  0.87280569  1
  Mn  Mn128  1  0.39270431  0.91720014  0.62746239  1
  Mn  Mn129  1  0.64119775  0.24923042  0.24734219  1
  Mn  Mn130  1  0.10905718  0.41652763  0.12276226  1
  Mn  Mn131  1  0.85712521  0.41687612  0.75286520  1
  Mn  Mn132  1  0.89142922  0.58352659  0.37780278  1
  Mn  Mn133  1  0.14218864  0.25091372  0.74781480  1
  Mn  Mn134  1  0.64309679  0.91593037  0.49696796  1
  Mn  Mn135  1  0.14122441  0.91653637  0.74823522  1
  Mn  Mn136  1  0.10709283  0.74929603  0.62268745  1
  Mn  Mn137  1  0.85693415  0.74981849  0.00233954  1
  Mn  Mn138  1  0.89126302  0.58359194  0.12673543  1
  Mn  Mn139  1  0.35852133  0.08305950  0.75256560  1
  Mn  Mn140  1  0.39228143  0.91719722  0.12686870  1
  Mn  Mn141  1  0.14221349  0.24946167  0.49786176  1
  Mn  Mn142  1  0.14334352  0.58342871  0.24800268  1
  Mn  Mn143  1  0.89180320  0.91662460  0.62727690  1
  Fe  Fe144  1  0.89342907  0.91698119  0.37597369  1
  Fe  Fe145  1  0.39237275  0.24949228  0.12563468  1
  Fe  Fe146  1  0.35866483  0.41666523  0.25192159  1
  Fe  Fe147  1  0.14271861  0.91625181  0.24865221  1
  Fe  Fe148  1  0.10770882  0.08330593  0.12257652  1
  Fe  Fe149  1  0.39336447  0.24972586  0.62655702  1
  Fe  Fe150  1  0.60605442  0.41685119  0.87334024  1
  Fe  Fe151  1  0.10720094  0.08299234  0.37361562  1
  Fe  Fe152  1  0.60819926  0.08395931  0.62316312  1
  Fe  Fe153  1  0.64216805  0.58383426  0.49867838  1
  Fe  Fe154  1  0.10722174  0.75024395  0.87345353  1
  Fe  Fe155  1  0.60712032  0.75016973  0.87332832  1
  Fe  Fe156  1  0.85710234  0.08360556  0.00159396  1
  Fe  Fe157  1  0.10569231  0.08310593  0.87338674  1
  Fe  Fe158  1  0.64330244  0.91645459  0.24878599  1
  Fe  Fe159  1  0.64342729  0.91710595  0.99803974  1
  Fe  Fe160  1  0.85629651  0.41709531  0.50190659  1
  Fe  Fe161  1  0.10776571  0.41664233  0.62308982  1
  Fe  Fe162  1  0.85693442  0.08291795  0.75242770  1
  Fe  Fe163  1  0.85737290  0.08379269  0.50119462  1
  Fe  Fe164  1  0.85762822  0.74917961  0.50140945  1
  Fe  Fe165  1  0.85703321  0.75029906  0.75293684  1
  Fe  Fe166  1  0.64117694  0.58356666  0.99792513  1
  Fe  Fe167  1  0.60767278  0.08296493  0.37303056  1
  Fe  Fe168  1  0.35661203  0.08234369  0.25198927  1
  Fe  Fe169  1  0.14184773  0.91667826  0.49765315  1
  Fe  Fe170  1  0.60879675  0.08296434  0.87328391  1
  Fe  Fe171  1  0.64199314  0.24920281  0.99815219  1
  Fe  Fe172  1  0.35784060  0.75092816  0.25239026  1
  Fe  Fe173  1  0.89237746  0.91679893  0.87704854  1
  Fe  Fe174  1  0.89292894  0.91682272  0.12677282  1
  Fe  Fe175  1  0.39341115  0.58295976  0.62628122  1
  Fe  Fe176  1  0.10684405  0.75024879  0.37293193  1
  Fe  Fe177  1  0.39331724  0.58405134  0.87699749  1
  Fe  Fe178  1  0.39323329  0.58396396  0.37650524  1
  Fe  Fe179  1  0.14188738  0.91624461  0.99815868  1
  Fe  Fe180  1  0.35817752  0.41638384  0.00157627  1
  Fe  Fe181  1  0.85707005  0.74988302  0.25112401  1
  Fe  Fe182  1  0.64399716  0.91672977  0.74872653  1
  Fe  Fe183  1  0.14320585  0.25014029  0.99840271  1
  Fe  Fe184  1  0.60705066  0.41643175  0.37315890  1
  Fe  Fe185  1  0.60665835  0.41634772  0.62356447  1
  Fe  Fe186  1  0.60732992  0.74986282  0.12349090  1
  Fe  Fe187  1  0.35746540  0.75077484  0.00114425  1
  Fe  Fe188  1  0.39263727  0.91680809  0.37638361  1
  Fe  Fe189  1  0.89244745  0.25002263  0.87774697  1
  Fe  Fe190  1  0.35851428  0.41641920  0.75077805  1
  Fe  Fe191  1  0.60618074  0.41657799  0.12290883  1
  P  P192  1  0.05451404  0.24931752  0.10914848  1
  P  P193  1  0.05328667  0.24895668  0.35976440  1
  P  P194  1  0.05303825  0.25100495  0.61013329  1
  P  P195  1  0.05342802  0.24927835  0.86142258  1
  P  P196  1  0.05340623  0.58349755  0.10976578  1
  P  P197  1  0.05318923  0.58440218  0.35980048  1
  P  P198  1  0.05332487  0.58233144  0.60983052  1
  P  P199  1  0.05366463  0.58416811  0.85991283  1
  P  P200  1  0.05438632  0.91693103  0.11078258  1
  P  P201  1  0.05419614  0.91667493  0.36062106  1
  P  P202  1  0.05342382  0.91649566  0.60922948  1
  P  P203  1  0.05285619  0.91664503  0.86156053  1
  P  P204  1  0.55216611  0.25029966  0.10924524  1
  P  P205  1  0.55354501  0.24956893  0.35996816  1
  P  P206  1  0.55237716  0.24981874  0.61032753  1
  P  P207  1  0.55514646  0.24937293  0.86151241  1
  P  P208  1  0.55373254  0.58373610  0.10968032  1
  P  P209  1  0.55339288  0.58333589  0.36112691  1
  P  P210  1  0.55261249  0.58280115  0.60938988  1
  P  P211  1  0.55333602  0.58393915  0.86156908  1
  P  P212  1  0.55566275  0.91579659  0.11078681  1
  P  P213  1  0.55316781  0.91725286  0.35901605  1
  P  P214  1  0.55566193  0.91736620  0.61112986  1
  P  P215  1  0.55627009  0.91667367  0.86104561  1
  P  P216  1  0.44545749  0.08376763  0.14020889  1
  P  P217  1  0.44682106  0.08151349  0.38857404  1
  P  P218  1  0.44867786  0.08373231  0.64018251  1
  P  P219  1  0.44907010  0.08234202  0.89046052  1
  P  P220  1  0.44587944  0.41567252  0.13879355  1
  P  P221  1  0.44678716  0.41725902  0.38860504  1
  P  P222  1  0.44787004  0.41645835  0.64036898  1
  P  P223  1  0.44581387  0.41737017  0.88912846  1
  P  P224  1  0.44603775  0.75064001  0.13927986  1
  P  P225  1  0.44556632  0.75126673  0.38861436  1
  P  P226  1  0.44726569  0.74986754  0.63991984  1
  P  P227  1  0.44761587  0.75006331  0.89080556  1
  P  P228  1  0.94670081  0.08256855  0.13824844  1
  P  P229  1  0.94738311  0.08224739  0.39007172  1
  P  P230  1  0.94424106  0.08348862  0.63988216  1
  P  P231  1  0.94489099  0.08317756  0.88946089  1
  P  P232  1  0.94688121  0.41660198  0.14005347  1
  P  P233  1  0.94544216  0.41669060  0.39079524  1
  P  P234  1  0.94641297  0.41682846  0.63946447  1
  P  P235  1  0.94657080  0.41582301  0.89056109  1
  P  P236  1  0.94581411  0.75107546  0.14038732  1
  P  P237  1  0.94572422  0.75107206  0.38889725  1
  P  P238  1  0.94414336  0.74962492  0.63975956  1
  P  P239  1  0.94625512  0.75079057  0.88922539  1
  P  P240  1  0.19539283  0.08217565  0.23574978  1
  P  P241  1  0.19587114  0.08269370  0.48433708  1
  P  P242  1  0.19507649  0.08346001  0.73629067  1
  P  P243  1  0.19414592  0.08324619  0.98564785  1
  P  P244  1  0.19938681  0.41718062  0.23505571  1
  P  P245  1  0.19641108  0.41634768  0.48572909  1
  P  P246  1  0.19822338  0.41683684  0.73390294  1
  P  P247  1  0.19910899  0.41573433  0.98474543  1
  P  P248  1  0.19712956  0.75065966  0.23662002  1
  P  P249  1  0.19556748  0.75073890  0.48427793  1
  P  P250  1  0.19553086  0.74983622  0.73577237  1
  P  P251  1  0.19725070  0.75063469  0.98436807  1
  P  P252  1  0.69565937  0.08202887  0.23601718  1
  P  P253  1  0.69634396  0.08352196  0.48535332  1
  P  P254  1  0.69670042  0.08217706  0.73567158  1
  P  P255  1  0.69717273  0.08307815  0.98489256  1
  P  P256  1  0.69365616  0.41669452  0.23510374  1
  P  P257  1  0.69487204  0.41775719  0.48594511  1
  P  P258  1  0.69392572  0.41659683  0.73581296  1
  P  P259  1  0.69320708  0.41637638  0.98582339  1
  P  P260  1  0.69716620  0.75163830  0.23432085  1
  P  P261  1  0.69826079  0.74912408  0.48488072  1
  P  P262  1  0.69679338  0.75132087  0.73651432  1
  P  P263  1  0.69415076  0.75035046  0.98602108  1
  P  P264  1  0.30299134  0.24980828  0.01521520  1
  P  P265  1  0.30541548  0.24941020  0.26343025  1
  P  P266  1  0.30436170  0.24908866  0.51595563  1
  P  P267  1  0.30540418  0.25048855  0.76379317  1
  P  P268  1  0.30561381  0.58410985  0.01318409  1
  P  P269  1  0.30516791  0.58365325  0.26551617  1
  P  P270  1  0.30586304  0.58373748  0.51454689  1
  P  P271  1  0.30649884  0.58233814  0.76408057  1
  P  P272  1  0.30172948  0.91597872  0.01471188  1
  P  P273  1  0.30296582  0.91700522  0.26527963  1
  P  P274  1  0.30277177  0.91699587  0.51419006  1
  P  P275  1  0.30321211  0.91699983  0.76559902  1
  P  P276  1  0.80254025  0.24914158  0.01394911  1
  P  P277  1  0.80261043  0.25010121  0.26504255  1
  P  P278  1  0.80290601  0.25056052  0.51487223  1
  P  P279  1  0.80386668  0.24952697  0.76601440  1
  P  P280  1  0.80058150  0.58301704  0.01491605  1
  P  P281  1  0.80252733  0.58429160  0.26475056  1
  P  P282  1  0.80150149  0.58282544  0.51509964  1
  P  P283  1  0.80255671  0.58384159  0.76573352  1
  P  P284  1  0.80452516  0.91770539  0.01431326  1
  P  P285  1  0.80456044  0.91593393  0.26402293  1
  P  P286  1  0.80531903  0.91678888  0.51303288  1
  P  P287  1  0.80332896  0.91672633  0.76573344  1
  O  O288  1  0.05762116  0.25011385  0.18597466  1
  O  O289  1  0.05611609  0.24970481  0.43652178  1
  O  O290  1  0.05599632  0.25028469  0.68694826  1
  O  O291  1  0.05881412  0.25041323  0.93801160  1
  O  O292  1  0.05696380  0.58338598  0.18652862  1
  O  O293  1  0.05658271  0.58391208  0.43655617  1
  O  O294  1  0.05670510  0.58288778  0.68659555  1
  O  O295  1  0.05716052  0.58369342  0.93670441  1
  O  O296  1  0.05910467  0.91612298  0.18749288  1
  O  O297  1  0.05803998  0.91652933  0.43734663  1
  O  O298  1  0.05623121  0.91654036  0.68608578  1
  O  O299  1  0.05738708  0.91625787  0.93825283  1
  O  O300  1  0.55542349  0.24940539  0.18597788  1
  O  O301  1  0.55646059  0.24949158  0.43674500  1
  O  O302  1  0.55580200  0.24957673  0.68704227  1
  O  O303  1  0.55873970  0.24886554  0.93829198  1
  O  O304  1  0.55591502  0.58410425  0.18655213  1
  O  O305  1  0.55807333  0.58424926  0.43777676  1
  O  O306  1  0.55589543  0.58400009  0.68617918  1
  O  O307  1  0.55743870  0.58399101  0.93826926  1
  O  O308  1  0.55953454  0.91645507  0.18747866  1
  O  O309  1  0.55713869  0.91660304  0.43579021  1
  O  O310  1  0.56009871  0.91641923  0.68785676  1
  O  O311  1  0.55982988  0.91713030  0.93788011  1
  O  O312  1  0.44231889  0.08259880  0.06343909  1
  O  O313  1  0.44154733  0.08185501  0.31197577  1
  O  O314  1  0.44469991  0.08284561  0.56346619  1
  O  O315  1  0.44493720  0.08219363  0.81380373  1
  O  O316  1  0.44143419  0.41618586  0.06202022  1
  O  O317  1  0.44242243  0.41683372  0.31187760  1
  O  O318  1  0.44496504  0.41638170  0.56353756  1
  O  O319  1  0.44179754  0.41654861  0.81245602  1
  O  O320  1  0.44123229  0.75134126  0.06262066  1
  O  O321  1  0.44183805  0.75136354  0.31178215  1
  O  O322  1  0.44396811  0.75107652  0.56313855  1
  O  O323  1  0.44393997  0.75089414  0.81409109  1
  O  O324  1  0.94154147  0.08333745  0.06162715  1
  O  O325  1  0.94415076  0.08280903  0.31328173  1
  O  O326  1  0.94005013  0.08350998  0.56308718  1
  O  O327  1  0.94061750  0.08303650  0.81270404  1
  O  O328  1  0.94301428  0.41665220  0.06329933  1
  O  O329  1  0.94186805  0.41686180  0.31402515  1
  O  O330  1  0.94086926  0.41717172  0.56285196  1
  O  O331  1  0.94322346  0.41631639  0.81378287  1
  O  O332  1  0.94263070  0.75027303  0.06357564  1
  O  O333  1  0.94094745  0.75004400  0.31225206  1
  O  O334  1  0.93998176  0.74948993  0.56289898  1
  O  O335  1  0.94134241  0.75023055  0.81251541  1
  O  O336  1  0.19114186  0.08304974  0.06255111  1
  O  O337  1  0.19076001  0.08301246  0.31242198  1
  O  O338  1  0.19282175  0.08339369  0.56114799  1
  O  O339  1  0.19000540  0.08351215  0.81302194  1
  O  O340  1  0.19540464  0.41644022  0.06142746  1
  O  O341  1  0.19501372  0.41697640  0.31174798  1
  O  O342  1  0.19185332  0.41659910  0.56242831  1
  O  O343  1  0.19415639  0.41677934  0.81066803  1
  O  O344  1  0.19386899  0.75005440  0.06114606  1
  O  O345  1  0.19182456  0.75012749  0.31319104  1
  O  O346  1  0.19270217  0.74979155  0.56109905  1
  O  O347  1  0.19080206  0.74995471  0.81251543  1
  O  O348  1  0.69363613  0.08333074  0.06163873  1
  O  O349  1  0.69136802  0.08276324  0.31276628  1
  O  O350  1  0.69168075  0.08373572  0.56210740  1
  O  O351  1  0.69222905  0.08326847  0.81236108  1
  O  O352  1  0.68942430  0.41628158  0.06268319  1
  O  O353  1  0.68970565  0.41662634  0.31197201  1
  O  O354  1  0.69001688  0.41667739  0.56270424  1
  O  O355  1  0.68924522  0.41667477  0.81256762  1
  O  O356  1  0.69066768  0.75010490  0.06280279  1
  O  O357  1  0.69376977  0.75093147  0.31106969  1
  O  O358  1  0.69460317  0.74995724  0.56159647  1
  O  O359  1  0.69159396  0.75018970  0.81313237  1
  O  O360  1  0.30900981  0.24951196  0.18669287  1
  O  O361  1  0.30758878  0.24905372  0.43909504  1
  O  O362  1  0.30996749  0.24945572  0.68707055  1
  O  O363  1  0.30659045  0.24914198  0.93842349  1
  O  O364  1  0.30766914  0.58367210  0.18870219  1
  O  O365  1  0.31039824  0.58358897  0.43777776  1
  O  O366  1  0.31051546  0.58322282  0.68725379  1
  O  O367  1  0.30923329  0.58405516  0.93635410  1
  O  O368  1  0.30648794  0.91686370  0.18858259  1
  O  O369  1  0.30820130  0.91721517  0.43759774  1
  O  O370  1  0.30665588  0.91710116  0.68879058  1
  O  O371  1  0.30600369  0.91676379  0.93808787  1
  O  O372  1  0.80597666  0.24993010  0.18821839  1
  O  O373  1  0.80541884  0.25045381  0.43809106  1
  O  O374  1  0.80660133  0.25063792  0.68918618  1
  O  O375  1  0.80764320  0.24990268  0.93732633  1
  O  O376  1  0.80533565  0.58351242  0.18798235  1
  O  O377  1  0.80487442  0.58272747  0.43836699  1
  O  O378  1  0.80573129  0.58293651  0.68895720  1
  O  O379  1  0.80496197  0.58301992  0.93826218  1
  O  O380  1  0.80875036  0.91705646  0.18728384  1
  O  O381  1  0.80921252  0.91704023  0.43628574  1
  O  O382  1  0.80626636  0.91667416  0.68895811  1
  O  O383  1  0.80912374  0.91689537  0.93762186  1
  O  O384  1  0.23299624  0.24945132  0.03989837  1
  O  O385  1  0.23553425  0.24956548  0.28830985  1
  O  O386  1  0.23465161  0.24925907  0.54076842  1
  O  O387  1  0.23534227  0.25074267  0.78786567  1
  O  O388  1  0.23586940  0.58397846  0.03832007  1
  O  O389  1  0.23561630  0.58360810  0.29124998  1
  O  O390  1  0.23572822  0.58396150  0.53823891  1
  O  O391  1  0.23641251  0.58294835  0.78817489  1
  O  O392  1  0.23164103  0.91635062  0.03915064  1
  O  O393  1  0.23278617  0.91695303  0.28962620  1
  O  O394  1  0.23234391  0.91664144  0.53750949  1
  O  O395  1  0.23339865  0.91686395  0.79023889  1
  O  O396  1  0.73209145  0.24932174  0.03752049  1
  O  O397  1  0.73291299  0.24995759  0.28999576  1
  O  O398  1  0.73343853  0.25007251  0.54085031  1
  O  O399  1  0.73402589  0.24951580  0.79074173  1
  O  O400  1  0.73037012  0.58348795  0.03886285  1
  O  O401  1  0.73284587  0.58413217  0.29001200  1
  O  O402  1  0.73168833  0.58346644  0.54049961  1
  O  O403  1  0.73276817  0.58382034  0.79060475  1
  O  O404  1  0.73398807  0.91691228  0.03755566  1
  O  O405  1  0.73433715  0.91647828  0.28827294  1
  O  O406  1  0.73542444  0.91663210  0.53777354  1
  O  O407  1  0.73338876  0.91688581  0.79069523  1
  O  O408  1  0.26584864  0.08237890  0.21217588  1
  O  O409  1  0.26560217  0.08321530  0.45925368  1
  O  O410  1  0.26520139  0.08285591  0.71252403  1
  O  O411  1  0.26405916  0.08342730  0.96068299  1
  O  O412  1  0.26957639  0.41695094  0.21096248  1
  O  O413  1  0.26662021  0.41608111  0.46202916  1
  O  O414  1  0.26842998  0.41681200  0.70988557  1
  O  O415  1  0.26921797  0.41621088  0.96016446  1
  O  O416  1  0.26759166  0.75077469  0.21311806  1
  O  O417  1  0.26539655  0.75065154  0.45949921  1
  O  O418  1  0.26562384  0.75018955  0.71189531  1
  O  O419  1  0.26732523  0.75027267  0.95966247  1
  O  O420  1  0.76562563  0.08234101  0.21173824  1
  O  O421  1  0.76679735  0.08348003  0.46183056  1
  O  O422  1  0.76710339  0.08276151  0.71207726  1
  O  O423  1  0.76726222  0.08294666  0.96036640  1
  O  O424  1  0.76361912  0.41683337  0.21080108  1
  O  O425  1  0.76517640  0.41705646  0.46218514  1
  O  O426  1  0.76412261  0.41671743  0.71229551  1
  O  O427  1  0.76323548  0.41632747  0.96140747  1
  O  O428  1  0.76706999  0.75072111  0.20941462  1
  O  O429  1  0.76826021  0.74947438  0.46020347  1
  O  O430  1  0.76715296  0.75102319  0.71294450  1
  O  O431  1  0.76420881  0.75067593  0.96164854  1
  O  O432  1  0.01712860  0.08290558  0.16171968  1
  O  O433  1  0.01735576  0.08262496  0.41486146  1
  O  O434  1  0.01429965  0.08346425  0.66389844  1
  O  O435  1  0.01529395  0.08315318  0.91321096  1
  O  O436  1  0.01667471  0.41636670  0.16491443  1
  O  O437  1  0.01541876  0.41690822  0.41508670  1
  O  O438  1  0.01673070  0.41629033  0.66313356  1
  O  O439  1  0.01642163  0.41653684  0.91531706  1
  O  O440  1  0.01558497  0.75056259  0.16525329  1
  O  O441  1  0.01611720  0.75083971  0.41256662  1
  O  O442  1  0.01426562  0.74991991  0.66353357  1
  O  O443  1  0.01656259  0.75074723  0.91310014  1
  O  O444  1  0.51539933  0.08324384  0.16470862  1
  O  O445  1  0.51720793  0.08239077  0.41224406  1
  O  O446  1  0.51879544  0.08339079  0.66468346  1
  O  O447  1  0.51919003  0.08268744  0.91468674  1
  O  O448  1  0.51628686  0.41683965  0.16242454  1
  O  O449  1  0.51705134  0.41661871  0.41263680  1
  O  O450  1  0.51779153  0.41669357  0.66554914  1
  O  O451  1  0.51621344  0.41667536  0.91290518  1
  O  O452  1  0.51651524  0.74999000  0.16276345  1
  O  O453  1  0.51544487  0.75122884  0.41338182  1
  O  O454  1  0.51695764  0.74944716  0.66509865  1
  O  O455  1  0.51776559  0.75046673  0.91500209  1
  O  O456  1  0.48217757  0.24951680  0.08439780  1
  O  O457  1  0.48393242  0.24980856  0.33464653  1
  O  O458  1  0.48257996  0.24992382  0.58492632  1
  O  O459  1  0.48521747  0.24963525  0.83701651  1
  O  O460  1  0.48414521  0.58352096  0.08423604  1
  O  O461  1  0.48319215  0.58360740  0.33689871  1
  O  O462  1  0.48259530  0.58298541  0.58469078  1
  O  O463  1  0.48315540  0.58382165  0.83729708  1
  O  O464  1  0.48554593  0.91695916  0.08657210  1
  O  O465  1  0.48312974  0.91653905  0.33455866  1
  O  O466  1  0.48566495  0.91747873  0.58678487  1
  O  O467  1  0.48634104  0.91632553  0.83640550  1
  O  O468  1  0.98472232  0.24949475  0.08426208  1
  O  O469  1  0.98371424  0.24908175  0.33416041  1
  O  O470  1  0.98342663  0.25047711  0.58485508  1
  O  O471  1  0.98298477  0.24925808  0.83800915  1
  O  O472  1  0.98364859  0.58403573  0.08474824  1
  O  O473  1  0.98335126  0.58377640  0.33508502  1
  O  O474  1  0.98362898  0.58331443  0.58469877  1
  O  O475  1  0.98392605  0.58312231  0.83494246  1
  O  O476  1  0.98397375  0.91662110  0.08714136  1
  O  O477  1  0.98393268  0.91681000  0.33630186  1
  O  O478  1  0.98363217  0.91643353  0.58450903  1
  O  O479  1  0.98260397  0.91704256  0.83737060  1
  O  O480  1  0.08898251  0.31419409  0.07645896  1
  O  O481  1  0.08763151  0.31398410  0.32721623  1
  O  O482  1  0.08715419  0.31612066  0.57798698  1
  O  O483  1  0.08670720  0.31422451  0.82756744  1
  O  O484  1  0.08769744  0.64855373  0.07750635  1
  O  O485  1  0.08680502  0.64979068  0.32738745  1
  O  O486  1  0.08771235  0.64723108  0.57726320  1
  O  O487  1  0.08709144  0.64962254  0.82757624  1
  O  O488  1  0.08771223  0.98200448  0.07758568  1
  O  O489  1  0.08779898  0.98173469  0.32755213  1
  O  O490  1  0.08756669  0.98153158  0.57679280  1
  O  O491  1  0.08623284  0.98190152  0.82858806  1
  O  O492  1  0.58589199  0.31548029  0.07693368  1
  O  O493  1  0.58762162  0.31473097  0.32781080  1
  O  O494  1  0.58626420  0.31505154  0.57795929  1
  O  O495  1  0.58866803  0.31460202  0.82890636  1
  O  O496  1  0.58801316  0.64881478  0.07750345  1
  O  O497  1  0.58666302  0.64841970  0.32757243  1
  O  O498  1  0.58679326  0.64754717  0.57618532  1
  O  O499  1  0.58659483  0.64913721  0.82827992  1
  O  O500  1  0.58999089  0.98042563  0.07747974  1
  O  O501  1  0.58710856  0.98232696  0.32650099  1
  O  O502  1  0.58937707  0.98255796  0.57852089  1
  O  O503  1  0.59009350  0.98166555  0.82798682  1
  O  O504  1  0.41116972  0.01898309  0.17321453  1
  O  O505  1  0.41408191  0.01622890  0.42218010  1
  O  O506  1  0.41478576  0.01886840  0.67334038  1
  O  O507  1  0.41542073  0.01740163  0.92356216  1
  O  O508  1  0.41311127  0.35031581  0.17185164  1
  O  O509  1  0.41326032  0.35226856  0.42189748  1
  O  O510  1  0.41387791  0.35138649  0.67287384  1
  O  O511  1  0.41218011  0.35257047  0.92276799  1
  O  O512  1  0.41240692  0.68569430  0.17235012  1
  O  O513  1  0.41189440  0.68606672  0.42118138  1
  O  O514  1  0.41306717  0.68459188  0.67165511  1
  O  O515  1  0.41379782  0.68494053  0.92326436  1
  O  O516  1  0.91378439  0.01727945  0.17157483  1
  O  O517  1  0.91341427  0.01711384  0.42241546  1
  O  O518  1  0.91072034  0.01838661  0.67303352  1
  O  O519  1  0.91157811  0.01814863  0.92284766  1
  O  O520  1  0.91276350  0.35148683  0.17241253  1
  O  O521  1  0.91151474  0.35160132  0.42345002  1
  O  O522  1  0.91270540  0.35195066  0.67277441  1
  O  O523  1  0.91283783  0.35047014  0.92291550  1
  O  O524  1  0.91108138  0.68639440  0.17301207  1
  O  O525  1  0.91216117  0.68631558  0.42291618  1
  O  O526  1  0.91050793  0.68473145  0.67294341  1
  O  O527  1  0.91290536  0.68575192  0.92274241  1
  O  O528  1  0.16203908  0.01693409  0.20278634  1
  O  O529  1  0.16177990  0.01748186  0.45207782  1
  O  O530  1  0.16118497  0.01862354  0.70318065  1
  O  O531  1  0.16018486  0.01807725  0.95308311  1
  O  O532  1  0.16558634  0.35217152  0.20217171  1
  O  O533  1  0.16299796  0.35128226  0.45253917  1
  O  O534  1  0.16418924  0.35190839  0.70115678  1
  O  O535  1  0.16556263  0.35044910  0.95216512  1
  O  O536  1  0.16432397  0.68563648  0.20263205  1
  O  O537  1  0.16141592  0.68591397  0.45131124  1
  O  O538  1  0.16248343  0.68458717  0.70253942  1
  O  O539  1  0.16309905  0.68580466  0.95140186  1
  O  O540  1  0.66227577  0.01682405  0.20325271  1
  O  O541  1  0.66300221  0.01852467  0.45189492  1
  O  O542  1  0.66368761  0.01687713  0.70274596  1
  O  O543  1  0.66340134  0.01789594  0.95227731  1
  O  O544  1  0.65989638  0.35175801  0.20197592  1
  O  O545  1  0.66109499  0.35299759  0.45226287  1
  O  O546  1  0.66064834  0.35150141  0.70243111  1
  O  O547  1  0.65955301  0.35125670  0.95297927  1
  O  O548  1  0.66229740  0.68699168  0.20170319  1
  O  O549  1  0.66428432  0.68404796  0.45255332  1
  O  O550  1  0.66344580  0.68645669  0.70262244  1
  O  O551  1  0.66052113  0.68538658  0.95275048  1
  O  O552  1  0.33719305  0.31488615  0.04748464  1
  O  O553  1  0.33919202  0.31445218  0.29635910  1
  O  O554  1  0.33889117  0.31406658  0.54820324  1
  O  O555  1  0.33905048  0.31581416  0.79621842  1
  O  O556  1  0.33920015  0.64936631  0.04590626  1
  O  O557  1  0.33955377  0.64885451  0.29758501  1
  O  O558  1  0.33953380  0.64863761  0.54769864  1
  O  O559  1  0.34047314  0.64709805  0.79760380  1
  O  O560  1  0.33553779  0.98094618  0.04781970  1
  O  O561  1  0.33672949  0.98214292  0.29816655  1
  O  O562  1  0.33581511  0.98204597  0.54792696  1
  O  O563  1  0.33721885  0.98189955  0.79839817  1
  O  O564  1  0.83567294  0.31408997  0.04769375  1
  O  O565  1  0.83651987  0.31517508  0.29744973  1
  O  O566  1  0.83667218  0.31598642  0.54715617  1
  O  O567  1  0.83799531  0.31432863  0.79904930  1
  O  O568  1  0.83452272  0.64806812  0.04753105  1
  O  O569  1  0.83651751  0.64967779  0.29668540  1
  O  O570  1  0.83607952  0.64777884  0.54717413  1
  O  O571  1  0.83658841  0.64905012  0.79789730  1
  O  O572  1  0.83742649  0.98297841  0.04759964  1
  O  O573  1  0.83862897  0.98048905  0.29770328  1
  O  O574  1  0.83863893  0.98200067  0.54612220  1
  O  O575  1  0.83742397  0.98180263  0.79822846  1
  O  O576  1  0.41167631  0.14904338  0.17228826  1
  O  O577  1  0.41329165  0.14642257  0.42204547  1
  O  O578  1  0.41509608  0.14900824  0.67266654  1
  O  O579  1  0.41493343  0.14731542  0.92299377  1
  O  O580  1  0.41217782  0.48048629  0.17226601  1
  O  O581  1  0.41375580  0.48238012  0.42184117  1
  O  O582  1  0.41372237  0.48153308  0.67265433  1
  O  O583  1  0.41287388  0.48264029  0.92225544  1
  O  O584  1  0.41291559  0.81565923  0.17294161  1
  O  O585  1  0.41195257  0.81649347  0.42147494  1
  O  O586  1  0.41352745  0.81492051  0.67293551  1
  O  O587  1  0.41367385  0.81489054  0.92410877  1
  O  O588  1  0.91333867  0.14739715  0.17201663  1
  O  O589  1  0.91295643  0.14701354  0.42293143  1
  O  O590  1  0.91047326  0.14833130  0.67304023  1
  O  O591  1  0.91149290  0.14824857  0.92282122  1
  O  O592  1  0.91289037  0.48179295  0.17243904  1
  O  O593  1  0.91118365  0.48156289  0.42368410  1
  O  O594  1  0.91336688  0.48191583  0.67315198  1
  O  O595  1  0.91214042  0.48069549  0.92309651  1
  O  O596  1  0.91201042  0.81647826  0.17251645  1
  O  O597  1  0.91252956  0.81637634  0.42181631  1
  O  O598  1  0.91052764  0.81469428  0.67286224  1
  O  O599  1  0.91284136  0.81586258  0.92231836  1
  O  O600  1  0.08856856  0.18411822  0.07704532  1
  O  O601  1  0.08741576  0.18365857  0.32783433  1
  O  O602  1  0.08722915  0.18595010  0.57766595  1
  O  O603  1  0.08648855  0.18399298  0.82829268  1
  O  O604  1  0.08740602  0.51837498  0.07721248  1
  O  O605  1  0.08749266  0.51943210  0.32724032  1
  O  O606  1  0.08708296  0.51698823  0.57755457  1
  O  O607  1  0.08829482  0.51920662  0.82761579  1
  O  O608  1  0.08788765  0.85204779  0.07711057  1
  O  O609  1  0.08774127  0.85164601  0.32722071  1
  O  O610  1  0.08760063  0.85157581  0.57669079  1
  O  O611  1  0.08614486  0.85163400  0.82810037  1
  O  O612  1  0.58681749  0.18553082  0.07655748  1
  O  O613  1  0.58738518  0.18429970  0.32755856  1
  O  O614  1  0.58653991  0.18485129  0.57773127  1
  O  O615  1  0.58869694  0.18425785  0.82841386  1
  O  O616  1  0.58798082  0.51866520  0.07753664  1
  O  O617  1  0.58667559  0.51817696  0.32825984  1
  O  O618  1  0.58651290  0.51755428  0.57734654  1
  O  O619  1  0.58668541  0.51887517  0.82846836  1
  O  O620  1  0.58876345  0.85043667  0.07796166  1
  O  O621  1  0.58763110  0.85246079  0.32620521  1
  O  O622  1  0.58900957  0.85230108  0.57751402  1
  O  O623  1  0.59016699  0.85148750  0.82837827  1
  O  O624  1  0.33712744  0.18488486  0.04801275  1
  O  O625  1  0.33873808  0.18391369  0.29619758  1
  O  O626  1  0.33858507  0.18415047  0.54848584  1
  O  O627  1  0.33861541  0.18553566  0.79763575  1
  O  O628  1  0.33950548  0.51894937  0.04578729  1
  O  O629  1  0.33968579  0.51860452  0.29770172  1
  O  O630  1  0.33939527  0.51865276  0.54774593  1
  O  O631  1  0.33984115  0.51697680  0.79669648  1
  O  O632  1  0.33550396  0.85083109  0.04733376  1
  O  O633  1  0.33703246  0.85220883  0.29827714  1
  O  O634  1  0.33621019  0.85207719  0.54768342  1
  O  O635  1  0.33725299  0.85185899  0.79799375  1
  O  O636  1  0.83577536  0.18390210  0.04704259  1
  O  O637  1  0.83674362  0.18496169  0.29739247  1
  O  O638  1  0.83749038  0.18548025  0.54672079  1
  O  O639  1  0.83796485  0.18421548  0.79791013  1
  O  O640  1  0.83392907  0.51795528  0.04800415  1
  O  O641  1  0.83656320  0.51939061  0.29750569  1
  O  O642  1  0.83507508  0.51751623  0.54787723  1
  O  O643  1  0.83636857  0.51872194  0.79843797  1
  O  O644  1  0.83820899  0.85297766  0.04791365  1
  O  O645  1  0.83794942  0.85055688  0.29661606  1
  O  O646  1  0.83880204  0.85151826  0.54580972  1
  O  O647  1  0.83738160  0.85185586  0.79865627  1
  O  O648  1  0.16196766  0.14700848  0.20193594  1
  O  O649  1  0.16140873  0.14745702  0.45154849  1
  O  O650  1  0.16210334  0.14873421  0.70294278  1
  O  O651  1  0.16020057  0.14835127  0.95305409  1
  O  O652  1  0.16599337  0.48228527  0.20203388  1
  O  O653  1  0.16327118  0.48149729  0.45235629  1
  O  O654  1  0.16437912  0.48180881  0.70105138  1
  O  O655  1  0.16526763  0.48070836  0.95177032  1
  O  O656  1  0.16375550  0.81576282  0.20341873  1
  O  O657  1  0.16137414  0.81588986  0.45210599  1
  O  O658  1  0.16173125  0.81475669  0.70276511  1
  O  O659  1  0.16314460  0.81584083  0.95203451  1
  O  O660  1  0.66195469  0.14689854  0.20257626  1
  O  O661  1  0.66275559  0.14842213  0.45210301  1
  O  O662  1  0.66305476  0.14693112  0.70182642  1
  O  O663  1  0.66317024  0.14787303  0.95187743  1
  O  O664  1  0.65969256  0.48172673  0.20247782  1
  O  O665  1  0.66172893  0.48313385  0.45300888  1
  O  O666  1  0.66023368  0.48148313  0.70257201  1
  O  O667  1  0.65951428  0.48155764  0.95294078  1
  O  O668  1  0.66347975  0.81685695  0.20190715  1
  O  O669  1  0.66447469  0.81406571  0.45178072  1
  O  O670  1  0.66392640  0.81661613  0.70332555  1
  O  O671  1  0.66056478  0.81559122  0.95330492  1
