# generated using pymatgen
data_Na2MnFe(PO4)2
_symmetry_space_group_name_H-M   'P 1'
_cell_length_a   21.08135766
_cell_length_b   18.93433736
_cell_length_c   20.04146918
_cell_angle_alpha   90.00077349
_cell_angle_beta   89.99964284
_cell_angle_gamma   89.99852809
_symmetry_Int_Tables_number   1
_chemical_formula_structural   Na2MnFe(PO4)2
_chemical_formula_sum   'Na96 Mn48 Fe48 P96 O384'
_cell_volume   7999.78365560
_cell_formula_units_Z   48
loop_
 _symmetry_equiv_pos_site_id
 _symmetry_equiv_pos_as_xyz
  1  'x, y, z'
loop_
 _atom_site_type_symbol
 _atom_site_label
 _atom_site_symmetry_multiplicity
 _atom_site_fract_x
 _atom_site_fract_y
 _atom_site_fract_z
 _atom_site_occupancy
  Na  Na0  1  -0.00055654  0.00057562  -0.00044090  1
  Na  Na1  1  -0.00314812  -0.00042381  0.25010604  1
  Na  Na2  1  -0.00123176  0.00067090  0.49934652  1
  Na  Na3  1  0.00027050  0.00065406  0.75024751  1
  Na  Na4  1  -0.00106510  0.33286206  0.00023951  1
  Na  Na5  1  -0.00353742  0.33273822  0.24994974  1
  Na  Na6  1  -0.00220766  0.33298912  0.49975632  1
  Na  Na7  1  -0.00032116  0.33292030  0.74998464  1
  Na  Na8  1  0.00125345  0.66602595  0.00051657  1
  Na  Na9  1  0.00111210  0.66669199  0.24846603  1
  Na  Na10  1  0.00098433  0.66598534  0.50029149  1
  Na  Na11  1  0.00283673  0.66659929  0.75083251  1
  Na  Na12  1  0.49882884  -0.00053286  0.00073648  1
  Na  Na13  1  0.50256844  0.00149680  0.24887201  1
  Na  Na14  1  0.50142630  0.00081170  0.49966117  1
  Na  Na15  1  0.49891246  0.00001791  0.75067900  1
  Na  Na16  1  0.50217654  0.33427882  0.00007725  1
  Na  Na17  1  0.50030278  0.33305152  0.25033154  1
  Na  Na18  1  0.50103031  0.33400854  0.49943928  1
  Na  Na19  1  0.50070236  0.33363959  0.75000734  1
  Na  Na20  1  0.50124667  0.66666072  -0.00005051  1
  Na  Na21  1  0.50209445  0.66688282  0.24898801  1
  Na  Na22  1  0.49892549  0.66559340  0.50053227  1
  Na  Na23  1  0.49980961  0.66642300  0.75137437  1
  Na  Na24  1  0.25129420  0.00095018  0.12546871  1
  Na  Na25  1  0.24895823  0.00008228  0.37464975  1
  Na  Na26  1  0.24842045  0.00022664  0.62427432  1
  Na  Na27  1  0.25089243  0.00070069  0.87624333  1
  Na  Na28  1  0.25203523  0.33339834  0.12607056  1
  Na  Na29  1  0.25290055  0.33369043  0.37392636  1
  Na  Na30  1  0.25058313  0.33321823  0.62408185  1
  Na  Na31  1  0.24871566  0.33238328  0.87579318  1
  Na  Na32  1  0.24869733  0.66562922  0.12530813  1
  Na  Na33  1  0.24922409  0.66572700  0.37462358  1
  Na  Na34  1  0.25024751  0.66609917  0.62436571  1
  Na  Na35  1  0.25073619  0.66647063  0.87534367  1
  Na  Na36  1  0.75035840  0.00048801  0.12539241  1
  Na  Na37  1  0.74967515  -0.00005296  0.37417751  1
  Na  Na38  1  0.75085632  0.00039511  0.62384543  1
  Na  Na39  1  0.75139923  0.00118922  0.87619980  1
  Na  Na40  1  0.74986960  0.33367688  0.12593753  1
  Na  Na41  1  0.75025486  0.33382674  0.37457472  1
  Na  Na42  1  0.74873082  0.33304077  0.62542131  1
  Na  Na43  1  0.75004155  0.33413151  0.87440237  1
  Na  Na44  1  0.74693935  0.66525364  0.12470938  1
  Na  Na45  1  0.74971191  0.66629858  0.37496594  1
  Na  Na46  1  0.74897877  0.66580933  0.62480381  1
  Na  Na47  1  0.74808067  0.66666145  0.87524601  1
  Na  Na48  1  0.00096136  0.16677978  -0.00104765  1
  Na  Na49  1  -0.00207346  0.16778814  0.25067587  1
  Na  Na50  1  0.00029714  0.16691791  0.49918525  1
  Na  Na51  1  0.00152673  0.16726982  0.75051873  1
  Na  Na52  1  0.00046950  0.49991385  0.00085458  1
  Na  Na53  1  -0.00175694  0.49966390  0.24887002  1
  Na  Na54  1  -0.00244454  0.50064233  0.50008351  1
  Na  Na55  1  0.00127252  0.49941865  0.74982617  1
  Na  Na56  1  -0.00182658  0.83361509  0.00046170  1
  Na  Na57  1  -0.00127785  0.83285069  0.24912382  1
  Na  Na58  1  -0.00064954  0.83311670  0.50000907  1
  Na  Na59  1  0.00071223  0.83268861  0.75077064  1
  Na  Na60  1  0.50063295  0.16720062  0.00065048  1
  Na  Na61  1  0.50171446  0.16717712  0.24941993  1
  Na  Na62  1  0.50248381  0.16680565  0.49967065  1
  Na  Na63  1  0.49998725  0.16718418  0.75108948  1
  Na  Na64  1  0.50157648  0.49987779  -0.00021207  1
  Na  Na65  1  0.50161698  0.49906863  0.24980737  1
  Na  Na66  1  0.49923644  0.49944713  0.50001139  1
  Na  Na67  1  0.50099998  0.49939303  0.75066413  1
  Na  Na68  1  0.49977390  0.83298431  0.00044633  1
  Na  Na69  1  0.50144270  0.83299033  0.24895020  1
  Na  Na70  1  0.49978378  0.83339588  0.49981822  1
  Na  Na71  1  0.49853859  0.83296957  0.75035075  1
  Na  Na72  1  0.24984601  0.16732693  0.12598928  1
  Na  Na73  1  0.25036378  0.16719285  0.37429173  1
  Na  Na74  1  0.24773909  0.16817858  0.62359965  1
  Na  Na75  1  0.24981807  0.16654903  0.87579624  1
  Na  Na76  1  0.25070993  0.49999796  0.12525103  1
  Na  Na77  1  0.25101036  0.49972320  0.37429621  1
  Na  Na78  1  0.25151043  0.49906029  0.62475633  1
  Na  Na79  1  0.24983396  0.50049709  0.87522919  1
  Na  Na80  1  0.25126445  0.83294202  0.12576970  1
  Na  Na81  1  0.25043891  0.83282006  0.37458401  1
  Na  Na82  1  0.25000113  0.83272496  0.62440779  1
  Na  Na83  1  0.25141883  0.83217447  0.87621758  1
  Na  Na84  1  0.74874225  0.16744932  0.12530918  1
  Na  Na85  1  0.74928065  0.16797825  0.37411556  1
  Na  Na86  1  0.75085482  0.16711181  0.62415040  1
  Na  Na87  1  0.74971040  0.16759702  0.87528512  1
  Na  Na88  1  0.74955956  0.49893816  0.12528632  1
  Na  Na89  1  0.74944798  0.49966392  0.37581955  1
  Na  Na90  1  0.74935050  0.49922498  0.62453456  1
  Na  Na91  1  0.74701759  0.50076702  0.87568416  1
  Na  Na92  1  0.75013662  0.83278940  0.12491520  1
  Na  Na93  1  0.74958594  0.83394635  0.37408837  1
  Na  Na94  1  0.74926308  0.83354469  0.62504736  1
  Na  Na95  1  0.75010368  0.83272980  0.87546922  1
  Mn  Mn96  1  0.39166940  0.91675091  0.87764766  1
  Mn  Mn97  1  0.85735801  0.08427261  0.50228019  1
  Mn  Mn98  1  0.10857046  0.75005599  0.87362116  1
  Mn  Mn99  1  0.85711328  0.74937012  0.25187739  1
  Mn  Mn100  1  0.89240246  0.58343389  0.62817481  1
  Mn  Mn101  1  0.14249086  0.58184800  0.49737605  1
  Mn  Mn102  1  0.60859941  0.08375006  0.62311020  1
  Mn  Mn103  1  0.10861322  0.08316779  0.87314433  1
  Mn  Mn104  1  0.14209832  0.25065470  0.24794175  1
  Mn  Mn105  1  0.64211518  0.91692178  0.74775506  1
  Mn  Mn106  1  0.39147488  0.91656476  0.62738007  1
  Mn  Mn107  1  0.35857015  0.08369491  0.25229743  1
  Mn  Mn108  1  0.85779088  0.08398410  0.00320953  1
  Mn  Mn109  1  0.35853016  0.41640989  0.00268340  1
  Mn  Mn110  1  0.10825743  0.41617361  0.62214342  1
  Mn  Mn111  1  0.35809164  0.08384640  0.50181255  1
  Mn  Mn112  1  0.39286140  0.58311727  0.87724366  1
  Mn  Mn113  1  0.39200817  0.25016445  0.87752063  1
  Mn  Mn114  1  0.14124010  0.91655350  0.24715040  1
  Mn  Mn115  1  0.85715457  0.41708639  0.75225836  1
  Mn  Mn116  1  0.35784360  0.74952257  0.50210307  1
  Mn  Mn117  1  0.10835123  0.41671527  0.87332968  1
  Mn  Mn118  1  0.10637500  0.08333671  0.37216868  1
  Mn  Mn119  1  0.60699525  0.74968851  0.62293625  1
  Mn  Mn120  1  0.39274838  0.58294299  0.37650460  1
  Mn  Mn121  1  0.64204970  0.91717632  0.49747253  1
  Mn  Mn122  1  0.10736995  0.41574063  0.12307890  1
  Mn  Mn123  1  0.14134200  0.91709410  0.49717103  1
  Mn  Mn124  1  0.60784888  0.08290970  0.87259465  1
  Mn  Mn125  1  0.35789769  0.74944863  0.25174750  1
  Mn  Mn126  1  0.85791403  0.74972561  0.75237782  1
  Mn  Mn127  1  0.89192400  0.91602384  0.87718013  1
  Mn  Mn128  1  0.85824130  0.74929402  0.50264185  1
  Mn  Mn129  1  0.64237754  0.91663814  0.99771534  1
  Mn  Mn130  1  0.10705738  0.74972313  0.37242774  1
  Mn  Mn131  1  0.64174866  0.58300217  0.49782606  1
  Mn  Mn132  1  0.35709693  0.08365652  0.75177458  1
  Mn  Mn133  1  0.39237613  0.25007584  0.62695798  1
  Mn  Mn134  1  0.89176594  0.58321883  0.12709080  1
  Mn  Mn135  1  0.39322428  0.91759574  0.37685016  1
  Mn  Mn136  1  0.89240409  0.25049207  0.87737737  1
  Mn  Mn137  1  0.89245194  0.91694403  0.62785941  1
  Mn  Mn138  1  0.60822391  0.75004998  0.37251342  1
  Mn  Mn139  1  0.14235381  0.91653319  0.74751965  1
  Mn  Mn140  1  0.64248124  0.24983720  0.74744693  1
  Mn  Mn141  1  0.89200743  0.58319250  0.87716493  1
  Mn  Mn142  1  0.14272483  0.91660892  0.99887786  1
  Mn  Mn143  1  0.10692951  0.41681473  0.37274515  1
  Fe  Fe144  1  0.60767245  0.41664216  0.12349033  1
  Fe  Fe145  1  0.89190774  0.58331287  0.37602825  1
  Fe  Fe146  1  0.39437230  0.24966486  0.37659580  1
  Fe  Fe147  1  0.14255488  0.25076319  0.49749366  1
  Fe  Fe148  1  0.64297811  0.25039756  0.24795945  1
  Fe  Fe149  1  0.14286824  0.25028753  0.99985553  1
  Fe  Fe150  1  0.39377667  0.25027371  0.12659257  1
  Fe  Fe151  1  0.35819600  0.41618220  0.50146113  1
  Fe  Fe152  1  0.85605267  0.41679793  0.25193517  1
  Fe  Fe153  1  0.64235821  0.58281914  0.99858090  1
  Fe  Fe154  1  0.14237285  0.58264328  0.24809302  1
  Fe  Fe155  1  0.85827870  0.08350618  0.75124182  1
  Fe  Fe156  1  0.10636233  0.08323480  0.12415668  1
  Fe  Fe157  1  0.10707164  0.75081007  0.12280231  1
  Fe  Fe158  1  0.35755667  0.08336401  0.00274428  1
  Fe  Fe159  1  0.10835851  0.75037746  0.62359347  1
  Fe  Fe160  1  0.64200527  0.58376315  0.74779303  1
  Fe  Fe161  1  0.85636297  0.08397879  0.25098292  1
  Fe  Fe162  1  0.89228120  0.91711038  0.12651348  1
  Fe  Fe163  1  0.60781836  0.41683331  0.87295981  1
  Fe  Fe164  1  0.60749613  0.41622387  0.37316156  1
  Fe  Fe165  1  0.89174922  0.24930916  0.12626240  1
  Fe  Fe166  1  0.35745102  0.41645543  0.75167030  1
  Fe  Fe167  1  0.39249337  0.58290102  0.62728535  1
  Fe  Fe168  1  0.35808794  0.74989339  0.00272782  1
  Fe  Fe169  1  0.39358940  0.58307401  0.12667698  1
  Fe  Fe170  1  0.89140896  0.91604895  0.37634616  1
  Fe  Fe171  1  0.64251948  0.58322594  0.24809235  1
  Fe  Fe172  1  0.64301431  0.25028736  0.49802352  1
  Fe  Fe173  1  0.60652604  0.41677950  0.62315411  1
  Fe  Fe174  1  0.14360449  0.58276569  0.99889571  1
  Fe  Fe175  1  0.39348564  0.91678316  0.12717368  1
  Fe  Fe176  1  0.89129296  0.25044051  0.37735131  1
  Fe  Fe177  1  0.64277176  0.25051977  0.99879383  1
  Fe  Fe178  1  0.60708779  0.75018418  0.87311617  1
  Fe  Fe179  1  0.85655733  0.74905573  0.00175674  1
  Fe  Fe180  1  0.14271249  0.25077898  0.74767956  1
  Fe  Fe181  1  0.14386898  0.58271734  0.74829048  1
  Fe  Fe182  1  0.10704820  0.08339713  0.62318662  1
  Fe  Fe183  1  0.60729517  0.75007546  0.12270805  1
  Fe  Fe184  1  0.35700348  0.74941007  0.75160712  1
  Fe  Fe185  1  0.85628160  0.41722709  0.00145772  1
  Fe  Fe186  1  0.35860995  0.41698600  0.25117700  1
  Fe  Fe187  1  0.64307829  0.91673180  0.24749477  1
  Fe  Fe188  1  0.60832932  0.08387669  0.37246850  1
  Fe  Fe189  1  0.60747767  0.08359756  0.12292099  1
  Fe  Fe190  1  0.85621819  0.41664651  0.50180838  1
  Fe  Fe191  1  0.89306956  0.24975676  0.62645780  1
  P  P192  1  0.05197508  0.24909817  0.11003427  1
  P  P193  1  0.05212520  0.25092781  0.36084023  1
  P  P194  1  0.05415040  0.24959000  0.60999419  1
  P  P195  1  0.05574713  0.25045786  0.86071038  1
  P  P196  1  0.05524895  0.58336893  0.11059983  1
  P  P197  1  0.05201377  0.58245441  0.35889492  1
  P  P198  1  0.05528341  0.58347062  0.61117390  1
  P  P199  1  0.05568303  0.58299068  0.86075234  1
  P  P200  1  0.05158488  0.91740032  0.11015792  1
  P  P201  1  0.05087346  0.91657391  0.35947672  1
  P  P202  1  0.05342794  0.91704594  0.61002015  1
  P  P203  1  0.05359210  0.91649993  0.86033209  1
  P  P204  1  0.55479831  0.25058662  0.11107953  1
  P  P205  1  0.55521626  0.25042057  0.36046602  1
  P  P206  1  0.55424548  0.25111886  0.60925686  1
  P  P207  1  0.55478520  0.25082024  0.86138264  1
  P  P208  1  0.55455268  0.58282436  0.11076445  1
  P  P209  1  0.55421172  0.58207331  0.35923935  1
  P  P210  1  0.55272030  0.58229845  0.61137856  1
  P  P211  1  0.55584523  0.58340054  0.86109024  1
  P  P212  1  0.55411612  0.91681774  0.11111996  1
  P  P213  1  0.55460659  0.91776872  0.35856274  1
  P  P214  1  0.55284919  0.91663228  0.60992561  1
  P  P215  1  0.55303220  0.91576496  0.86031229  1
  P  P216  1  0.44698564  0.08391484  0.13876615  1
  P  P217  1  0.44892984  0.08461942  0.38942206  1
  P  P218  1  0.44729207  0.08398798  0.64028488  1
  P  P219  1  0.44578149  0.08378174  0.89134653  1
  P  P220  1  0.44787020  0.41684562  0.14009844  1
  P  P221  1  0.44649767  0.41567081  0.38891029  1
  P  P222  1  0.44589210  0.41700584  0.63967069  1
  P  P223  1  0.44716832  0.41677500  0.88912146  1
  P  P224  1  0.44686994  0.74946659  0.13858374  1
  P  P225  1  0.44727043  0.74983411  0.38961580  1
  P  P226  1  0.44555963  0.74873757  0.64096768  1
  P  P227  1  0.44585833  0.74951704  0.88997112  1
  P  P228  1  0.94645934  0.08394610  0.14032363  1
  P  P229  1  0.94372316  0.08371956  0.38830860  1
  P  P230  1  0.94735767  0.08486427  0.64020483  1
  P  P231  1  0.94566248  0.08364934  0.88918443  1
  P  P232  1  0.94375690  0.41563014  0.13917266  1
  P  P233  1  0.94359254  0.41711845  0.38908534  1
  P  P234  1  0.94547660  0.41565102  0.63886573  1
  P  P235  1  0.94600372  0.41710615  0.89108691  1
  P  P236  1  0.94600555  0.75007145  0.13831158  1
  P  P237  1  0.94590200  0.74903172  0.38948377  1
  P  P238  1  0.94867188  0.74961391  0.64060950  1
  P  P239  1  0.94621943  0.74905362  0.89134890  1
  P  P240  1  0.19579631  0.08381081  0.23434183  1
  P  P241  1  0.19492169  0.08480915  0.48525097  1
  P  P242  1  0.19593090  0.08449889  0.73421207  1
  P  P243  1  0.19652728  0.08409611  0.98748681  1
  P  P244  1  0.19798603  0.41696110  0.23518135  1
  P  P245  1  0.19824244  0.41552730  0.48414502  1
  P  P246  1  0.19796490  0.41652658  0.73510565  1
  P  P247  1  0.19710266  0.41643288  0.98595783  1
  P  P248  1  0.19544214  0.74904943  0.23432346  1
  P  P249  1  0.19552255  0.74954947  0.48538664  1
  P  P250  1  0.19759465  0.74885407  0.73488015  1
  P  P251  1  0.19718922  0.74935171  0.98705189  1
  P  P252  1  0.69569012  0.08385747  0.23546506  1
  P  P253  1  0.69619169  0.08471411  0.48384894  1
  P  P254  1  0.69880996  0.08338284  0.73475583  1
  P  P255  1  0.69541731  0.08445081  0.98644390  1
  P  P256  1  0.69542348  0.41664108  0.23613325  1
  P  P257  1  0.69533469  0.41573805  0.48565583  1
  P  P258  1  0.69436437  0.41766491  0.73529691  1
  P  P259  1  0.69536862  0.41626054  0.98620297  1
  P  P260  1  0.69565678  0.74978680  0.23418511  1
  P  P261  1  0.69688682  0.74989666  0.48480631  1
  P  P262  1  0.69542579  0.74942014  0.73595732  1
  P  P263  1  0.69537403  0.74924610  0.98578795  1
  P  P264  1  0.30323277  0.24928101  0.01617300  1
  P  P265  1  0.30635531  0.25083407  0.26431794  1
  P  P266  1  0.30403701  0.25063965  0.51313424  1
  P  P267  1  0.30218026  0.25084746  0.76487713  1
  P  P268  1  0.30383588  0.58373985  0.01582159  1
  P  P269  1  0.30379592  0.58257492  0.26339401  1
  P  P270  1  0.30465696  0.58183623  0.51517186  1
  P  P271  1  0.30405096  0.58281350  0.76381329  1
  P  P272  1  0.30460738  0.91663859  0.01640862  1
  P  P273  1  0.30439762  0.91674727  0.26408315  1
  P  P274  1  0.30297821  0.91711178  0.51456188  1
  P  P275  1  0.30282932  0.91584518  0.76529654  1
  P  P276  1  0.80245423  0.25134765  0.01553245  1
  P  P277  1  0.80378076  0.25011755  0.26372279  1
  P  P278  1  0.80373812  0.25143396  0.51436259  1
  P  P279  1  0.80483365  0.24945816  0.76371790  1
  P  P280  1  0.80166912  0.58312758  0.01478844  1
  P  P281  1  0.80198529  0.58242316  0.26506198  1
  P  P282  1  0.80428729  0.58222294  0.51414395  1
  P  P283  1  0.80136717  0.58311855  0.76540415  1
  P  P284  1  0.80390424  0.91581684  0.01585439  1
  P  P285  1  0.80380478  0.91747575  0.26346908  1
  P  P286  1  0.80440485  0.91659080  0.51396092  1
  P  P287  1  0.80323216  0.91749952  0.76523671  1
  O  O288  1  0.05560003  0.25040256  0.18676453  1
  O  O289  1  0.05768175  0.25130891  0.43741927  1
  O  O290  1  0.05883717  0.25104066  0.68675041  1
  O  O291  1  0.06025236  0.25052189  0.93746023  1
  O  O292  1  0.05918173  0.58230334  0.18737992  1
  O  O293  1  0.05615906  0.58193989  0.43564654  1
  O  O294  1  0.06009515  0.58243618  0.68793815  1
  O  O295  1  0.06016828  0.58274733  0.93754808  1
  O  O296  1  0.05479727  0.91692237  0.18687194  1
  O  O297  1  0.05502363  0.91686613  0.43615561  1
  O  O298  1  0.05629331  0.91689594  0.68684326  1
  O  O299  1  0.05694286  0.91664778  0.93710017  1
  O  O300  1  0.55921173  0.25047571  0.18781258  1
  O  O301  1  0.55930831  0.25058884  0.43715657  1
  O  O302  1  0.55690918  0.25011862  0.68609454  1
  O  O303  1  0.55879046  0.25045590  0.93814781  1
  O  O304  1  0.55897585  0.58285766  0.18746919  1
  O  O305  1  0.55652711  0.58262945  0.43609365  1
  O  O306  1  0.55723564  0.58303747  0.68805714  1
  O  O307  1  0.55954009  0.58319851  0.93796098  1
  O  O308  1  0.55914797  0.91690995  0.18775782  1
  O  O309  1  0.55698624  0.91693206  0.43541140  1
  O  O310  1  0.55596514  0.91666972  0.68672651  1
  O  O311  1  0.55628427  0.91633360  0.93710341  1
  O  O312  1  0.44209642  0.08387114  0.06213245  1
  O  O313  1  0.44508707  0.08418759  0.31272545  1
  O  O314  1  0.44425533  0.08428536  0.56348145  1
  O  O315  1  0.44218301  0.08404260  0.81455819  1
  O  O316  1  0.44449715  0.41698524  0.06335010  1
  O  O317  1  0.44207958  0.41668833  0.31221161  1
  O  O318  1  0.44164802  0.41627934  0.56290757  1
  O  O319  1  0.44171976  0.41645337  0.81250319  1
  O  O320  1  0.44225219  0.74932327  0.06186484  1
  O  O321  1  0.44427976  0.74960979  0.31280078  1
  O  O322  1  0.44300071  0.74935764  0.56411056  1
  O  O323  1  0.44055298  0.74936119  0.81333133  1
  O  O324  1  0.94372178  0.08426162  0.06360854  1
  O  O325  1  0.93963527  0.08409895  0.31152973  1
  O  O326  1  0.94341204  0.08451807  0.56345621  1
  O  O327  1  0.94163790  0.08398229  0.81240793  1
  O  O328  1  0.93962738  0.41684481  0.06243823  1
  O  O329  1  0.93961837  0.41688552  0.31222049  1
  O  O330  1  0.94090634  0.41649465  0.56216333  1
  O  O331  1  0.94280832  0.41724353  0.81426357  1
  O  O332  1  0.94075260  0.74881890  0.06172640  1
  O  O333  1  0.94303962  0.74894766  0.31263246  1
  O  O334  1  0.94443042  0.74900383  0.56390752  1
  O  O335  1  0.94323602  0.74873678  0.81452189  1
  O  O336  1  0.19118307  0.08345867  0.06407752  1
  O  O337  1  0.19212779  0.08367838  0.31114249  1
  O  O338  1  0.19060406  0.08402550  0.56199117  1
  O  O339  1  0.19382291  0.08338871  0.81111336  1
  O  O340  1  0.19411308  0.41625141  0.06268573  1
  O  O341  1  0.19382307  0.41632206  0.31181282  1
  O  O342  1  0.19422731  0.41597689  0.56083243  1
  O  O343  1  0.19450389  0.41663717  0.81178347  1
  O  O344  1  0.19164645  0.75045987  0.06365009  1
  O  O345  1  0.19247990  0.74986282  0.31117262  1
  O  O346  1  0.19135095  0.74990454  0.56217084  1
  O  O347  1  0.19441854  0.74962032  0.81167507  1
  O  O348  1  0.69099480  0.08358966  0.06325290  1
  O  O349  1  0.69181237  0.08382602  0.31219946  1
  O  O350  1  0.69359362  0.08395731  0.56067344  1
  O  O351  1  0.69474669  0.08356169  0.81149201  1
  O  O352  1  0.69124531  0.41623433  0.06298563  1
  O  O353  1  0.69137759  0.41650471  0.31283168  1
  O  O354  1  0.69076021  0.41645273  0.56233112  1
  O  O355  1  0.69083864  0.41681047  0.81216104  1
  O  O356  1  0.69054045  0.75006672  0.06253709  1
  O  O357  1  0.69336448  0.75007279  0.31098179  1
  O  O358  1  0.69338185  0.74978659  0.56159664  1
  O  O359  1  0.69137644  0.75021533  0.81274245  1
  O  O360  1  0.31094590  0.24994050  0.18756003  1
  O  O361  1  0.30944030  0.24966459  0.43652846  1
  O  O362  1  0.30594414  0.25040189  0.68817504  1
  O  O363  1  0.30650057  0.24983417  0.93942083  1
  O  O364  1  0.30919971  0.58314649  0.18678721  1
  O  O365  1  0.30756336  0.58279917  0.43833561  1
  O  O366  1  0.30826070  0.58267825  0.68714074  1
  O  O367  1  0.30746517  0.58326801  0.93907243  1
  O  O368  1  0.30980398  0.91705726  0.18735498  1
  O  O369  1  0.30662404  0.91732586  0.43774433  1
  O  O370  1  0.30531908  0.91654018  0.68848387  1
  O  O371  1  0.30690862  0.91651841  0.93956186  1
  O  O372  1  0.80811751  0.24965911  0.18705662  1
  O  O373  1  0.80787353  0.25070904  0.43755456  1
  O  O374  1  0.80882413  0.24990940  0.68695509  1
  O  O375  1  0.80617761  0.25061788  0.93880214  1
  O  O376  1  0.80562248  0.58298733  0.18835186  1
  O  O377  1  0.80821110  0.58323443  0.43741634  1
  O  O378  1  0.80573317  0.58295087  0.68867938  1
  O  O379  1  0.80529222  0.58341423  0.93817573  1
  O  O380  1  0.80884016  0.91678192  0.18677875  1
  O  O381  1  0.80842955  0.91625771  0.43710371  1
  O  O382  1  0.80614790  0.91671787  0.68836835  1
  O  O383  1  0.80668847  0.91647800  0.93905367  1
  O  O384  1  0.23314987  0.25031180  0.04090439  1
  O  O385  1  0.23602227  0.25025338  0.28778381  1
  O  O386  1  0.23368989  0.25091151  0.53674399  1
  O  O387  1  0.23220783  0.25018104  0.78965378  1
  O  O388  1  0.23363282  0.58290572  0.03998514  1
  O  O389  1  0.23338280  0.58271035  0.28702386  1
  O  O390  1  0.23488928  0.58221552  0.54009353  1
  O  O391  1  0.23389241  0.58298165  0.78825997  1
  O  O392  1  0.23490576  0.91673538  0.04177195  1
  O  O393  1  0.23412361  0.91648901  0.28744142  1
  O  O394  1  0.23321733  0.91685845  0.53932226  1
  O  O395  1  0.23343040  0.91628696  0.79140806  1
  O  O396  1  0.73236328  0.25080724  0.04003293  1
  O  O397  1  0.73325828  0.25068044  0.28729566  1
  O  O398  1  0.73343154  0.25055318  0.53816136  1
  O  O399  1  0.73489509  0.25069338  0.78821507  1
  O  O400  1  0.73152143  0.58238466  0.03940188  1
  O  O401  1  0.73183352  0.58299987  0.28941632  1
  O  O402  1  0.73428961  0.58214571  0.53850399  1
  O  O403  1  0.73131204  0.58332341  0.78961056  1
  O  O404  1  0.73411317  0.91647555  0.04081255  1
  O  O405  1  0.73321453  0.91690633  0.28659475  1
  O  O406  1  0.73444638  0.91707784  0.53820459  1
  O  O407  1  0.73380345  0.91722846  0.79111288  1
  O  O408  1  0.26583742  0.08431704  0.21036526  1
  O  O409  1  0.26492762  0.08432031  0.46086144  1
  O  O410  1  0.26539640  0.08437342  0.70829503  1
  O  O411  1  0.26693307  0.08357468  0.96383565  1
  O  O412  1  0.26816404  0.41662719  0.21087644  1
  O  O413  1  0.26830666  0.41621256  0.45974468  1
  O  O414  1  0.26790171  0.41648539  0.71004513  1
  O  O415  1  0.26674084  0.41641469  0.96049026  1
  O  O416  1  0.26530039  0.74930849  0.20959853  1
  O  O417  1  0.26550645  0.74905904  0.46104682  1
  O  O418  1  0.26757216  0.74906876  0.70999317  1
  O  O419  1  0.26767573  0.74953778  0.96369297  1
  O  O420  1  0.76609012  0.08408316  0.21144488  1
  O  O421  1  0.76584858  0.08426879  0.45865076  1
  O  O422  1  0.76865384  0.08351979  0.70974973  1
  O  O423  1  0.76548173  0.08439769  0.96257982  1
  O  O424  1  0.76581636  0.41626498  0.21227491  1
  O  O425  1  0.76563745  0.41644724  0.46182892  1
  O  O426  1  0.76433991  0.41659225  0.71094785  1
  O  O427  1  0.76565481  0.41698761  0.96196938  1
  O  O428  1  0.76536955  0.74918334  0.20882607  1
  O  O429  1  0.76650206  0.74984407  0.45966837  1
  O  O430  1  0.76529321  0.74935179  0.71121566  1
  O  O431  1  0.76585731  0.74964327  0.96237415  1
  O  O432  1  0.01628892  0.08380339  0.16581118  1
  O  O433  1  0.01368746  0.08386383  0.41273483  1
  O  O434  1  0.01744927  0.08418206  0.66457140  1
  O  O435  1  0.01568121  0.08359794  0.91334885  1
  O  O436  1  0.01393257  0.41612017  0.16322095  1
  O  O437  1  0.01361264  0.41669951  0.41357331  1
  O  O438  1  0.01556229  0.41602521  0.66294969  1
  O  O439  1  0.01578242  0.41662193  0.91585482  1
  O  O440  1  0.01647379  0.75006506  0.16173532  1
  O  O441  1  0.01547022  0.74928985  0.41504146  1
  O  O442  1  0.01877513  0.74987788  0.66492451  1
  O  O443  1  0.01599893  0.74958515  0.91621701  1
  O  O444  1  0.51749105  0.08416767  0.16230161  1
  O  O445  1  0.51903990  0.08423530  0.41372264  1
  O  O446  1  0.51687358  0.08389432  0.66578175  1
  O  O447  1  0.51568777  0.08333443  0.91580849  1
  O  O448  1  0.51805246  0.41643097  0.16451040  1
  O  O449  1  0.51687822  0.41621782  0.41264027  1
  O  O450  1  0.51618443  0.41644734  0.66359854  1
  O  O451  1  0.51758597  0.41733664  0.91245501  1
  O  O452  1  0.51734351  0.74963221  0.16212124  1
  O  O453  1  0.51685059  0.74945762  0.41503130  1
  O  O454  1  0.51516757  0.74939024  0.66635447  1
  O  O455  1  0.51638293  0.74948466  0.91311103  1
  O  O456  1  0.48436177  0.25078876  0.08726450  1
  O  O457  1  0.48495460  0.25028753  0.33629388  1
  O  O458  1  0.48464193  0.25056052  0.58392226  1
  O  O459  1  0.48486403  0.25038077  0.83682717  1
  O  O460  1  0.48418036  0.58290543  0.08676190  1
  O  O461  1  0.48465146  0.58276854  0.33367455  1
  O  O462  1  0.48256525  0.58248697  0.58717856  1
  O  O463  1  0.48576904  0.58308002  0.83692228  1
  O  O464  1  0.48365937  0.91656240  0.08756223  1
  O  O465  1  0.48506221  0.91746775  0.33285898  1
  O  O466  1  0.48327253  0.91684929  0.58452374  1
  O  O467  1  0.48331436  0.91617582  0.83537582  1
  O  O468  1  0.98187297  0.24952481  0.08543917  1
  O  O469  1  0.98152845  0.25075299  0.33792346  1
  O  O470  1  0.98375354  0.24988642  0.58627816  1
  O  O471  1  0.98553252  0.25055405  0.83712344  1
  O  O472  1  0.98501054  0.58289926  0.08675059  1
  O  O473  1  0.98187869  0.58295787  0.33457061  1
  O  O474  1  0.98513620  0.58306011  0.58739901  1
  O  O475  1  0.98556384  0.58301956  0.83678080  1
  O  O476  1  0.98159037  0.91738254  0.08520374  1
  O  O477  1  0.98072776  0.91629188  0.33522164  1
  O  O478  1  0.98381258  0.91714472  0.58450047  1
  O  O479  1  0.98393891  0.91635788  0.83524601  1
  O  O480  1  0.08624390  0.31386324  0.07689817  1
  O  O481  1  0.08502756  0.31586783  0.32684632  1
  O  O482  1  0.08774945  0.31431041  0.57595841  1
  O  O483  1  0.08912905  0.31544654  0.82713491  1
  O  O484  1  0.08871328  0.64859631  0.07783026  1
  O  O485  1  0.08642592  0.64729682  0.32641257  1
  O  O486  1  0.08851627  0.64879555  0.57846424  1
  O  O487  1  0.08951908  0.64802379  0.82793544  1
  O  O488  1  0.08538293  0.98277370  0.07799751  1
  O  O489  1  0.08443724  0.98163274  0.32650128  1
  O  O490  1  0.08730120  0.98242495  0.57775804  1
  O  O491  1  0.08761661  0.98151934  0.82784446  1
  O  O492  1  0.58820055  0.31570834  0.07793399  1
  O  O493  1  0.58856407  0.31557262  0.32711780  1
  O  O494  1  0.58813538  0.31654806  0.57722378  1
  O  O495  1  0.58825011  0.31604592  0.82858744  1
  O  O496  1  0.58813143  0.64773157  0.07737298  1
  O  O497  1  0.58908071  0.64671871  0.32676747  1
  O  O498  1  0.58633634  0.64712052  0.57786076  1
  O  O499  1  0.58911971  0.64877877  0.82826282  1
  O  O500  1  0.58708982  0.98201697  0.07773077  1
  O  O501  1  0.58894243  0.98302452  0.32672037  1
  O  O502  1  0.58735232  0.98164270  0.57776707  1
  O  O503  1  0.58707941  0.98086030  0.82775713  1
  O  O504  1  0.41404420  0.01879135  0.17234361  1
  O  O505  1  0.41492200  0.01971103  0.42224840  1
  O  O506  1  0.41285258  0.01898557  0.67239312  1
  O  O507  1  0.41138779  0.01887605  0.92381777  1
  O  O508  1  0.41374028  0.35194066  0.17272013  1
  O  O509  1  0.41345496  0.35031330  0.42201189  1
  O  O510  1  0.41216272  0.35213284  0.67315925  1
  O  O511  1  0.41427114  0.35176414  0.92292605  1
  O  O512  1  0.41396929  0.68418613  0.17195036  1
  O  O513  1  0.41294227  0.68481167  0.42184333  1
  O  O514  1  0.41173026  0.68337682  0.67321584  1
  O  O515  1  0.41272917  0.68445176  0.92360159  1
  O  O516  1  0.91185815  0.01894210  0.17245873  1
  O  O517  1  0.91042953  0.01835488  0.42095142  1
  O  O518  1  0.91312016  0.02001906  0.67308775  1
  O  O519  1  0.91195694  0.01864521  0.92207395  1
  O  O520  1  0.91040627  0.35029270  0.17184895  1
  O  O521  1  0.90949966  0.35223623  0.42213071  1
  O  O522  1  0.91223017  0.35021800  0.67153998  1
  O  O523  1  0.91138910  0.35230950  0.92350224  1
  O  O524  1  0.91296604  0.68508549  0.17228532  1
  O  O525  1  0.91213615  0.68361451  0.42175405  1
  O  O526  1  0.91496483  0.68471238  0.67387158  1
  O  O527  1  0.91222434  0.68395856  0.92403336  1
  O  O528  1  0.16195590  0.01877556  0.20151149  1
  O  O529  1  0.16103148  0.01990051  0.45198079  1
  O  O530  1  0.16127183  0.01963995  0.70177330  1
  O  O531  1  0.16324545  0.01915061  0.95368111  1
  O  O532  1  0.16414587  0.35192773  0.20216497  1
  O  O533  1  0.16444706  0.35050420  0.45134821  1
  O  O534  1  0.16403677  0.35141104  0.70237805  1
  O  O535  1  0.16290186  0.35131060  0.95378575  1
  O  O536  1  0.16134712  0.68385902  0.20235156  1
  O  O537  1  0.16180562  0.68435170  0.45271108  1
  O  O538  1  0.16366605  0.68372735  0.70249227  1
  O  O539  1  0.16424815  0.68402084  0.95393399  1
  O  O540  1  0.66230009  0.01887721  0.20205687  1
  O  O541  1  0.66158955  0.01999146  0.45120308  1
  O  O542  1  0.66485178  0.01837971  0.70211796  1
  O  O543  1  0.66215401  0.01935437  0.95304732  1
  O  O544  1  0.66184017  0.35177551  0.20263338  1
  O  O545  1  0.66233554  0.35049404  0.45228159  1
  O  O546  1  0.66004227  0.35305915  0.70211898  1
  O  O547  1  0.66231418  0.35104300  0.95285633  1
  O  O548  1  0.66104583  0.68473096  0.20223917  1
  O  O549  1  0.66277219  0.68471924  0.45256227  1
  O  O550  1  0.66161241  0.68412235  0.70338390  1
  O  O551  1  0.66212109  0.68399646  0.95297266  1
  O  O552  1  0.33796263  0.31404450  0.04872226  1
  O  O553  1  0.33970762  0.31616856  0.29696122  1
  O  O554  1  0.33747174  0.31584188  0.54620440  1
  O  O555  1  0.33585672  0.31611030  0.79757836  1
  O  O556  1  0.33743395  0.64879033  0.04874185  1
  O  O557  1  0.33689387  0.64756934  0.29712807  1
  O  O558  1  0.33911243  0.64650669  0.54809273  1
  O  O559  1  0.33752567  0.64790720  0.79698087  1
  O  O560  1  0.33902879  0.98174575  0.04854839  1
  O  O561  1  0.33745730  0.98200938  0.29740876  1
  O  O562  1  0.33675833  0.98226225  0.54718518  1
  O  O563  1  0.33732980  0.98089358  0.79746851  1
  O  O564  1  0.83610611  0.31650601  0.04804278  1
  O  O565  1  0.83725806  0.31513691  0.29699025  1
  O  O566  1  0.83691568  0.31660796  0.54742118  1
  O  O567  1  0.83885126  0.31429272  0.79685637  1
  O  O568  1  0.83498324  0.64827930  0.04798990  1
  O  O569  1  0.83622207  0.64725829  0.29790417  1
  O  O570  1  0.83781718  0.64707473  0.54779624  1
  O  O571  1  0.83535632  0.64803355  0.79814976  1
  O  O572  1  0.83836829  0.98072250  0.04841379  1
  O  O573  1  0.83661460  0.98275137  0.29668851  1
  O  O574  1  0.83815202  0.98180013  0.54654505  1
  O  O575  1  0.83753547  0.98274708  0.79696839  1
  O  O576  1  0.41400020  0.14910209  0.17211542  1
  O  O577  1  0.41532324  0.14978220  0.42218809  1
  O  O578  1  0.41327020  0.14914940  0.67272836  1
  O  O579  1  0.41195893  0.14885744  0.92419587  1
  O  O580  1  0.41414991  0.48197397  0.17297766  1
  O  O581  1  0.41269468  0.48031387  0.42255114  1
  O  O582  1  0.41256852  0.48210817  0.67292588  1
  O  O583  1  0.41385587  0.48174149  0.92256585  1
  O  O584  1  0.41357854  0.81447855  0.17186721  1
  O  O585  1  0.41329126  0.81505039  0.42176267  1
  O  O586  1  0.41077800  0.81350790  0.67339480  1
  O  O587  1  0.41245764  0.81441795  0.92352292  1
  O  O588  1  0.91206678  0.14896317  0.17284550  1
  O  O589  1  0.91033581  0.14892039  0.42152016  1
  O  O590  1  0.91377777  0.15007951  0.67294201  1
  O  O591  1  0.91217874  0.14864430  0.92251688  1
  O  O592  1  0.90980653  0.48038426  0.17274847  1
  O  O593  1  0.91017176  0.48248064  0.42180871  1
  O  O594  1  0.91184681  0.48045094  0.67259104  1
  O  O595  1  0.91196140  0.48213445  0.92376072  1
  O  O596  1  0.91275960  0.81522902  0.17134836  1
  O  O597  1  0.91164321  0.81420419  0.42155113  1
  O  O598  1  0.91473222  0.81480922  0.67293907  1
  O  O599  1  0.91145415  0.81388491  0.92345726  1
  O  O600  1  0.08584903  0.18384079  0.07778166  1
  O  O601  1  0.08532593  0.18593855  0.32738140  1
  O  O602  1  0.08739951  0.18425937  0.57725074  1
  O  O603  1  0.08925860  0.18549366  0.82745780  1
  O  O604  1  0.08902875  0.51846304  0.07728838  1
  O  O605  1  0.08563110  0.51736106  0.32580833  1
  O  O606  1  0.08854445  0.51843369  0.57736800  1
  O  O607  1  0.08932006  0.51806153  0.82735920  1
  O  O608  1  0.08573460  0.85250957  0.07736978  1
  O  O609  1  0.08475759  0.85155986  0.32680188  1
  O  O610  1  0.08753672  0.85180793  0.57784922  1
  O  O611  1  0.08768115  0.85133944  0.82808694  1
  O  O612  1  0.58823996  0.18564334  0.07770032  1
  O  O613  1  0.58891879  0.18554562  0.32708627  1
  O  O614  1  0.58923890  0.18656106  0.57670785  1
  O  O615  1  0.58856407  0.18583341  0.82824838  1
  O  O616  1  0.58788808  0.51756268  0.07768529  1
  O  O617  1  0.58821589  0.51670967  0.32727173  1
  O  O618  1  0.58608343  0.51707323  0.57832051  1
  O  O619  1  0.58965733  0.51853306  0.82799105  1
  O  O620  1  0.58726169  0.85171678  0.07772310  1
  O  O621  1  0.58922744  0.85288187  0.32612780  1
  O  O622  1  0.58684807  0.85148061  0.57751773  1
  O  O623  1  0.58686068  0.85046955  0.82818162  1
  O  O624  1  0.33694133  0.18417081  0.04887749  1
  O  O625  1  0.34009874  0.18610207  0.29805217  1
  O  O626  1  0.33698579  0.18572125  0.54720905  1
  O  O627  1  0.33629972  0.18596760  0.79772606  1
  O  O628  1  0.33815667  0.51888980  0.04862635  1
  O  O629  1  0.33717211  0.51742397  0.29649277  1
  O  O630  1  0.33863281  0.51641935  0.54713670  1
  O  O631  1  0.33747313  0.51766378  0.79705130  1
  O  O632  1  0.33901397  0.85156176  0.04858173  1
  O  O633  1  0.33780343  0.85158181  0.29697481  1
  O  O634  1  0.33703742  0.85197443  0.54689209  1
  O  O635  1  0.33693853  0.85046042  0.79712034  1
  O  O636  1  0.83660814  0.18655423  0.04871949  1
  O  O637  1  0.83674612  0.18504207  0.29737120  1
  O  O638  1  0.83782039  0.18674305  0.54768881  1
  O  O639  1  0.83781680  0.18407299  0.79672015  1
  O  O640  1  0.83574823  0.51822403  0.04747869  1
  O  O641  1  0.83561316  0.51730032  0.29773391  1
  O  O642  1  0.83782785  0.51689169  0.54674419  1
  O  O643  1  0.83487142  0.51798615  0.79835603  1
  O  O644  1  0.83774592  0.85050811  0.04798882  1
  O  O645  1  0.83716290  0.85250936  0.29712293  1
  O  O646  1  0.83785025  0.85165118  0.54730781  1
  O  O647  1  0.83751369  0.85231802  0.79749118  1
  O  O648  1  0.16148805  0.14874004  0.20188847  1
  O  O649  1  0.16151897  0.15023729  0.45254952  1
  O  O650  1  0.16151038  0.14978307  0.70256817  1
  O  O651  1  0.16354770  0.14942515  0.95430822  1
  O  O652  1  0.16411319  0.48188311  0.20249881  1
  O  O653  1  0.16419776  0.48056046  0.45142439  1
  O  O654  1  0.16410739  0.48152861  0.70228047  1
  O  O655  1  0.16317847  0.48168873  0.95360175  1
  O  O656  1  0.16112468  0.81395500  0.20146991  1
  O  O657  1  0.16212986  0.81466166  0.45217646  1
  O  O658  1  0.16341527  0.81377565  0.70198506  1
  O  O659  1  0.16407030  0.81431995  0.95324029  1
  O  O660  1  0.66209368  0.14899301  0.20251254  1
  O  O661  1  0.66227163  0.15010871  0.45182557  1
  O  O662  1  0.66483494  0.14844755  0.70209351  1
  O  O663  1  0.66201532  0.14971696  0.95380723  1
  O  O664  1  0.66225070  0.48175660  0.20270660  1
  O  O665  1  0.66135955  0.48035899  0.45207913  1
  O  O666  1  0.66105575  0.48308077  0.70263130  1
  O  O667  1  0.66133945  0.48111406  0.95324097  1
  O  O668  1  0.66170620  0.81491359  0.20158893  1
  O  O669  1  0.66283801  0.81492765  0.45231712  1
  O  O670  1  0.66183135  0.81441695  0.70277511  1
  O  O671  1  0.66189982  0.81407690  0.95207345  1
