# generated using pymatgen
data_Na2MnFe(PO4)2
_symmetry_space_group_name_H-M   'P 1'
_cell_length_a   21.09250700
_cell_length_b   18.94712239
_cell_length_c   20.05127705
_cell_angle_alpha   89.99974958
_cell_angle_beta   90.00245251
_cell_angle_gamma   90.00186803
_symmetry_Int_Tables_number   1
_chemical_formula_structural   Na2MnFe(PO4)2
_chemical_formula_sum   'Na96 Mn48 Fe48 P96 O384'
_cell_volume   8013.33870056
_cell_formula_units_Z   48
loop_
 _symmetry_equiv_pos_site_id
 _symmetry_equiv_pos_as_xyz
  1  'x, y, z'
loop_
 _atom_site_type_symbol
 _atom_site_label
 _atom_site_symmetry_multiplicity
 _atom_site_fract_x
 _atom_site_fract_y
 _atom_site_fract_z
 _atom_site_occupancy
  Na  Na0  1  0.00082516  0.00065941  -0.00126817  1
  Na  Na1  1  0.00032476  0.00011429  0.25055891  1
  Na  Na2  1  -0.00047712  0.00040365  0.49971990  1
  Na  Na3  1  -0.00049779  0.00026237  0.75002413  1
  Na  Na4  1  0.00082111  0.33327844  0.00026500  1
  Na  Na5  1  -0.00084253  0.33318429  0.25011949  1
  Na  Na6  1  -0.00169188  0.33320332  0.50079551  1
  Na  Na7  1  -0.00039542  0.33338977  0.74924523  1
  Na  Na8  1  0.00259280  0.66625854  0.00052313  1
  Na  Na9  1  0.00180450  0.66656725  0.25047754  1
  Na  Na10  1  -0.00001541  0.66616051  0.50086605  1
  Na  Na11  1  0.00151698  0.66653986  0.74902780  1
  Na  Na12  1  0.49667738  -0.00022853  -0.00010156  1
  Na  Na13  1  0.49816038  0.00005573  0.25001473  1
  Na  Na14  1  0.50140250  0.00096506  0.49926561  1
  Na  Na15  1  0.49768747  0.00006239  0.75070582  1
  Na  Na16  1  0.49903010  0.33366702  -0.00055437  1
  Na  Na17  1  0.49947704  0.33323819  0.24997011  1
  Na  Na18  1  0.50276459  0.33413056  0.49964286  1
  Na  Na19  1  0.50017699  0.33345221  0.75097452  1
  Na  Na20  1  0.49770432  0.66555542  -0.00031171  1
  Na  Na21  1  0.50129829  0.66649437  0.25120860  1
  Na  Na22  1  0.50200065  0.66659207  0.49974933  1
  Na  Na23  1  0.49933513  0.66631828  0.74927277  1
  Na  Na24  1  0.24976807  0.00046443  0.12447585  1
  Na  Na25  1  0.25045313  0.00043451  0.37630962  1
  Na  Na26  1  0.24996711  0.00029036  0.62524240  1
  Na  Na27  1  0.25053619  0.00098244  0.87380378  1
  Na  Na28  1  0.25060472  0.33416525  0.12559800  1
  Na  Na29  1  0.24836309  0.33294844  0.37617364  1
  Na  Na30  1  0.24881331  0.33375448  0.62496065  1
  Na  Na31  1  0.24939478  0.33359596  0.87428701  1
  Na  Na32  1  0.24936549  0.66603024  0.12448843  1
  Na  Na33  1  0.24818330  0.66534452  0.37472053  1
  Na  Na34  1  0.24840029  0.66598408  0.62575317  1
  Na  Na35  1  0.24792184  0.66516457  0.87480789  1
  Na  Na36  1  0.75195200  0.00103948  0.12572813  1
  Na  Na37  1  0.74911803  -0.00013984  0.37472511  1
  Na  Na38  1  0.75079664  0.00066347  0.62519363  1
  Na  Na39  1  0.75223347  0.00116533  0.87450401  1
  Na  Na40  1  0.75082400  0.33314765  0.12438653  1
  Na  Na41  1  0.75086295  0.33405622  0.37568613  1
  Na  Na42  1  0.75098396  0.33326144  0.62453022  1
  Na  Na43  1  0.75105269  0.33289956  0.87425324  1
  Na  Na44  1  0.74911173  0.66564334  0.12352866  1
  Na  Na45  1  0.75042393  0.66690074  0.37456366  1
  Na  Na46  1  0.74943775  0.66574681  0.62579908  1
  Na  Na47  1  0.75196406  0.66730162  0.87629562  1
  Na  Na48  1  0.00122232  0.16616956  0.00000837  1
  Na  Na49  1  0.00039620  0.16623689  0.24942205  1
  Na  Na50  1  -0.00279730  0.16761096  0.50117855  1
  Na  Na51  1  -0.00111547  0.16650728  0.74925495  1
  Na  Na52  1  0.00150829  0.49984941  -0.00007626  1
  Na  Na53  1  0.00118972  0.49979419  0.25074896  1
  Na  Na54  1  0.00123201  0.49914325  0.50009733  1
  Na  Na55  1  0.00127729  0.49944745  0.74947336  1
  Na  Na56  1  0.00221254  0.83299194  -0.00049390  1
  Na  Na57  1  -0.00080698  0.83452287  0.25097345  1
  Na  Na58  1  -0.00111524  0.83400897  0.50003849  1
  Na  Na59  1  0.00045474  0.83353878  0.74961733  1
  Na  Na60  1  0.49859178  0.16639362  -0.00026277  1
  Na  Na61  1  0.50073140  0.16644389  0.24985096  1
  Na  Na62  1  0.50317313  0.16573297  0.49940702  1
  Na  Na63  1  0.50025807  0.16676605  0.75085392  1
  Na  Na64  1  0.49650393  0.49979487  -0.00013393  1
  Na  Na65  1  0.49767213  0.50034111  0.25036475  1
  Na  Na66  1  0.50301132  0.49819533  0.49943421  1
  Na  Na67  1  0.49802311  0.49991579  0.75008611  1
  Na  Na68  1  0.50038878  0.83262515  -0.00003758  1
  Na  Na69  1  0.50005195  0.83390609  0.25068153  1
  Na  Na70  1  0.49982722  0.83458845  0.50002792  1
  Na  Na71  1  0.49809324  0.83463691  0.74972510  1
  Na  Na72  1  0.24877319  0.16660167  0.12455326  1
  Na  Na73  1  0.24948800  0.16576632  0.37624877  1
  Na  Na74  1  0.24862655  0.16665489  0.62496196  1
  Na  Na75  1  0.24873603  0.16627401  0.87463429  1
  Na  Na76  1  0.25000025  0.49990248  0.12564023  1
  Na  Na77  1  0.24772866  0.49987683  0.37509100  1
  Na  Na78  1  0.24692920  0.50005254  0.62519452  1
  Na  Na79  1  0.25028968  0.49919840  0.87454718  1
  Na  Na80  1  0.24890031  0.83461343  0.12468940  1
  Na  Na81  1  0.25140277  0.83380835  0.37554374  1
  Na  Na82  1  0.25123176  0.83359643  0.62599514  1
  Na  Na83  1  0.24923142  0.83415723  0.87346479  1
  Na  Na84  1  0.74966677  0.16720968  0.12508963  1
  Na  Na85  1  0.75058021  0.16632972  0.37571686  1
  Na  Na86  1  0.75061652  0.16686994  0.62423346  1
  Na  Na87  1  0.75213437  0.16667992  0.87394592  1
  Na  Na88  1  0.75190746  0.49901150  0.12420313  1
  Na  Na89  1  0.74930942  0.49969274  0.37551015  1
  Na  Na90  1  0.75044336  0.49924176  0.62505739  1
  Na  Na91  1  0.75162884  0.49936944  0.87586585  1
  Na  Na92  1  0.75058826  0.83329500  0.12431831  1
  Na  Na93  1  0.75035325  0.83346331  0.37398795  1
  Na  Na94  1  0.75119076  0.83319432  0.62587178  1
  Na  Na95  1  0.74985649  0.83441061  0.87551661  1
  Mn  Mn96  1  0.10841202  0.41605317  0.12319043  1
  Mn  Mn97  1  0.89260894  0.24947633  0.12735632  1
  Mn  Mn98  1  0.14204653  0.25027483  0.99689973  1
  Mn  Mn99  1  0.39295806  0.24981088  0.62693813  1
  Mn  Mn100  1  0.10715964  0.08415827  0.37317045  1
  Mn  Mn101  1  0.85883591  0.41601297  0.00170989  1
  Mn  Mn102  1  0.35824687  0.08371678  0.50288728  1
  Mn  Mn103  1  0.60727843  0.08305804  0.12187753  1
  Mn  Mn104  1  0.35813217  0.75032345  0.25273147  1
  Mn  Mn105  1  0.89262553  0.58288206  0.37743690  1
  Mn  Mn106  1  0.14065628  0.24989776  0.49759562  1
  Mn  Mn107  1  0.85849734  0.74943595  0.75309839  1
  Mn  Mn108  1  0.60739403  0.08291981  0.87337449  1
  Mn  Mn109  1  0.14252150  0.91720118  0.74688996  1
  Mn  Mn110  1  0.64247459  0.91803034  0.99797277  1
  Mn  Mn111  1  0.64158188  0.58254387  0.99736587  1
  Mn  Mn112  1  0.10784866  0.74987671  0.37313721  1
  Mn  Mn113  1  0.64210506  0.91646959  0.24709354  1
  Mn  Mn114  1  0.85805869  0.74915558  0.25163941  1
  Mn  Mn115  1  0.35733547  0.41671118  0.50233030  1
  Mn  Mn116  1  0.60702063  0.41713847  0.12282834  1
  Mn  Mn117  1  0.35729720  0.74938270  0.75231935  1
  Mn  Mn118  1  0.39100089  0.24989464  0.87700707  1
  Mn  Mn119  1  0.85894800  0.75076131  0.00249397  1
  Mn  Mn120  1  0.39227236  0.58291958  0.62645426  1
  Mn  Mn121  1  0.64227488  0.58291936  0.24691221  1
  Mn  Mn122  1  0.35685603  0.74991804  0.00236689  1
  Mn  Mn123  1  0.85828625  0.08403779  0.25221776  1
  Mn  Mn124  1  0.60693055  0.41710416  0.87293466  1
  Mn  Mn125  1  0.39134023  0.25035588  0.12752627  1
  Mn  Mn126  1  0.89330949  0.91630694  0.87773517  1
  Mn  Mn127  1  0.60812135  0.75031724  0.62269243  1
  Mn  Mn128  1  0.39227735  0.58351058  0.37797781  1
  Mn  Mn129  1  0.39130436  0.91582405  0.12717357  1
  Mn  Mn130  1  0.35771978  0.74935536  0.50238679  1
  Mn  Mn131  1  0.89162124  0.91703299  0.37801260  1
  Mn  Mn132  1  0.39241012  0.24970916  0.37740557  1
  Mn  Mn133  1  0.10756056  0.75084347  0.62173031  1
  Mn  Mn134  1  0.64210889  0.91713089  0.74801117  1
  Mn  Mn135  1  0.14257109  0.91703029  0.24804780  1
  Mn  Mn136  1  0.64226422  0.58278203  0.74888253  1
  Mn  Mn137  1  0.60868967  0.75027216  0.37297673  1
  Mn  Mn138  1  0.89222107  0.58342620  0.62739281  1
  Mn  Mn139  1  0.10878238  0.75106356  0.12276116  1
  Mn  Mn140  1  0.64321535  0.25016870  0.74786937  1
  Mn  Mn141  1  0.64277129  0.25048314  0.24766075  1
  Mn  Mn142  1  0.89331126  0.58404290  0.12734517  1
  Mn  Mn143  1  0.60703853  0.74984845  0.87301083  1
  Fe  Fe144  1  0.10780581  0.41637850  0.87270416  1
  Fe  Fe145  1  0.39174127  0.91622709  0.87705127  1
  Fe  Fe146  1  0.85780845  0.08362383  0.75170655  1
  Fe  Fe147  1  0.14180182  0.25016927  0.74821569  1
  Fe  Fe148  1  0.14334381  0.58291009  0.24833865  1
  Fe  Fe149  1  0.14325537  0.58349919  0.99770098  1
  Fe  Fe150  1  0.10635695  0.41586778  0.37342101  1
  Fe  Fe151  1  0.10713300  0.08375786  0.87235793  1
  Fe  Fe152  1  0.89388306  0.91657526  0.12589670  1
  Fe  Fe153  1  0.39084987  0.58376061  0.87652169  1
  Fe  Fe154  1  0.39312037  0.91742893  0.62589773  1
  Fe  Fe155  1  0.60814042  0.41616495  0.37252719  1
  Fe  Fe156  1  0.60827226  0.41616822  0.62384181  1
  Fe  Fe157  1  0.64288412  0.91667355  0.49896025  1
  Fe  Fe158  1  0.35562588  0.08384497  0.00160569  1
  Fe  Fe159  1  0.89390931  0.25051107  0.87647006  1
  Fe  Fe160  1  0.10612073  0.08327482  0.62350722  1
  Fe  Fe161  1  0.35673313  0.08425127  0.25169459  1
  Fe  Fe162  1  0.35696609  0.08442975  0.75101494  1
  Fe  Fe163  1  0.14277277  0.91628975  0.49882939  1
  Fe  Fe164  1  0.60702276  0.74968995  0.12314170  1
  Fe  Fe165  1  0.10793973  0.74980049  0.87315324  1
  Fe  Fe166  1  0.39310431  0.91708963  0.37729529  1
  Fe  Fe167  1  0.85823503  0.41683468  0.75210480  1
  Fe  Fe168  1  0.85710878  0.75004523  0.50145637  1
  Fe  Fe169  1  0.89230955  0.24965931  0.62694555  1
  Fe  Fe170  1  0.14193607  0.58400034  0.49818411  1
  Fe  Fe171  1  0.60802186  0.08366707  0.62384771  1
  Fe  Fe172  1  0.89238955  0.25027642  0.37658413  1
  Fe  Fe173  1  0.14248908  0.58245574  0.74853853  1
  Fe  Fe174  1  0.85645175  0.08285090  0.50204505  1
  Fe  Fe175  1  0.35619363  0.41616138  0.00160166  1
  Fe  Fe176  1  0.35644898  0.41609982  0.75084720  1
  Fe  Fe177  1  0.85847553  0.08355965  0.00149967  1
  Fe  Fe178  1  0.14231395  0.24983308  0.24917631  1
  Fe  Fe179  1  0.85792391  0.41693360  0.25209154  1
  Fe  Fe180  1  0.10775726  0.08285729  0.12326739  1
  Fe  Fe181  1  0.35635216  0.41579680  0.25265001  1
  Fe  Fe182  1  0.10646444  0.41577698  0.62312533  1
  Fe  Fe183  1  0.85695848  0.41706334  0.50183401  1
  Fe  Fe184  1  0.64309092  0.24958429  0.99819978  1
  Fe  Fe185  1  0.64394295  0.25000842  0.49839598  1
  Fe  Fe186  1  0.64327719  0.58318801  0.49892979  1
  Fe  Fe187  1  0.14242246  0.91667931  0.99771194  1
  Fe  Fe188  1  0.60763729  0.08359988  0.37305251  1
  Fe  Fe189  1  0.89457620  0.58295708  0.87642428  1
  Fe  Fe190  1  0.89214181  0.91708523  0.62598791  1
  Fe  Fe191  1  0.39180386  0.58358997  0.12693038  1
  P  P192  1  0.05499237  0.24911072  0.11120077  1
  P  P193  1  0.05190850  0.25073838  0.35984326  1
  P  P194  1  0.05282832  0.24964546  0.61166423  1
  P  P195  1  0.05321415  0.24996371  0.85918951  1
  P  P196  1  0.05623296  0.58303102  0.11055221  1
  P  P197  1  0.05539740  0.58236418  0.36087532  1
  P  P198  1  0.05506357  0.58218622  0.61076913  1
  P  P199  1  0.05495568  0.58294172  0.86053946  1
  P  P200  1  0.05359520  0.91789142  0.10923259  1
  P  P201  1  0.05420981  0.91687720  0.36146772  1
  P  P202  1  0.05232345  0.91800566  0.60927477  1
  P  P203  1  0.05526300  0.91685581  0.86085355  1
  P  P204  1  0.55352367  0.25029678  0.10902449  1
  P  P205  1  0.55547049  0.25006289  0.36123367  1
  P  P206  1  0.55486588  0.24998385  0.60977453  1
  P  P207  1  0.55422348  0.24976246  0.86123470  1
  P  P208  1  0.55142549  0.58339339  0.10984490  1
  P  P209  1  0.55545345  0.58216640  0.36126370  1
  P  P210  1  0.55431968  0.58207844  0.60963260  1
  P  P211  1  0.55071640  0.58307347  0.85995127  1
  P  P212  1  0.55262166  0.91617535  0.10971149  1
  P  P213  1  0.55430748  0.91781048  0.36125425  1
  P  P214  1  0.55299364  0.91808347  0.60981891  1
  P  P215  1  0.55153090  0.91703093  0.86020278  1
  P  P216  1  0.44409037  0.08363894  0.13955313  1
  P  P217  1  0.44658913  0.08318093  0.38880612  1
  P  P218  1  0.44791603  0.08336584  0.64037277  1
  P  P219  1  0.44368215  0.08299308  0.88941152  1
  P  P220  1  0.44375134  0.41726786  0.13970693  1
  P  P221  1  0.44664444  0.41616880  0.38919474  1
  P  P222  1  0.44774047  0.41618473  0.64018988  1
  P  P223  1  0.44331138  0.41709890  0.88910781  1
  P  P224  1  0.44744763  0.74895623  0.14025050  1
  P  P225  1  0.44706810  0.75087671  0.39037552  1
  P  P226  1  0.44663267  0.75058134  0.63963408  1
  P  P227  1  0.44546264  0.74999948  0.88980202  1
  P  P228  1  0.94733789  0.08215465  0.13852802  1
  P  P229  1  0.94550826  0.08459950  0.39114615  1
  P  P230  1  0.94499427  0.08282081  0.63887093  1
  P  P231  1  0.94653031  0.08453745  0.88888090  1
  P  P232  1  0.94656982  0.41677431  0.14082992  1
  P  P233  1  0.94578758  0.41597841  0.38977947  1
  P  P234  1  0.94538718  0.41632473  0.63914995  1
  P  P235  1  0.94781054  0.41655951  0.88837789  1
  P  P236  1  0.94800982  0.75111415  0.14011864  1
  P  P237  1  0.94604650  0.74954829  0.39109030  1
  P  P238  1  0.94498305  0.75092183  0.63857427  1
  P  P239  1  0.94895656  0.74871932  0.88991003  1
  P  P240  1  0.19678106  0.08406610  0.23496054  1
  P  P241  1  0.19482804  0.08234377  0.48682381  1
  P  P242  1  0.19538293  0.08451894  0.73520605  1
  P  P243  1  0.19520068  0.08254791  0.98502538  1
  P  P244  1  0.19605239  0.41597041  0.23698580  1
  P  P245  1  0.19376282  0.41717925  0.48570443  1
  P  P246  1  0.19498485  0.41616965  0.73562197  1
  P  P247  1  0.19684000  0.41734616  0.98441903  1
  P  P248  1  0.19723943  0.74967818  0.23522565  1
  P  P249  1  0.19663315  0.75058112  0.48508495  1
  P  P250  1  0.19503935  0.74914474  0.73608191  1
  P  P251  1  0.19598651  0.75026052  0.98407481  1
  P  P252  1  0.69561676  0.08367907  0.23581455  1
  P  P253  1  0.69583477  0.08332707  0.48622469  1
  P  P254  1  0.69768378  0.08376951  0.73460079  1
  P  P255  1  0.69849053  0.08435959  0.98474849  1
  P  P256  1  0.69743274  0.41644259  0.23543705  1
  P  P257  1  0.69604303  0.41626450  0.48617925  1
  P  P258  1  0.69797094  0.41653739  0.73493015  1
  P  P259  1  0.69666398  0.41529961  0.98486160  1
  P  P260  1  0.69623381  0.74975501  0.23345105  1
  P  P261  1  0.69804606  0.75031662  0.48552543  1
  P  P262  1  0.69696518  0.74984188  0.73562786  1
  P  P263  1  0.69568670  0.75027249  0.98590553  1
  P  P264  1  0.30254530  0.25003217  0.01462755  1
  P  P265  1  0.30167093  0.24959853  0.26544069  1
  P  P266  1  0.30259055  0.25011105  0.51548582  1
  P  P267  1  0.30166306  0.25003488  0.76408444  1
  P  P268  1  0.30342938  0.58244634  0.01420626  1
  P  P269  1  0.30360923  0.58245681  0.26421936  1
  P  P270  1  0.30126585  0.58287590  0.51521421  1
  P  P271  1  0.30228715  0.58200413  0.76472816  1
  P  P272  1  0.30249741  0.91737696  0.01326912  1
  P  P273  1  0.30412978  0.91823109  0.26593461  1
  P  P274  1  0.30404716  0.91688692  0.51495514  1
  P  P275  1  0.30570234  0.91809527  0.76359367  1
  P  P276  1  0.80453559  0.24907414  0.01349018  1
  P  P277  1  0.80434664  0.25095139  0.26581446  1
  P  P278  1  0.80466749  0.25013291  0.51391238  1
  P  P279  1  0.80640322  0.25014935  0.76388202  1
  P  P280  1  0.80539087  0.58311996  0.01370099  1
  P  P281  1  0.80362119  0.58240733  0.26492386  1
  P  P282  1  0.80259521  0.58315752  0.51484257  1
  P  P283  1  0.80453391  0.58207874  0.76616298  1
  P  P284  1  0.80477430  0.91815459  0.01559838  1
  P  P285  1  0.80486977  0.91661759  0.26356081  1
  P  P286  1  0.80241400  0.91686656  0.51538025  1
  P  P287  1  0.80500624  0.91765911  0.76405255  1
  O  O288  1  0.05911033  0.24982663  0.18796101  1
  O  O289  1  0.05502527  0.25014211  0.43652068  1
  O  O290  1  0.05760392  0.24972549  0.68827921  1
  O  O291  1  0.05658679  0.25003387  0.93589636  1
  O  O292  1  0.06050041  0.58290590  0.18736657  1
  O  O293  1  0.05881973  0.58350675  0.43768684  1
  O  O294  1  0.05916492  0.58284860  0.68751043  1
  O  O295  1  0.05926242  0.58276769  0.93725543  1
  O  O296  1  0.05681252  0.91744323  0.18608802  1
  O  O297  1  0.05871028  0.91662752  0.43799582  1
  O  O298  1  0.05634862  0.91724421  0.68628801  1
  O  O299  1  0.05907449  0.91697825  0.93728097  1
  O  O300  1  0.55703104  0.25030909  0.18582166  1
  O  O301  1  0.56003511  0.25017805  0.43793619  1
  O  O302  1  0.55727042  0.25005003  0.68658784  1
  O  O303  1  0.55872678  0.24955659  0.93788820  1
  O  O304  1  0.55554313  0.58248459  0.18654897  1
  O  O305  1  0.56035676  0.58269010  0.43797885  1
  O  O306  1  0.55674955  0.58276123  0.68638973  1
  O  O307  1  0.55490616  0.58250649  0.93661310  1
  O  O308  1  0.55580656  0.91731848  0.18646919  1
  O  O309  1  0.55951202  0.91712544  0.43791663  1
  O  O310  1  0.55627638  0.91747570  0.68652249  1
  O  O311  1  0.55596760  0.91749363  0.93683545  1
  O  O312  1  0.43910820  0.08380661  0.06281894  1
  O  O313  1  0.44136110  0.08426332  0.31223933  1
  O  O314  1  0.44452164  0.08413360  0.56362622  1
  O  O315  1  0.43981413  0.08450325  0.81267075  1
  O  O316  1  0.43941644  0.41619822  0.06293240  1
  O  O317  1  0.44066165  0.41593326  0.31259383  1
  O  O318  1  0.44385325  0.41616904  0.56347692  1
  O  O319  1  0.43911986  0.41601004  0.81235179  1
  O  O320  1  0.44309305  0.74949423  0.06357936  1
  O  O321  1  0.44389476  0.74997100  0.31362303  1
  O  O322  1  0.44384830  0.74971107  0.56286261  1
  O  O323  1  0.44289869  0.74996606  0.81302215  1
  O  O324  1  0.94298484  0.08334698  0.06200243  1
  O  O325  1  0.94318006  0.08352380  0.31401641  1
  O  O326  1  0.94020444  0.08290314  0.56226905  1
  O  O327  1  0.94183941  0.08362188  0.81220055  1
  O  O328  1  0.94376415  0.41659376  0.06400590  1
  O  O329  1  0.94152467  0.41702435  0.31309092  1
  O  O330  1  0.94046236  0.41717450  0.56245111  1
  O  O331  1  0.94330218  0.41676660  0.81175927  1
  O  O332  1  0.94524309  0.75005283  0.06338437  1
  O  O333  1  0.94313489  0.74943648  0.31427302  1
  O  O334  1  0.94037657  0.75004889  0.56205171  1
  O  O335  1  0.94511923  0.74932804  0.81315531  1
  O  O336  1  0.19096341  0.08294746  0.06172865  1
  O  O337  1  0.19312353  0.08333159  0.31166582  1
  O  O338  1  0.19006745  0.08317561  0.56352407  1
  O  O339  1  0.19066329  0.08377755  0.81188031  1
  O  O340  1  0.19367289  0.41647357  0.06113839  1
  O  O341  1  0.19123862  0.41571618  0.31356467  1
  O  O342  1  0.18965394  0.41586773  0.56250690  1
  O  O343  1  0.19081694  0.41599018  0.81235651  1
  O  O344  1  0.19375523  0.75066761  0.06093873  1
  O  O345  1  0.19410581  0.75029865  0.31193434  1
  O  O346  1  0.19403279  0.75084388  0.56230889  1
  O  O347  1  0.19102991  0.74991161  0.81265327  1
  O  O348  1  0.69431505  0.08360385  0.06142165  1
  O  O349  1  0.69133697  0.08339154  0.31249135  1
  O  O350  1  0.69152131  0.08325685  0.56291897  1
  O  O351  1  0.69341603  0.08368103  0.81125184  1
  O  O352  1  0.69328460  0.41630493  0.06158282  1
  O  O353  1  0.69240496  0.41650941  0.31212461  1
  O  O354  1  0.69179876  0.41614627  0.56284850  1
  O  O355  1  0.69344249  0.41644944  0.81156367  1
  O  O356  1  0.69061305  0.74966039  0.06258420  1
  O  O357  1  0.69316731  0.75001400  0.31030920  1
  O  O358  1  0.69453801  0.75034972  0.56220722  1
  O  O359  1  0.69340457  0.75024210  0.81240380  1
  O  O360  1  0.30508368  0.24988731  0.18875787  1
  O  O361  1  0.30645107  0.24979594  0.43876197  1
  O  O362  1  0.30561215  0.24995980  0.68749112  1
  O  O363  1  0.30504856  0.24982894  0.93788719  1
  O  O364  1  0.30809032  0.58339769  0.18751738  1
  O  O365  1  0.30556048  0.58268246  0.43855312  1
  O  O366  1  0.30604867  0.58271563  0.68805203  1
  O  O367  1  0.30761640  0.58341329  0.93751392  1
  O  O368  1  0.30647601  0.91700465  0.18905151  1
  O  O369  1  0.30907831  0.91734296  0.43829682  1
  O  O370  1  0.31001572  0.91749748  0.68694574  1
  O  O371  1  0.30707125  0.91659119  0.93663095  1
  O  O372  1  0.80725632  0.24998695  0.18904466  1
  O  O373  1  0.80874550  0.25031337  0.43725473  1
  O  O374  1  0.80982018  0.25003354  0.68700472  1
  O  O375  1  0.80966069  0.25000518  0.93682163  1
  O  O376  1  0.80699493  0.58290558  0.18816887  1
  O  O377  1  0.80614591  0.58298355  0.43817312  1
  O  O378  1  0.80709448  0.58281099  0.68952327  1
  O  O379  1  0.81076747  0.58326243  0.93704652  1
  O  O380  1  0.80969886  0.91687534  0.18702269  1
  O  O381  1  0.80553406  0.91706028  0.43858071  1
  O  O382  1  0.80889964  0.91696434  0.68740929  1
  O  O383  1  0.80793141  0.91713907  0.93868773  1
  O  O384  1  0.23302406  0.25044276  0.04016864  1
  O  O385  1  0.23175146  0.24941579  0.29057306  1
  O  O386  1  0.23271526  0.25015341  0.53975551  1
  O  O387  1  0.23164571  0.25014901  0.78883785  1
  O  O388  1  0.23308730  0.58324750  0.03801543  1
  O  O389  1  0.23325866  0.58220692  0.28796536  1
  O  O390  1  0.23117776  0.58320274  0.53939708  1
  O  O391  1  0.23210665  0.58197639  0.78897517  1
  O  O392  1  0.23230183  0.91721558  0.03736530  1
  O  O393  1  0.23451576  0.91747228  0.29125203  1
  O  O394  1  0.23371312  0.91689758  0.53866689  1
  O  O395  1  0.23522915  0.91766191  0.78710183  1
  O  O396  1  0.73437204  0.24958995  0.03753269  1
  O  O397  1  0.73479358  0.25025260  0.29101729  1
  O  O398  1  0.73426485  0.25008842  0.53776569  1
  O  O399  1  0.73641619  0.25011457  0.78820246  1
  O  O400  1  0.73512532  0.58236400  0.03704549  1
  O  O401  1  0.73395882  0.58310307  0.28993491  1
  O  O402  1  0.73255857  0.58254047  0.53963437  1
  O  O403  1  0.73491393  0.58305449  0.79171950  1
  O  O404  1  0.73508641  0.91750758  0.04052950  1
  O  O405  1  0.73484432  0.91657585  0.28757022  1
  O  O406  1  0.73237578  0.91717859  0.54022849  1
  O  O407  1  0.73513668  0.91766454  0.78878081  1
  O  O408  1  0.26676374  0.08365661  0.21030251  1
  O  O409  1  0.26495795  0.08300606  0.46307788  1
  O  O410  1  0.26579745  0.08377646  0.71174524  1
  O  O411  1  0.26553253  0.08358418  0.96121051  1
  O  O412  1  0.26629143  0.41651713  0.21292820  1
  O  O413  1  0.26384079  0.41636893  0.46166429  1
  O  O414  1  0.26532808  0.41652507  0.71164946  1
  O  O415  1  0.26683064  0.41643410  0.95981706  1
  O  O416  1  0.26676208  0.75032119  0.20964155  1
  O  O417  1  0.26598428  0.74977175  0.45949446  1
  O  O418  1  0.26491476  0.74964319  0.71167609  1
  O  O419  1  0.26548675  0.74984732  0.95841422  1
  O  O420  1  0.76585525  0.08428366  0.21192991  1
  O  O421  1  0.76634350  0.08338529  0.46254321  1
  O  O422  1  0.76791547  0.08411551  0.71072846  1
  O  O423  1  0.76849907  0.08392478  0.96021976  1
  O  O424  1  0.76769020  0.41612328  0.21176050  1
  O  O425  1  0.76658087  0.41640291  0.46255660  1
  O  O426  1  0.76819072  0.41615263  0.71104178  1
  O  O427  1  0.76648638  0.41577305  0.96011396  1
  O  O428  1  0.76594798  0.74929120  0.20860850  1
  O  O429  1  0.76792715  0.75039959  0.46034983  1
  O  O430  1  0.76672795  0.74928088  0.71098226  1
  O  O431  1  0.76594865  0.75105297  0.96242993  1
  O  O432  1  0.01739189  0.08282895  0.16312200  1
  O  O433  1  0.01505046  0.08431030  0.41629003  1
  O  O434  1  0.01544438  0.08315256  0.66262785  1
  O  O435  1  0.01704606  0.08384029  0.91214883  1
  O  O436  1  0.01630146  0.41655052  0.16569599  1
  O  O437  1  0.01604351  0.41623686  0.41372783  1
  O  O438  1  0.01595293  0.41634650  0.66234482  1
  O  O439  1  0.01808117  0.41633684  0.91260172  1
  O  O440  1  0.01750241  0.75098338  0.16581044  1
  O  O441  1  0.01577007  0.74968011  0.41602174  1
  O  O442  1  0.01543229  0.75053028  0.66243266  1
  O  O443  1  0.01901545  0.74931009  0.91427302  1
  O  O444  1  0.51432708  0.08362453  0.16291623  1
  O  O445  1  0.51698907  0.08344467  0.41227535  1
  O  O446  1  0.51795311  0.08361925  0.66508157  1
  O  O447  1  0.51372704  0.08320466  0.91373063  1
  O  O448  1  0.51385681  0.41657019  0.16371283  1
  O  O449  1  0.51722659  0.41617569  0.41185595  1
  O  O450  1  0.51787313  0.41641109  0.66457522  1
  O  O451  1  0.51339412  0.41663689  0.91319521  1
  O  O452  1  0.51743260  0.74959877  0.16485225  1
  O  O453  1  0.51677166  0.75070368  0.41540600  1
  O  O454  1  0.51621626  0.75047748  0.66508458  1
  O  O455  1  0.51490237  0.74951749  0.91557759  1
  O  O456  1  0.48356167  0.25011369  0.08472151  1
  O  O457  1  0.48546347  0.25001022  0.33695071  1
  O  O458  1  0.48533405  0.24986906  0.58395069  1
  O  O459  1  0.48411336  0.24998029  0.83729592  1
  O  O460  1  0.48127509  0.58285892  0.08562186  1
  O  O461  1  0.48528419  0.58283434  0.33762538  1
  O  O462  1  0.48473385  0.58238297  0.58389881  1
  O  O463  1  0.48063980  0.58320317  0.83565647  1
  O  O464  1  0.48286432  0.91634544  0.08474157  1
  O  O465  1  0.48395508  0.91742906  0.33765844  1
  O  O466  1  0.48292203  0.91776581  0.58510603  1
  O  O467  1  0.48138395  0.91714983  0.83623181  1
  O  O468  1  0.98509778  0.24962882  0.08676686  1
  O  O469  1  0.98200325  0.25000957  0.33493765  1
  O  O470  1  0.98238027  0.24987123  0.58802707  1
  O  O471  1  0.98320162  0.24997269  0.83455285  1
  O  O472  1  0.98619771  0.58299516  0.08662576  1
  O  O473  1  0.98548012  0.58312691  0.33642771  1
  O  O474  1  0.98509617  0.58276283  0.58671325  1
  O  O475  1  0.98471618  0.58284184  0.83625618  1
  O  O476  1  0.98382321  0.91689112  0.08407486  1
  O  O477  1  0.98410898  0.91722550  0.33753443  1
  O  O478  1  0.98225485  0.91744660  0.58534578  1
  O  O479  1  0.98525792  0.91701345  0.83620415  1
  O  O480  1  0.08860214  0.31405627  0.07793762  1
  O  O481  1  0.08578310  0.31588328  0.32737788  1
  O  O482  1  0.08594519  0.31464508  0.57823696  1
  O  O483  1  0.08726087  0.31489668  0.82648748  1
  O  O484  1  0.08991443  0.64799951  0.07755503  1
  O  O485  1  0.08981028  0.64682695  0.32757856  1
  O  O486  1  0.08898819  0.64717945  0.57748537  1
  O  O487  1  0.08844979  0.64792743  0.82734862  1
  O  O488  1  0.08729012  0.98307475  0.07675506  1
  O  O489  1  0.08762850  0.98197051  0.32828958  1
  O  O490  1  0.08606596  0.98300541  0.57701858  1
  O  O491  1  0.08868523  0.98203499  0.82762379  1
  O  O492  1  0.58744539  0.31534572  0.07650258  1
  O  O493  1  0.58883132  0.31527794  0.32805241  1
  O  O494  1  0.58931687  0.31505847  0.57766421  1
  O  O495  1  0.58776348  0.31474816  0.82805628  1
  O  O496  1  0.58504596  0.64852209  0.07730739  1
  O  O497  1  0.58897172  0.64723721  0.32819278  1
  O  O498  1  0.58895055  0.64698734  0.57718638  1
  O  O499  1  0.58467260  0.64805889  0.82746524  1
  O  O500  1  0.58652590  0.98119950  0.07678327  1
  O  O501  1  0.58735262  0.98294444  0.32796728  1
  O  O502  1  0.58691184  0.98317369  0.57742862  1
  O  O503  1  0.58524099  0.98197412  0.82709686  1
  O  O504  1  0.41055130  0.01868299  0.17269451  1
  O  O505  1  0.41357035  0.01791741  0.42204173  1
  O  O506  1  0.41362010  0.01842911  0.67246740  1
  O  O507  1  0.41000247  0.01772463  0.92183419  1
  O  O508  1  0.40980859  0.35253169  0.17328194  1
  O  O509  1  0.41371307  0.35121523  0.42298089  1
  O  O510  1  0.41393414  0.35115774  0.67305836  1
  O  O511  1  0.40951016  0.35230727  0.92265234  1
  O  O512  1  0.41388327  0.68381123  0.17297420  1
  O  O513  1  0.41303314  0.68581516  0.42298713  1
  O  O514  1  0.41232855  0.68552960  0.67201422  1
  O  O515  1  0.41084895  0.68499101  0.92172123  1
  O  O516  1  0.91414156  0.01682063  0.17137823  1
  O  O517  1  0.91085316  0.01990378  0.42362947  1
  O  O518  1  0.91200294  0.01771879  0.67232087  1
  O  O519  1  0.91290357  0.01987153  0.92262192  1
  O  O520  1  0.91216711  0.35188768  0.17316493  1
  O  O521  1  0.91235002  0.35080079  0.42259050  1
  O  O522  1  0.91220438  0.35121482  0.67222201  1
  O  O523  1  0.91447011  0.35131485  0.92144486  1
  O  O524  1  0.91392156  0.68605135  0.17269152  1
  O  O525  1  0.91190947  0.68461661  0.42364024  1
  O  O526  1  0.91198584  0.68589617  0.67216100  1
  O  O527  1  0.91547673  0.68370370  0.92258391  1
  O  O528  1  0.16271839  0.01920618  0.20183172  1
  O  O529  1  0.16182254  0.01712153  0.45382462  1
  O  O530  1  0.16165892  0.01965419  0.70158925  1
  O  O531  1  0.16224681  0.01753944  0.95157886  1
  O  O532  1  0.16316971  0.35072446  0.20353180  1
  O  O533  1  0.15955882  0.35256537  0.45228932  1
  O  O534  1  0.16160307  0.35111892  0.70228038  1
  O  O535  1  0.16230429  0.35280879  0.95136139  1
  O  O536  1  0.16340540  0.68442291  0.20315730  1
  O  O537  1  0.16189335  0.68558734  0.45358531  1
  O  O538  1  0.16156281  0.68393070  0.70353165  1
  O  O539  1  0.16148431  0.68503305  0.95235111  1
  O  O540  1  0.66256936  0.01863884  0.20236698  1
  O  O541  1  0.66253740  0.01834235  0.45283248  1
  O  O542  1  0.66395617  0.01882235  0.70160868  1
  O  O543  1  0.66459178  0.01934551  0.95175658  1
  O  O544  1  0.66386987  0.35158287  0.20223319  1
  O  O545  1  0.66298553  0.35111785  0.45268254  1
  O  O546  1  0.66409653  0.35172883  0.70173654  1
  O  O547  1  0.66301352  0.34998390  0.95263562  1
  O  O548  1  0.66170142  0.68487059  0.20117631  1
  O  O549  1  0.66426149  0.68513213  0.45304815  1
  O  O550  1  0.66271972  0.68482425  0.70346768  1
  O  O551  1  0.66281158  0.68497969  0.95247447  1
  O  O552  1  0.33685656  0.31507888  0.04673965  1
  O  O553  1  0.33561831  0.31456814  0.29820676  1
  O  O554  1  0.33645810  0.31516810  0.54796365  1
  O  O555  1  0.33553341  0.31505715  0.79674928  1
  O  O556  1  0.33723501  0.64712766  0.04789009  1
  O  O557  1  0.33660700  0.64757137  0.29777559  1
  O  O558  1  0.33515160  0.64779897  0.54794664  1
  O  O559  1  0.33586419  0.64700955  0.79798365  1
  O  O560  1  0.33588147  0.98245457  0.04620391  1
  O  O561  1  0.33793103  0.98373938  0.29771757  1
  O  O562  1  0.33756454  0.98177985  0.54845988  1
  O  O563  1  0.33860831  0.98332290  0.79659841  1
  O  O564  1  0.83824613  0.31383982  0.04699354  1
  O  O565  1  0.83841410  0.31611671  0.29795812  1
  O  O566  1  0.83814835  0.31507320  0.54728157  1
  O  O567  1  0.84016840  0.31521668  0.79676999  1
  O  O568  1  0.83822103  0.64838264  0.04720906  1
  O  O569  1  0.83801661  0.64725777  0.29741391  1
  O  O570  1  0.83602373  0.64832222  0.54755500  1
  O  O571  1  0.83969232  0.64655298  0.79877934  1
  O  O572  1  0.83866850  0.98358399  0.04737435  1
  O  O573  1  0.83814482  0.98178971  0.29707398  1
  O  O574  1  0.83658049  0.98185789  0.54793059  1
  O  O575  1  0.83876283  0.98296495  0.79646000  1
  O  O576  1  0.41074530  0.14861831  0.17314196  1
  O  O577  1  0.41340486  0.14793930  0.42287789  1
  O  O578  1  0.41373055  0.14824355  0.67330497  1
  O  O579  1  0.40977688  0.14774468  0.92290745  1
  O  O580  1  0.41048359  0.48261392  0.17235328  1
  O  O581  1  0.41369783  0.48123385  0.42288317  1
  O  O582  1  0.41333201  0.48101674  0.67266072  1
  O  O583  1  0.40987527  0.48235998  0.92174346  1
  O  O584  1  0.41342576  0.81400878  0.17288547  1
  O  O585  1  0.41306280  0.81617163  0.42217560  1
  O  O586  1  0.41244214  0.81576466  0.67136857  1
  O  O587  1  0.41155015  0.81530503  0.92207280  1
  O  O588  1  0.91341391  0.14685202  0.17214677  1
  O  O589  1  0.91132273  0.14978542  0.42271262  1
  O  O590  1  0.91161675  0.14783720  0.67222057  1
  O  O591  1  0.91375610  0.14988189  0.92205951  1
  O  O592  1  0.91256038  0.48176628  0.17336464  1
  O  O593  1  0.91220230  0.48072454  0.42355605  1
  O  O594  1  0.91237443  0.48115016  0.67306534  1
  O  O595  1  0.91461147  0.48152068  0.92178787  1
  O  O596  1  0.91381434  0.81636852  0.17174904  1
  O  O597  1  0.91165700  0.81450348  0.42337392  1
  O  O598  1  0.91217403  0.81627528  0.67153408  1
  O  O599  1  0.91504927  0.81381597  0.92255952  1
  O  O600  1  0.08833797  0.18392911  0.07841967  1
  O  O601  1  0.08647141  0.18604405  0.32713479  1
  O  O602  1  0.08571420  0.18455684  0.57821147  1
  O  O603  1  0.08714135  0.18494542  0.82649272  1
  O  O604  1  0.08977505  0.51808296  0.07732665  1
  O  O605  1  0.08862469  0.51677703  0.32851504  1
  O  O606  1  0.08837286  0.51701258  0.57803499  1
  O  O607  1  0.08837874  0.51784441  0.82730252  1
  O  O608  1  0.08840033  0.85323875  0.07675267  1
  O  O609  1  0.08744243  0.85188521  0.32795858  1
  O  O610  1  0.08654537  0.85313487  0.57645273  1
  O  O611  1  0.08866424  0.85167152  0.82776943  1
  O  O612  1  0.58770448  0.18536902  0.07633191  1
  O  O613  1  0.58886834  0.18486959  0.32836230  1
  O  O614  1  0.58938167  0.18494242  0.57768296  1
  O  O615  1  0.58762216  0.18476260  0.82797348  1
  O  O616  1  0.58517786  0.51842082  0.07674298  1
  O  O617  1  0.58835919  0.51685907  0.32796265  1
  O  O618  1  0.58862211  0.51686579  0.57781098  1
  O  O619  1  0.58451527  0.51813141  0.82696971  1
  O  O620  1  0.58658996  0.85095240  0.07789002  1
  O  O621  1  0.58764390  0.85278231  0.32782827  1
  O  O622  1  0.58711462  0.85317539  0.57691566  1
  O  O623  1  0.58509371  0.85194025  0.82738292  1
  O  O624  1  0.33639206  0.18488008  0.04702043  1
  O  O625  1  0.33567564  0.18443567  0.29780682  1
  O  O626  1  0.33651345  0.18513985  0.54817869  1
  O  O627  1  0.33541894  0.18501371  0.79695190  1
  O  O628  1  0.33634788  0.51705130  0.04703851  1
  O  O629  1  0.33697411  0.51745618  0.29737347  1
  O  O630  1  0.33471714  0.51779427  0.54816257  1
  O  O631  1  0.33612860  0.51700896  0.79718840  1
  O  O632  1  0.33575616  0.85238506  0.04693419  1
  O  O633  1  0.33910674  0.85369281  0.29848267  1
  O  O634  1  0.33750767  0.85186766  0.54804598  1
  O  O635  1  0.33898286  0.85311051  0.79716137  1
  O  O636  1  0.83771293  0.18380644  0.04660598  1
  O  O637  1  0.83901317  0.18615304  0.29846641  1
  O  O638  1  0.83799054  0.18504424  0.54718609  1
  O  O639  1  0.84014503  0.18511678  0.79672560  1
  O  O640  1  0.83909302  0.51824270  0.04680163  1
  O  O641  1  0.83729920  0.51717114  0.29748440  1
  O  O642  1  0.83669314  0.51823390  0.54750209  1
  O  O643  1  0.83847269  0.51651910  0.79801211  1
  O  O644  1  0.83956564  0.85353358  0.04813635  1
  O  O645  1  0.83831914  0.85161100  0.29678226  1
  O  O646  1  0.83651446  0.85196085  0.54783791  1
  O  O647  1  0.83872391  0.85276087  0.79743933  1
  O  O648  1  0.16281441  0.14917298  0.20259655  1
  O  O649  1  0.16126090  0.14724835  0.45335450  1
  O  O650  1  0.16203665  0.14959295  0.70222539  1
  O  O651  1  0.16137163  0.14742442  0.95172601  1
  O  O652  1  0.16259813  0.48088493  0.20361997  1
  O  O653  1  0.16055311  0.48253923  0.45316715  1
  O  O654  1  0.16123183  0.48111821  0.70275003  1
  O  O655  1  0.16333667  0.48258926  0.95193535  1
  O  O656  1  0.16291356  0.81473705  0.20288513  1
  O  O657  1  0.16281807  0.81588598  0.45319539  1
  O  O658  1  0.16137336  0.81424326  0.70266988  1
  O  O659  1  0.16169472  0.81516462  0.95171383  1
  O  O660  1  0.66205145  0.14856952  0.20276996  1
  O  O661  1  0.66265561  0.14850900  0.45297990  1
  O  O662  1  0.66387098  0.14864480  0.70159603  1
  O  O663  1  0.66472967  0.14944362  0.95213833  1
  O  O664  1  0.66419085  0.48144734  0.20194853  1
  O  O665  1  0.66267684  0.48116864  0.45277408  1
  O  O666  1  0.66431234  0.48160522  0.70212876  1
  O  O667  1  0.66245910  0.48018849  0.95201324  1
  O  O668  1  0.66215829  0.81477669  0.20106164  1
  O  O669  1  0.66419684  0.81550326  0.45298067  1
  O  O670  1  0.66337535  0.81501854  0.70287146  1
  O  O671  1  0.66208821  0.81536837  0.95299760  1
