# generated using pymatgen
data_Na2MnFe(PO4)2
_symmetry_space_group_name_H-M   'P 1'
_cell_length_a   21.08104520
_cell_length_b   18.93267892
_cell_length_c   20.04021594
_cell_angle_alpha   89.99998643
_cell_angle_beta   90.00043536
_cell_angle_gamma   90.00159542
_symmetry_Int_Tables_number   1
_chemical_formula_structural   Na2MnFe(PO4)2
_chemical_formula_sum   'Na96 Mn48 Fe48 P96 O384'
_cell_volume   7998.46421154
_cell_formula_units_Z   48
loop_
 _symmetry_equiv_pos_site_id
 _symmetry_equiv_pos_as_xyz
  1  'x, y, z'
loop_
 _atom_site_type_symbol
 _atom_site_label
 _atom_site_symmetry_multiplicity
 _atom_site_fract_x
 _atom_site_fract_y
 _atom_site_fract_z
 _atom_site_occupancy
  Na  Na0  1  -0.00069468  0.00049369  -0.00108529  1
  Na  Na1  1  -0.00031665  0.00027337  0.24910576  1
  Na  Na2  1  0.00131695  0.00016239  0.50065220  1
  Na  Na3  1  0.00087213  0.00016395  0.75024545  1
  Na  Na4  1  -0.00044067  0.33329797  0.00076623  1
  Na  Na5  1  -0.00073029  0.33332419  0.25041380  1
  Na  Na6  1  0.00107247  0.33366995  0.49982293  1
  Na  Na7  1  0.00176751  0.33393912  0.74925645  1
  Na  Na8  1  -0.00110216  0.66662645  0.00033649  1
  Na  Na9  1  0.00215059  0.66757876  0.24994707  1
  Na  Na10  1  0.00353670  0.66821154  0.49972838  1
  Na  Na11  1  0.00061494  0.66725060  0.75023660  1
  Na  Na12  1  0.50115565  -0.00091885  0.00044465  1
  Na  Na13  1  0.50073879  -0.00022285  0.24934577  1
  Na  Na14  1  0.49983623  -0.00058801  0.50080351  1
  Na  Na15  1  0.50066694  -0.00076522  0.75100646  1
  Na  Na16  1  0.50026353  0.33324308  -0.00108139  1
  Na  Na17  1  0.50056249  0.33364240  0.24870311  1
  Na  Na18  1  0.49939896  0.33313128  0.50079779  1
  Na  Na19  1  0.50073201  0.33360211  0.75138848  1
  Na  Na20  1  0.50177297  0.66764610  -0.00030156  1
  Na  Na21  1  0.50157096  0.66704438  0.24928715  1
  Na  Na22  1  0.49763630  0.66560797  0.49987155  1
  Na  Na23  1  0.49767114  0.66629977  0.75047507  1
  Na  Na24  1  0.24909489  -0.00016101  0.12443242  1
  Na  Na25  1  0.25022755  0.00020298  0.37516860  1
  Na  Na26  1  0.24922946  -0.00094550  0.62425230  1
  Na  Na27  1  0.25020622  -0.00025511  0.87543898  1
  Na  Na28  1  0.24803686  0.33337299  0.12455524  1
  Na  Na29  1  0.24869452  0.33325988  0.37567035  1
  Na  Na30  1  0.24951875  0.33363638  0.62540305  1
  Na  Na31  1  0.24943800  0.33388965  0.87570887  1
  Na  Na32  1  0.24893151  0.66702896  0.12524970  1
  Na  Na33  1  0.24916118  0.66647377  0.37504373  1
  Na  Na34  1  0.25110145  0.66769885  0.62512758  1
  Na  Na35  1  0.24993015  0.66736214  0.87415815  1
  Na  Na36  1  0.75034723  -0.00033373  0.12584154  1
  Na  Na37  1  0.74963240  -0.00028014  0.37631861  1
  Na  Na38  1  0.74910362  -0.00043967  0.62350416  1
  Na  Na39  1  0.75128594  0.00040308  0.87470493  1
  Na  Na40  1  0.75141811  0.33314633  0.12463048  1
  Na  Na41  1  0.75105983  0.33409020  0.37532659  1
  Na  Na42  1  0.74773616  0.33291367  0.62432798  1
  Na  Na43  1  0.74930863  0.33270337  0.87466424  1
  Na  Na44  1  0.74916916  0.66650598  0.12543934  1
  Na  Na45  1  0.74770249  0.66554545  0.37414055  1
  Na  Na46  1  0.74969086  0.66701522  0.62586452  1
  Na  Na47  1  0.75025008  0.66746975  0.87494598  1
  Na  Na48  1  -0.00316625  0.16747876  -0.00009975  1
  Na  Na49  1  0.00015419  0.16557378  0.24941007  1
  Na  Na50  1  0.00174054  0.16562171  0.49996414  1
  Na  Na51  1  -0.00038747  0.16642692  0.75022253  1
  Na  Na52  1  0.00067621  0.49994655  0.00055455  1
  Na  Na53  1  0.00042018  0.50073203  0.25116546  1
  Na  Na54  1  0.00289116  0.49998110  0.49873139  1
  Na  Na55  1  0.00243164  0.49969815  0.74970028  1
  Na  Na56  1  0.00022534  0.83232388  -0.00059846  1
  Na  Na57  1  0.00066288  0.83247924  0.24899439  1
  Na  Na58  1  0.00064193  0.83355991  0.50119720  1
  Na  Na59  1  0.00179902  0.83217980  0.75002697  1
  Na  Na60  1  0.50182104  0.16630869  -0.00081601  1
  Na  Na61  1  0.50160138  0.16614885  0.24923835  1
  Na  Na62  1  0.50182094  0.16589094  0.50096671  1
  Na  Na63  1  0.50180246  0.16637563  0.75093576  1
  Na  Na64  1  0.50068703  0.49974944  -0.00008815  1
  Na  Na65  1  0.49949931  0.50068977  0.24899373  1
  Na  Na66  1  0.49952874  0.49996692  0.49961645  1
  Na  Na67  1  0.49869958  0.50047140  0.75190106  1
  Na  Na68  1  0.50112143  0.83322128  0.00005798  1
  Na  Na69  1  0.50139232  0.83288678  0.24890411  1
  Na  Na70  1  0.49662243  0.83433796  0.50104844  1
  Na  Na71  1  0.49890996  0.83325890  0.75002078  1
  Na  Na72  1  0.24762867  0.16689943  0.12504070  1
  Na  Na73  1  0.24701007  0.16663342  0.37482860  1
  Na  Na74  1  0.24734422  0.16689539  0.62479537  1
  Na  Na75  1  0.24845139  0.16665752  0.87567983  1
  Na  Na76  1  0.24866347  0.50039893  0.12452977  1
  Na  Na77  1  0.24958975  0.50043346  0.37546538  1
  Na  Na78  1  0.24968099  0.50044812  0.62517037  1
  Na  Na79  1  0.25036612  0.49947573  0.87453870  1
  Na  Na80  1  0.24914915  0.83323172  0.12473073  1
  Na  Na81  1  0.25194788  0.83253378  0.37544288  1
  Na  Na82  1  0.25179102  0.83310277  0.62489908  1
  Na  Na83  1  0.25034952  0.83318287  0.87496680  1
  Na  Na84  1  0.75261701  0.16597210  0.12566987  1
  Na  Na85  1  0.74966043  0.16662255  0.37482170  1
  Na  Na86  1  0.74890797  0.16682862  0.62430510  1
  Na  Na87  1  0.75179400  0.16660230  0.87509171  1
  Na  Na88  1  0.75082952  0.50071184  0.12502595  1
  Na  Na89  1  0.74929416  0.50067220  0.37530800  1
  Na  Na90  1  0.74789574  0.50054165  0.62489706  1
  Na  Na91  1  0.74945433  0.50085131  0.87449510  1
  Na  Na92  1  0.74783033  0.83390361  0.12530610  1
  Na  Na93  1  0.74963960  0.83300351  0.37553461  1
  Na  Na94  1  0.74990781  0.83296322  0.62431673  1
  Na  Na95  1  0.74852609  0.83344466  0.87497010  1
  Mn  Mn96  1  0.85748829  0.41744079  0.50266414  1
  Mn  Mn97  1  0.10685608  0.08337290  0.87235664  1
  Mn  Mn98  1  0.39274344  0.58347172  0.12673894  1
  Mn  Mn99  1  0.89287840  0.24933012  0.37738381  1
  Mn  Mn100  1  0.60655136  0.74919244  0.62302172  1
  Mn  Mn101  1  0.14283024  0.58378786  0.74728619  1
  Mn  Mn102  1  0.14276273  0.91588371  0.49730059  1
  Mn  Mn103  1  0.60924530  0.08252294  0.87260379  1
  Mn  Mn104  1  0.85838601  0.41729951  0.00218890  1
  Mn  Mn105  1  0.89247202  0.58270869  0.87676643  1
  Mn  Mn106  1  0.39213202  0.24906168  0.87726676  1
  Mn  Mn107  1  0.35759230  0.08370471  0.75220215  1
  Mn  Mn108  1  0.10796868  0.41675857  0.37173077  1
  Mn  Mn109  1  0.39210331  0.58406826  0.87815072  1
  Mn  Mn110  1  0.35775675  0.08366219  0.00257716  1
  Mn  Mn111  1  0.64126076  0.25064207  0.49749835  1
  Mn  Mn112  1  0.60935323  0.08340972  0.12254865  1
  Mn  Mn113  1  0.60658879  0.75035302  0.37332441  1
  Mn  Mn114  1  0.64314846  0.25021299  0.24746020  1
  Mn  Mn115  1  0.89276590  0.25036819  0.62729880  1
  Mn  Mn116  1  0.89156269  0.91618414  0.12739526  1
  Mn  Mn117  1  0.60743730  0.41624239  0.37199231  1
  Mn  Mn118  1  0.14078809  0.25024275  0.99764744  1
  Mn  Mn119  1  0.14166712  0.58366851  0.99795023  1
  Mn  Mn120  1  0.35688244  0.41632875  0.25165674  1
  Mn  Mn121  1  0.89285359  0.91624856  0.62767602  1
  Mn  Mn122  1  0.60791212  0.41715838  0.87291488  1
  Mn  Mn123  1  0.35802306  0.08335826  0.50228349  1
  Mn  Mn124  1  0.39163279  0.24932181  0.37659619  1
  Mn  Mn125  1  0.39312390  0.91675955  0.12708435  1
  Mn  Mn126  1  0.35714401  0.08385305  0.25213653  1
  Mn  Mn127  1  0.85775086  0.08335239  0.50210299  1
  Mn  Mn128  1  0.35785548  0.41673720  0.50268083  1
  Mn  Mn129  1  0.14169937  0.91665923  0.24765125  1
  Mn  Mn130  1  0.64179607  0.58343571  0.74711799  1
  Mn  Mn131  1  0.89199208  0.91657729  0.87651086  1
  Mn  Mn132  1  0.64131513  0.91568961  0.49768594  1
  Mn  Mn133  1  0.35771377  0.74973273  0.25175727  1
  Mn  Mn134  1  0.39214772  0.24967866  0.12703667  1
  Mn  Mn135  1  0.89264683  0.58457209  0.37756986  1
  Mn  Mn136  1  0.60889144  0.41669821  0.12223851  1
  Mn  Mn137  1  0.14188789  0.25023554  0.49768602  1
  Mn  Mn138  1  0.89302915  0.58347348  0.62621646  1
  Mn  Mn139  1  0.85751684  0.75007999  0.25249271  1
  Mn  Mn140  1  0.85815466  0.41666710  0.75158431  1
  Mn  Mn141  1  0.39230059  0.24980653  0.62843786  1
  Mn  Mn142  1  0.85823605  0.74916408  0.50171684  1
  Mn  Mn143  1  0.14204352  0.91628156  0.99759451  1
  Fe  Fe144  1  0.64333510  0.91656915  0.99782761  1
  Fe  Fe145  1  0.64360230  0.58347188  0.99863343  1
  Fe  Fe146  1  0.39321947  0.91664735  0.87677818  1
  Fe  Fe147  1  0.85668605  0.75026442  0.00154490  1
  Fe  Fe148  1  0.60739555  0.75017031  0.87318964  1
  Fe  Fe149  1  0.60636586  0.41692747  0.62405785  1
  Fe  Fe150  1  0.10835582  0.75000123  0.62323978  1
  Fe  Fe151  1  0.10689155  0.75004570  0.12251756  1
  Fe  Fe152  1  0.39208254  0.58294824  0.62668988  1
  Fe  Fe153  1  0.89269495  0.25087655  0.12713640  1
  Fe  Fe154  1  0.39211379  0.58357556  0.37642587  1
  Fe  Fe155  1  0.35714675  0.74969510  0.50163824  1
  Fe  Fe156  1  0.85757361  0.75044197  0.75164770  1
  Fe  Fe157  1  0.10742138  0.74985357  0.87312972  1
  Fe  Fe158  1  0.10830948  0.75119071  0.37322363  1
  Fe  Fe159  1  0.60728115  0.08304295  0.37324871  1
  Fe  Fe160  1  0.60820530  0.74982972  0.12253116  1
  Fe  Fe161  1  0.85757295  0.08278597  0.25264732  1
  Fe  Fe162  1  0.10777907  0.41681521  0.87326124  1
  Fe  Fe163  1  0.64311256  0.24945377  0.74852761  1
  Fe  Fe164  1  0.64102307  0.58342808  0.49839261  1
  Fe  Fe165  1  0.10715166  0.08237767  0.37274414  1
  Fe  Fe166  1  0.14378876  0.58391511  0.49851474  1
  Fe  Fe167  1  0.35679677  0.41622873  0.75181329  1
  Fe  Fe168  1  0.64234628  0.58337091  0.24809593  1
  Fe  Fe169  1  0.35657993  0.41692770  0.00198405  1
  Fe  Fe170  1  0.14255466  0.58297073  0.24787791  1
  Fe  Fe171  1  0.85718153  0.08259843  0.00174210  1
  Fe  Fe172  1  0.39270909  0.91693497  0.62783200  1
  Fe  Fe173  1  0.14339967  0.91702942  0.74847752  1
  Fe  Fe174  1  0.64272268  0.91648602  0.24932726  1
  Fe  Fe175  1  0.89235834  0.25091183  0.87571249  1
  Fe  Fe176  1  0.14183013  0.24945018  0.74872614  1
  Fe  Fe177  1  0.89264896  0.58320456  0.12704640  1
  Fe  Fe178  1  0.89281514  0.91624843  0.37618280  1
  Fe  Fe179  1  0.39284787  0.91682551  0.37589764  1
  Fe  Fe180  1  0.64420553  0.25008319  0.99854511  1
  Fe  Fe181  1  0.10577674  0.08314718  0.12312277  1
  Fe  Fe182  1  0.85784751  0.41711979  0.25152340  1
  Fe  Fe183  1  0.35740248  0.74961405  0.00178075  1
  Fe  Fe184  1  0.14136556  0.25039587  0.24750471  1
  Fe  Fe185  1  0.35685693  0.75037236  0.75236655  1
  Fe  Fe186  1  0.85725082  0.08303166  0.75044323  1
  Fe  Fe187  1  0.64281655  0.91699523  0.74824679  1
  Fe  Fe188  1  0.10630831  0.41675930  0.12374383  1
  Fe  Fe189  1  0.10841382  0.41700342  0.62314986  1
  Fe  Fe190  1  0.10749016  0.08301520  0.62382730  1
  Fe  Fe191  1  0.60766366  0.08341045  0.62403489  1
  P  P192  1  0.05261856  0.25002897  0.11137935  1
  P  P193  1  0.05406677  0.24896756  0.35912751  1
  P  P194  1  0.05501551  0.24968847  0.61127952  1
  P  P195  1  0.05222530  0.25067706  0.85954591  1
  P  P196  1  0.05321320  0.58326638  0.11147855  1
  P  P197  1  0.05589735  0.58499131  0.36063648  1
  P  P198  1  0.05504014  0.58387693  0.60924662  1
  P  P199  1  0.05391767  0.58368379  0.86009501  1
  P  P200  1  0.05280608  0.91667171  0.10946071  1
  P  P201  1  0.05231602  0.91638117  0.35985059  1
  P  P202  1  0.05554645  0.91649910  0.61166856  1
  P  P203  1  0.05396046  0.91562753  0.85925506  1
  P  P204  1  0.55466030  0.25007744  0.10845838  1
  P  P205  1  0.55297773  0.24922354  0.35938775  1
  P  P206  1  0.55466509  0.25026427  0.61209438  1
  P  P207  1  0.55591636  0.24977946  0.86075033  1
  P  P208  1  0.55577900  0.58394353  0.10997212  1
  P  P209  1  0.55298570  0.58345448  0.36011524  1
  P  P210  1  0.55165107  0.58252639  0.60995934  1
  P  P211  1  0.55480926  0.58454022  0.86154128  1
  P  P212  1  0.55641224  0.91588321  0.11043406  1
  P  P213  1  0.55240327  0.91702928  0.35959774  1
  P  P214  1  0.55338656  0.91676119  0.61185200  1
  P  P215  1  0.55482138  0.91545656  0.86067929  1
  P  P216  1  0.44741545  0.08327979  0.14003675  1
  P  P217  1  0.44790445  0.08265710  0.38986900  1
  P  P218  1  0.44815985  0.08271871  0.64067057  1
  P  P219  1  0.44723812  0.08206989  0.89015465  1
  P  P220  1  0.44586170  0.41674450  0.13857075  1
  P  P221  1  0.44611386  0.41716402  0.38954949  1
  P  P222  1  0.44681086  0.41746265  0.64130416  1
  P  P223  1  0.44438924  0.41642843  0.88984565  1
  P  P224  1  0.44741698  0.74980619  0.13857857  1
  P  P225  1  0.44536447  0.74996831  0.39010046  1
  P  P226  1  0.44393039  0.74954792  0.63956642  1
  P  P227  1  0.44593803  0.75124383  0.88960643  1
  P  P228  1  0.94482648  0.08367940  0.13905460  1
  P  P229  1  0.94681695  0.08194863  0.38894816  1
  P  P230  1  0.94749745  0.08311358  0.64042352  1
  P  P231  1  0.94387357  0.08413558  0.88877962  1
  P  P232  1  0.94687593  0.41726907  0.14066529  1
  P  P233  1  0.94568180  0.41713864  0.38916093  1
  P  P234  1  0.94889386  0.41741095  0.63955306  1
  P  P235  1  0.94838193  0.41611728  0.88964884  1
  P  P236  1  0.94612541  0.74915409  0.13868897  1
  P  P237  1  0.94854750  0.75101463  0.38991340  1
  P  P238  1  0.94801199  0.74966812  0.64047101  1
  P  P239  1  0.94588147  0.75005085  0.88934201  1
  P  P240  1  0.19405695  0.08363203  0.23499894  1
  P  P241  1  0.19486083  0.08275199  0.48525572  1
  P  P242  1  0.19600729  0.08286006  0.73478044  1
  P  P243  1  0.19471873  0.08319755  0.98597538  1
  P  P244  1  0.19541280  0.41690852  0.23417157  1
  P  P245  1  0.19549179  0.41777896  0.48612781  1
  P  P246  1  0.19592958  0.41601533  0.73583600  1
  P  P247  1  0.19522754  0.41713945  0.98561707  1
  P  P248  1  0.19475317  0.74954279  0.23530731  1
  P  P249  1  0.19662894  0.74946576  0.48569902  1
  P  P250  1  0.19637378  0.75117901  0.73563648  1
  P  P251  1  0.19590828  0.74982856  0.98509621  1
  P  P252  1  0.69715718  0.08241517  0.23670289  1
  P  P253  1  0.69430978  0.08321491  0.48527738  1
  P  P254  1  0.69759973  0.08306666  0.73447887  1
  P  P255  1  0.69851588  0.08341164  0.98524937  1
  P  P256  1  0.69829576  0.41734562  0.23487926  1
  P  P257  1  0.69455712  0.41793407  0.48599965  1
  P  P258  1  0.69608603  0.41588257  0.73434060  1
  P  P259  1  0.69750373  0.41700939  0.98491992  1
  P  P260  1  0.69543140  0.75020280  0.23499092  1
  P  P261  1  0.69604921  0.74874328  0.48503422  1
  P  P262  1  0.69642129  0.75110902  0.73604817  1
  P  P263  1  0.69604817  0.74967373  0.98563826  1
  P  P264  1  0.30262777  0.25080161  0.01514961  1
  P  P265  1  0.30066637  0.25003326  0.26484383  1
  P  P266  1  0.30317894  0.24966073  0.51551048  1
  P  P267  1  0.30139287  0.25026294  0.76527912  1
  P  P268  1  0.30319820  0.58385139  0.01485325  1
  P  P269  1  0.30245197  0.58329923  0.26512096  1
  P  P270  1  0.30418616  0.58415739  0.51445862  1
  P  P271  1  0.30492805  0.58335444  0.76371068  1
  P  P272  1  0.30484212  0.91551734  0.01385899  1
  P  P273  1  0.30364348  0.91673211  0.26533257  1
  P  P274  1  0.30586123  0.91599458  0.51431127  1
  P  P275  1  0.30429818  0.91643855  0.76460624  1
  P  P276  1  0.80497092  0.24966541  0.01410087  1
  P  P277  1  0.80544235  0.25030120  0.26395825  1
  P  P278  1  0.80326715  0.25001311  0.51505660  1
  P  P279  1  0.80293328  0.24946750  0.76468210  1
  P  P280  1  0.80341599  0.58451686  0.01531781  1
  P  P281  1  0.80349533  0.58295123  0.26398003  1
  P  P282  1  0.80142151  0.58370708  0.51527964  1
  P  P283  1  0.80350198  0.58410088  0.76456630  1
  P  P284  1  0.80230274  0.91604472  0.01461990  1
  P  P285  1  0.80268923  0.91686904  0.26605218  1
  P  P286  1  0.80461070  0.91614373  0.51396479  1
  P  P287  1  0.80222541  0.91658009  0.76433704  1
  O  O288  1  0.05696585  0.24991739  0.18803884  1
  O  O289  1  0.05684011  0.24996752  0.43598271  1
  O  O290  1  0.05857596  0.24971066  0.68808436  1
  O  O291  1  0.05521492  0.24986970  0.93634734  1
  O  O292  1  0.05770573  0.58350192  0.18812649  1
  O  O293  1  0.06024013  0.58416086  0.43737203  1
  O  O294  1  0.05743211  0.58389100  0.68611023  1
  O  O295  1  0.05610124  0.58390049  0.93688863  1
  O  O296  1  0.05569464  0.91656315  0.18619931  1
  O  O297  1  0.05595620  0.91638883  0.43658271  1
  O  O298  1  0.05942823  0.91634661  0.68837528  1
  O  O299  1  0.05657466  0.91629438  0.93604870  1
  O  O300  1  0.55808925  0.25022263  0.18528136  1
  O  O301  1  0.55564303  0.25022938  0.43621945  1
  O  O302  1  0.55880963  0.24995101  0.68886941  1
  O  O303  1  0.56082225  0.24976012  0.93746354  1
  O  O304  1  0.55962695  0.58304444  0.18682371  1
  O  O305  1  0.55738057  0.58336229  0.43683720  1
  O  O306  1  0.55543179  0.58360409  0.68673520  1
  O  O307  1  0.55951208  0.58378501  0.93820880  1
  O  O308  1  0.56031906  0.91675824  0.18720647  1
  O  O309  1  0.55541176  0.91611117  0.43638292  1
  O  O310  1  0.55852652  0.91622923  0.68851822  1
  O  O311  1  0.55990731  0.91640868  0.93740991  1
  O  O312  1  0.44386035  0.08328221  0.06327673  1
  O  O313  1  0.44399886  0.08352147  0.31316767  1
  O  O314  1  0.44425492  0.08333671  0.56400113  1
  O  O315  1  0.44373533  0.08297601  0.81339264  1
  O  O316  1  0.44109421  0.41677577  0.06183382  1
  O  O317  1  0.44313993  0.41675166  0.31273379  1
  O  O318  1  0.44337804  0.41664610  0.56452224  1
  O  O319  1  0.43983392  0.41619418  0.81307475  1
  O  O320  1  0.44233465  0.74965652  0.06195382  1
  O  O321  1  0.44354352  0.74976958  0.31323497  1
  O  O322  1  0.44046070  0.74955490  0.56275504  1
  O  O323  1  0.44093104  0.75040472  0.81289440  1
  O  O324  1  0.94019294  0.08265346  0.06225451  1
  O  O325  1  0.94181992  0.08255369  0.31221656  1
  O  O326  1  0.94371116  0.08302705  0.56368136  1
  O  O327  1  0.93984774  0.08292853  0.81200455  1
  O  O328  1  0.94359080  0.41735253  0.06386305  1
  O  O329  1  0.94121171  0.41745709  0.31240600  1
  O  O330  1  0.94466187  0.41747409  0.56285890  1
  O  O331  1  0.94467580  0.41677391  0.81297852  1
  O  O332  1  0.94077027  0.74983289  0.06204097  1
  O  O333  1  0.94433981  0.74998942  0.31321124  1
  O  O334  1  0.94391817  0.74991907  0.56376284  1
  O  O335  1  0.94087948  0.75038592  0.81263111  1
  O  O336  1  0.18972035  0.08319497  0.06270366  1
  O  O337  1  0.19018611  0.08238252  0.31185640  1
  O  O338  1  0.19063219  0.08257151  0.56201201  1
  O  O339  1  0.19323325  0.08279717  0.81162215  1
  O  O340  1  0.18973702  0.41703471  0.06224894  1
  O  O341  1  0.19342293  0.41677201  0.31105891  1
  O  O342  1  0.19177077  0.41711045  0.56294053  1
  O  O343  1  0.19132290  0.41667354  0.81260623  1
  O  O344  1  0.19056350  0.74991555  0.06182430  1
  O  O345  1  0.19134406  0.75084345  0.31213643  1
  O  O346  1  0.19228635  0.75052317  0.56240829  1
  O  O347  1  0.19158543  0.75032750  0.81231751  1
  O  O348  1  0.69545858  0.08344395  0.06200617  1
  O  O349  1  0.69200231  0.08298171  0.31333991  1
  O  O350  1  0.68996656  0.08302835  0.56208872  1
  O  O351  1  0.69479490  0.08301702  0.81118751  1
  O  O352  1  0.69517757  0.41689861  0.06168924  1
  O  O353  1  0.69437665  0.41679387  0.31160341  1
  O  O354  1  0.68995300  0.41727423  0.56270311  1
  O  O355  1  0.69338712  0.41700856  0.81114989  1
  O  O356  1  0.69212632  0.74969417  0.06238703  1
  O  O357  1  0.69228889  0.75001942  0.31175958  1
  O  O358  1  0.69270971  0.74964053  0.56180213  1
  O  O359  1  0.69169530  0.75034618  0.81270626  1
  O  O360  1  0.30505306  0.24972790  0.18818119  1
  O  O361  1  0.30628407  0.24939063  0.43870719  1
  O  O362  1  0.30541534  0.24960714  0.68857296  1
  O  O363  1  0.30603206  0.24980455  0.93836570  1
  O  O364  1  0.30668905  0.58367148  0.18842448  1
  O  O365  1  0.30842273  0.58337910  0.43773314  1
  O  O366  1  0.30828694  0.58317260  0.68694878  1
  O  O367  1  0.30583817  0.58399924  0.93798798  1
  O  O368  1  0.30692742  0.91677166  0.18851009  1
  O  O369  1  0.30997672  0.91714552  0.43754435  1
  O  O370  1  0.30888364  0.91723967  0.68783216  1
  O  O371  1  0.30893880  0.91630516  0.93709419  1
  O  O372  1  0.80926300  0.25029328  0.18707946  1
  O  O373  1  0.80704920  0.24982105  0.43826950  1
  O  O374  1  0.80650743  0.25043003  0.68794288  1
  O  O375  1  0.80917526  0.25092389  0.93737215  1
  O  O376  1  0.80877068  0.58364617  0.18732203  1
  O  O377  1  0.80588016  0.58387375  0.43855023  1
  O  O378  1  0.80686449  0.58346579  0.68785179  1
  O  O379  1  0.80705585  0.58381921  0.93859325  1
  O  O380  1  0.80624482  0.91631656  0.18928146  1
  O  O381  1  0.80932911  0.91608900  0.43724640  1
  O  O382  1  0.80572782  0.91621592  0.68760277  1
  O  O383  1  0.80597619  0.91584947  0.93799089  1
  O  O384  1  0.23275431  0.25043536  0.03974573  1
  O  O385  1  0.23053351  0.25024357  0.28904604  1
  O  O386  1  0.23342078  0.25015241  0.54027021  1
  O  O387  1  0.23130647  0.24988570  0.78984420  1
  O  O388  1  0.23364796  0.58397534  0.04028693  1
  O  O389  1  0.23224417  0.58322906  0.28909954  1
  O  O390  1  0.23395054  0.58404933  0.53861919  1
  O  O391  1  0.23501928  0.58353099  0.78853857  1
  O  O392  1  0.23482729  0.91592408  0.03817261  1
  O  O393  1  0.23385281  0.91627056  0.29016555  1
  O  O394  1  0.23565778  0.91609651  0.53809478  1
  O  O395  1  0.23389303  0.91671634  0.78824179  1
  O  O396  1  0.73466065  0.24994022  0.03824271  1
  O  O397  1  0.73554892  0.25019932  0.28865187  1
  O  O398  1  0.73337825  0.24987465  0.53931661  1
  O  O399  1  0.73284800  0.24956178  0.78926006  1
  O  O400  1  0.73327809  0.58375646  0.03959019  1
  O  O401  1  0.73294914  0.58341571  0.28721007  1
  O  O402  1  0.73136703  0.58384095  0.53964409  1
  O  O403  1  0.73371978  0.58396188  0.78948552  1
  O  O404  1  0.73226009  0.91625508  0.03934583  1
  O  O405  1  0.73257098  0.91629232  0.29053021  1
  O  O406  1  0.73441736  0.91617343  0.53758284  1
  O  O407  1  0.73233512  0.91716086  0.78948497  1
  O  O408  1  0.26408489  0.08311670  0.21068384  1
  O  O409  1  0.26497580  0.08311249  0.46135513  1
  O  O410  1  0.26563572  0.08301716  0.70924292  1
  O  O411  1  0.26483931  0.08329049  0.96224906  1
  O  O412  1  0.26487649  0.41703332  0.20832299  1
  O  O413  1  0.26534965  0.41700561  0.46155185  1
  O  O414  1  0.26633078  0.41681455  0.71207616  1
  O  O415  1  0.26568391  0.41709364  0.96242734  1
  O  O416  1  0.26476489  0.75016856  0.21083352  1
  O  O417  1  0.26694988  0.74978274  0.46189368  1
  O  O418  1  0.26685297  0.75051461  0.71225500  1
  O  O419  1  0.26631720  0.74982001  0.96180636  1
  O  O420  1  0.76755920  0.08266579  0.21303365  1
  O  O421  1  0.76452550  0.08332141  0.46165603  1
  O  O422  1  0.76756013  0.08309281  0.70913715  1
  O  O423  1  0.76846087  0.08323688  0.96021433  1
  O  O424  1  0.76828455  0.41708157  0.21015331  1
  O  O425  1  0.76459182  0.41743552  0.46182766  1
  O  O426  1  0.76578077  0.41656169  0.70900941  1
  O  O427  1  0.76706113  0.41721848  0.95908282  1
  O  O428  1  0.76528549  0.75018757  0.21007180  1
  O  O429  1  0.76563605  0.74895554  0.45961469  1
  O  O430  1  0.76672676  0.75042840  0.71205655  1
  O  O431  1  0.76637241  0.75004842  0.96148724  1
  O  O432  1  0.01531674  0.08316117  0.16242407  1
  O  O433  1  0.01716220  0.08269724  0.41262221  1
  O  O434  1  0.01760883  0.08307706  0.66470732  1
  O  O435  1  0.01399270  0.08358339  0.91287245  1
  O  O436  1  0.01692506  0.41701380  0.16536899  1
  O  O437  1  0.01592044  0.41685462  0.41269697  1
  O  O438  1  0.01906175  0.41721726  0.66370621  1
  O  O439  1  0.01830747  0.41647095  0.91468036  1
  O  O440  1  0.01663399  0.74976758  0.16192504  1
  O  O441  1  0.01861584  0.75090183  0.41433831  1
  O  O442  1  0.01835389  0.74969569  0.66423441  1
  O  O443  1  0.01640935  0.74982884  0.91259540  1
  O  O444  1  0.51730502  0.08307229  0.16445815  1
  O  O445  1  0.51785855  0.08259999  0.41478767  1
  O  O446  1  0.51823456  0.08293417  0.66530379  1
  O  O447  1  0.51709906  0.08216902  0.91482641  1
  O  O448  1  0.51600176  0.41707010  0.16234214  1
  O  O449  1  0.51569386  0.41663617  0.41498270  1
  O  O450  1  0.51681114  0.41715483  0.66612453  1
  O  O451  1  0.51472092  0.41673243  0.91316615  1
  O  O452  1  0.51777607  0.74986978  0.16211755  1
  O  O453  1  0.51476782  0.75012389  0.41632352  1
  O  O454  1  0.51393816  0.74959278  0.66417967  1
  O  O455  1  0.51639898  0.75074869  0.91294076  1
  O  O456  1  0.48487446  0.24980545  0.08370922  1
  O  O457  1  0.48351849  0.24965952  0.33354420  1
  O  O458  1  0.48471539  0.24997734  0.58750539  1
  O  O459  1  0.48560805  0.24976535  0.83732962  1
  O  O460  1  0.48578544  0.58351833  0.08565826  1
  O  O461  1  0.48265939  0.58402236  0.33616631  1
  O  O462  1  0.48151339  0.58300330  0.58565925  1
  O  O463  1  0.48458362  0.58401701  0.83789686  1
  O  O464  1  0.48632470  0.91638333  0.08634527  1
  O  O465  1  0.48249861  0.91631956  0.33447510  1
  O  O466  1  0.48292403  0.91643970  0.58848698  1
  O  O467  1  0.48436435  0.91598676  0.83735685  1
  O  O468  1  0.98230383  0.25039217  0.08726139  1
  O  O469  1  0.98435338  0.24923100  0.33414627  1
  O  O470  1  0.98523856  0.24976330  0.58608799  1
  O  O471  1  0.98229333  0.25023637  0.83452393  1
  O  O472  1  0.98300046  0.58315026  0.08714361  1
  O  O473  1  0.98574130  0.58439158  0.33671082  1
  O  O474  1  0.98554459  0.58407995  0.58333859  1
  O  O475  1  0.98452742  0.58361487  0.83408356  1
  O  O476  1  0.98318345  0.91638633  0.08398407  1
  O  O477  1  0.98252652  0.91620516  0.33446542  1
  O  O478  1  0.98560754  0.91655802  0.58707867  1
  O  O479  1  0.98424469  0.91604688  0.83410817  1
  O  O480  1  0.08602281  0.31525162  0.07841533  1
  O  O481  1  0.08832502  0.31396280  0.32644108  1
  O  O482  1  0.08879555  0.31488049  0.57858064  1
  O  O483  1  0.08648653  0.31574313  0.82743611  1
  O  O484  1  0.08664872  0.64827980  0.07800375  1
  O  O485  1  0.08922686  0.65023987  0.32782032  1
  O  O486  1  0.08971954  0.64902829  0.57740196  1
  O  O487  1  0.08834242  0.64875984  0.82787432  1
  O  O488  1  0.08667414  0.98196993  0.07721251  1
  O  O489  1  0.08617120  0.98145014  0.32713938  1
  O  O490  1  0.08911200  0.98159401  0.57866804  1
  O  O491  1  0.08843733  0.98050232  0.82674008  1
  O  O492  1  0.58888083  0.31506819  0.07591073  1
  O  O493  1  0.58752091  0.31408070  0.32681006  1
  O  O494  1  0.58776131  0.31579343  0.57918558  1
  O  O495  1  0.58933079  0.31475094  0.82740309  1
  O  O496  1  0.58935807  0.64924738  0.07736139  1
  O  O497  1  0.58695285  0.64833229  0.32709765  1
  O  O498  1  0.58563091  0.64733009  0.57667463  1
  O  O499  1  0.58762337  0.64992269  0.82828768  1
  O  O500  1  0.59041423  0.98063062  0.07694894  1
  O  O501  1  0.58649856  0.98216296  0.32728700  1
  O  O502  1  0.58658016  0.98182298  0.57864172  1
  O  O503  1  0.58852131  0.98026099  0.82706279  1
  O  O504  1  0.41337780  0.01830164  0.17260512  1
  O  O505  1  0.41404419  0.01739045  0.42218518  1
  O  O506  1  0.41434178  0.01760281  0.67319826  1
  O  O507  1  0.41333104  0.01682297  0.92231097  1
  O  O508  1  0.41261028  0.35161250  0.17188623  1
  O  O509  1  0.41170734  0.35227026  0.42210305  1
  O  O510  1  0.41258354  0.35258447  0.67430699  1
  O  O511  1  0.41101693  0.35140928  0.92310594  1
  O  O512  1  0.41414995  0.68483095  0.17217279  1
  O  O513  1  0.41085885  0.68484329  0.42217790  1
  O  O514  1  0.41024684  0.68445410  0.67247372  1
  O  O515  1  0.41236030  0.68642598  0.92342821  1
  O  O516  1  0.91135461  0.01883557  0.17282126  1
  O  O517  1  0.91387296  0.01665867  0.42204343  1
  O  O518  1  0.91352815  0.01819159  0.67336031  1
  O  O519  1  0.91005811  0.01926475  0.92233343  1
  O  O520  1  0.91270083  0.35225864  0.17308490  1
  O  O521  1  0.91237357  0.35198522  0.42219577  1
  O  O522  1  0.91509962  0.35239767  0.67244635  1
  O  O523  1  0.91444218  0.35100756  0.92204877  1
  O  O524  1  0.91341824  0.68399706  0.17235879  1
  O  O525  1  0.91491219  0.68595759  0.42316450  1
  O  O526  1  0.91421012  0.68466614  0.67322739  1
  O  O527  1  0.91244198  0.68508427  0.92269451  1
  O  O528  1  0.16003318  0.01886028  0.20162101  1
  O  O529  1  0.16147951  0.01763252  0.45189257  1
  O  O530  1  0.16192424  0.01769874  0.70236885  1
  O  O531  1  0.16146810  0.01817926  0.95257744  1
  O  O532  1  0.16079537  0.35195763  0.20197934  1
  O  O533  1  0.16127683  0.35307972  0.45303213  1
  O  O534  1  0.16275191  0.35081605  0.70285577  1
  O  O535  1  0.16177719  0.35223711  0.95203144  1
  O  O536  1  0.16133130  0.68403847  0.20285484  1
  O  O537  1  0.16321674  0.68440772  0.45278536  1
  O  O538  1  0.16292987  0.68629462  0.70187193  1
  O  O539  1  0.16252354  0.68482893  0.95166437  1
  O  O540  1  0.66403093  0.01718818  0.20361569  1
  O  O541  1  0.66077300  0.01813340  0.45212981  1
  O  O542  1  0.66332719  0.01801677  0.70198601  1
  O  O543  1  0.66453978  0.01830685  0.95269453  1
  O  O544  1  0.66446879  0.35231942  0.20197599  1
  O  O545  1  0.66104756  0.35293023  0.45248885  1
  O  O546  1  0.66215217  0.35046019  0.70254945  1
  O  O547  1  0.66336114  0.35181992  0.95284503  1
  O  O548  1  0.66129837  0.68520970  0.20230766  1
  O  O549  1  0.66170361  0.68365995  0.45302573  1
  O  O550  1  0.66254769  0.68632197  0.70258016  1
  O  O551  1  0.66276582  0.68450783  0.95240224  1
  O  O552  1  0.33629658  0.31621504  0.04729590  1
  O  O553  1  0.33446969  0.31511335  0.29752045  1
  O  O554  1  0.33741864  0.31467172  0.54788575  1
  O  O555  1  0.33521467  0.31537025  0.79772040  1
  O  O556  1  0.33747374  0.64900540  0.04708267  1
  O  O557  1  0.33618817  0.64830100  0.29821116  1
  O  O558  1  0.33770048  0.64925964  0.54738515  1
  O  O559  1  0.33859031  0.64863014  0.79648555  1
  O  O560  1  0.33854637  0.98038712  0.04720590  1
  O  O561  1  0.33756260  0.98182238  0.29802162  1
  O  O562  1  0.33942481  0.98081226  0.54815606  1
  O  O563  1  0.33793935  0.98119386  0.79822265  1
  O  O564  1  0.83867926  0.31452781  0.04771614  1
  O  O565  1  0.83894899  0.31558078  0.29654698  1
  O  O566  1  0.83703284  0.31513928  0.54771739  1
  O  O567  1  0.83694460  0.31441703  0.79785444  1
  O  O568  1  0.83686942  0.64974031  0.04809371  1
  O  O569  1  0.83658497  0.64806921  0.29772326  1
  O  O570  1  0.83549967  0.64863772  0.54800400  1
  O  O571  1  0.83744990  0.64925313  0.79691179  1
  O  O572  1  0.83615928  0.98112617  0.04727045  1
  O  O573  1  0.83663288  0.98189315  0.29865416  1
  O  O574  1  0.83795467  0.98126343  0.54718448  1
  O  O575  1  0.83645615  0.98166406  0.79654292  1
  O  O576  1  0.41354497  0.14837885  0.17271727  1
  O  O577  1  0.41409789  0.14763902  0.42301966  1
  O  O578  1  0.41432760  0.14770863  0.67372411  1
  O  O579  1  0.41326069  0.14716777  0.92280651  1
  O  O580  1  0.41228621  0.48173689  0.17176430  1
  O  O581  1  0.41227509  0.48262692  0.42167905  1
  O  O582  1  0.41278393  0.48267613  0.67344916  1
  O  O583  1  0.41085499  0.48148044  0.92308974  1
  O  O584  1  0.41406666  0.81474832  0.17198999  1
  O  O585  1  0.41079906  0.81500570  0.42205067  1
  O  O586  1  0.41022387  0.81469005  0.67255348  1
  O  O587  1  0.41277937  0.81639791  0.92276712  1
  O  O588  1  0.91183143  0.14892873  0.17210397  1
  O  O589  1  0.91336739  0.14686459  0.42253820  1
  O  O590  1  0.91342852  0.14803151  0.67314135  1
  O  O591  1  0.91065356  0.14954822  0.92133168  1
  O  O592  1  0.91300748  0.48233147  0.17341279  1
  O  O593  1  0.91260262  0.48233490  0.42245330  1
  O  O594  1  0.91538178  0.48246124  0.67252000  1
  O  O595  1  0.91447157  0.48113806  0.92260931  1
  O  O596  1  0.91284248  0.81411109  0.17236187  1
  O  O597  1  0.91470597  0.81610438  0.42232272  1
  O  O598  1  0.91421629  0.81460421  0.67368349  1
  O  O599  1  0.91262043  0.81512101  0.92283581  1
  O  O600  1  0.08558155  0.18489159  0.07785530  1
  O  O601  1  0.08808869  0.18380278  0.32708549  1
  O  O602  1  0.08858080  0.18431668  0.57873157  1
  O  O603  1  0.08657399  0.18582989  0.82678347  1
  O  O604  1  0.08663133  0.51806905  0.07849405  1
  O  O605  1  0.08967460  0.52011217  0.32711438  1
  O  O606  1  0.08952172  0.51882139  0.57717641  1
  O  O607  1  0.08838258  0.51855043  0.82822999  1
  O  O608  1  0.08720690  0.85156286  0.07727736  1
  O  O609  1  0.08656604  0.85140179  0.32737012  1
  O  O610  1  0.08912523  0.85129804  0.57856349  1
  O  O611  1  0.08824329  0.85046558  0.82727634  1
  O  O612  1  0.58923141  0.18509716  0.07619547  1
  O  O613  1  0.58726197  0.18386027  0.32774816  1
  O  O614  1  0.58844102  0.18526727  0.57911378  1
  O  O615  1  0.58940373  0.18473126  0.82744675  1
  O  O616  1  0.58990662  0.51926537  0.07665416  1
  O  O617  1  0.58636395  0.51844457  0.32660819  1
  O  O618  1  0.58533461  0.51727103  0.57758989  1
  O  O619  1  0.58819817  0.51959323  0.82805725  1
  O  O620  1  0.58968155  0.85056030  0.07751834  1
  O  O621  1  0.58689117  0.85225895  0.32688265  1
  O  O622  1  0.58631845  0.85165398  0.57804416  1
  O  O623  1  0.58781886  0.85025474  0.82737072  1
  O  O624  1  0.33664569  0.18585631  0.04803632  1
  O  O625  1  0.33424803  0.18493302  0.29795862  1
  O  O626  1  0.33689261  0.18451765  0.54823605  1
  O  O627  1  0.33535061  0.18522880  0.79816745  1
  O  O628  1  0.33727549  0.51861188  0.04692246  1
  O  O629  1  0.33629204  0.51830746  0.29798560  1
  O  O630  1  0.33773049  0.51928221  0.54814282  1
  O  O631  1  0.33850537  0.51830499  0.79661919  1
  O  O632  1  0.33811457  0.85004382  0.04659940  1
  O  O633  1  0.33812779  0.85183462  0.29764751  1
  O  O634  1  0.33921784  0.85068927  0.54708199  1
  O  O635  1  0.33763889  0.85118093  0.79759904  1
  O  O636  1  0.83833712  0.18441872  0.04687525  1
  O  O637  1  0.83899280  0.18495270  0.29667729  1
  O  O638  1  0.83717103  0.18494998  0.54767453  1
  O  O639  1  0.83684919  0.18429242  0.79691014  1
  O  O640  1  0.83778840  0.51971428  0.04821128  1
  O  O641  1  0.83655760  0.51787663  0.29728206  1
  O  O642  1  0.83526282  0.51868551  0.54813805  1
  O  O643  1  0.83742498  0.51889804  0.79726951  1
  O  O644  1  0.83584917  0.85093847  0.04766891  1
  O  O645  1  0.83691297  0.85192393  0.29875479  1
  O  O646  1  0.83799761  0.85108560  0.54722579  1
  O  O647  1  0.83592658  0.85151877  0.79732552  1
  O  O648  1  0.16039519  0.14896920  0.20250585  1
  O  O649  1  0.16081193  0.14753943  0.45226847  1
  O  O650  1  0.16149746  0.14790772  0.70271003  1
  O  O651  1  0.16115083  0.14823353  0.95283826  1
  O  O652  1  0.16092695  0.48210227  0.20224703  1
  O  O653  1  0.16226226  0.48317276  0.45348518  1
  O  O654  1  0.16234743  0.48098232  0.70234809  1
  O  O655  1  0.16215349  0.48218851  0.95197625  1
  O  O656  1  0.16053260  0.81410230  0.20181413  1
  O  O657  1  0.16310121  0.81426450  0.45177099  1
  O  O658  1  0.16344868  0.81637194  0.70231795  1
  O  O659  1  0.16243166  0.81463680  0.95145781  1
  O  O660  1  0.66409257  0.14738387  0.20281530  1
  O  O661  1  0.66068351  0.14813477  0.45203583  1
  O  O662  1  0.66335426  0.14814921  0.70215151  1
  O  O663  1  0.66482724  0.14849092  0.95260515  1
  O  O664  1  0.66436199  0.48243549  0.20245362  1
  O  O665  1  0.66124010  0.48330945  0.45317448  1
  O  O666  1  0.66119617  0.48055025  0.70170580  1
  O  O667  1  0.66310514  0.48216624  0.95289161  1
  O  O668  1  0.66148325  0.81544537  0.20267973  1
  O  O669  1  0.66190031  0.81383479  0.45246210  1
  O  O670  1  0.66332918  0.81637689  0.70295046  1
  O  O671  1  0.66224936  0.81462424  0.95251488  1
