# generated using pymatgen
data_Na2MnFe(PO4)2
_symmetry_space_group_name_H-M   'P 1'
_cell_length_a   21.08804022
_cell_length_b   18.94120555
_cell_length_c   20.04687322
_cell_angle_alpha   89.99975055
_cell_angle_beta   89.99701535
_cell_angle_gamma   90.00115963
_symmetry_Int_Tables_number   1
_chemical_formula_structural   Na2MnFe(PO4)2
_chemical_formula_sum   'Na96 Mn48 Fe48 P96 O384'
_cell_volume   8007.38078314
_cell_formula_units_Z   48
loop_
 _symmetry_equiv_pos_site_id
 _symmetry_equiv_pos_as_xyz
  1  'x, y, z'
loop_
 _atom_site_type_symbol
 _atom_site_label
 _atom_site_symmetry_multiplicity
 _atom_site_fract_x
 _atom_site_fract_y
 _atom_site_fract_z
 _atom_site_occupancy
  Na  Na0  1  0.00001755  0.00018589  -0.00024569  1
  Na  Na1  1  0.00112270  0.00113684  0.25033485  1
  Na  Na2  1  -0.00042628  -0.00011850  0.50169687  1
  Na  Na3  1  -0.00010152  -0.00015634  0.74843473  1
  Na  Na4  1  0.00079674  0.33340974  -0.00155536  1
  Na  Na5  1  -0.00154899  0.33256544  0.25016101  1
  Na  Na6  1  0.00010915  0.33418811  0.50077231  1
  Na  Na7  1  0.00015391  0.33342239  0.74962150  1
  Na  Na8  1  0.00064157  0.66698405  -0.00064223  1
  Na  Na9  1  0.00076178  0.66679801  0.24922542  1
  Na  Na10  1  -0.00005157  0.66580002  0.50104117  1
  Na  Na11  1  0.00193409  0.66735139  0.75076862  1
  Na  Na12  1  0.50158915  0.00018872  -0.00042129  1
  Na  Na13  1  0.49977472  -0.00027534  0.25015495  1
  Na  Na14  1  0.49991598  -0.00045932  0.50066976  1
  Na  Na15  1  0.50163525  0.00000981  0.74961076  1
  Na  Na16  1  0.49880175  0.33312044  0.00047668  1
  Na  Na17  1  0.49936526  0.33277898  0.25073879  1
  Na  Na18  1  0.50208683  0.33397815  0.49889615  1
  Na  Na19  1  0.50033750  0.33339604  0.75067548  1
  Na  Na20  1  0.49912482  0.66635594  -0.00109739  1
  Na  Na21  1  0.49935200  0.66605435  0.25062908  1
  Na  Na22  1  0.50189344  0.66683291  0.50052513  1
  Na  Na23  1  0.50038250  0.66652803  0.74952304  1
  Na  Na24  1  0.24902953  -0.00034944  0.12491252  1
  Na  Na25  1  0.25130509  0.00051502  0.37457238  1
  Na  Na26  1  0.25151490  -0.00020480  0.62470989  1
  Na  Na27  1  0.25082113  0.00007963  0.87519566  1
  Na  Na28  1  0.25140298  0.33347639  0.12593664  1
  Na  Na29  1  0.25058585  0.33340309  0.37534208  1
  Na  Na30  1  0.24801961  0.33238164  0.62341538  1
  Na  Na31  1  0.24992229  0.33306009  0.87502653  1
  Na  Na32  1  0.24713817  0.66575106  0.12499640  1
  Na  Na33  1  0.25068117  0.66736306  0.37580185  1
  Na  Na34  1  0.24950184  0.66663591  0.62473945  1
  Na  Na35  1  0.24813987  0.66649387  0.87510700  1
  Na  Na36  1  0.74871074  -0.00025310  0.12490523  1
  Na  Na37  1  0.74903123  0.00046176  0.37539657  1
  Na  Na38  1  0.74834347  0.00042611  0.62570551  1
  Na  Na39  1  0.74717432  -0.00112081  0.87499399  1
  Na  Na40  1  0.75040175  0.33309702  0.12588860  1
  Na  Na41  1  0.74916501  0.33335561  0.37486621  1
  Na  Na42  1  0.74906129  0.33391996  0.62429519  1
  Na  Na43  1  0.75035184  0.33370552  0.87533864  1
  Na  Na44  1  0.75279314  0.66711567  0.12545521  1
  Na  Na45  1  0.75089739  0.66622998  0.37532894  1
  Na  Na46  1  0.74802434  0.66560915  0.62390747  1
  Na  Na47  1  0.75018751  0.66629417  0.87411617  1
  Na  Na48  1  0.00096980  0.16667123  -0.00123401  1
  Na  Na49  1  0.00173662  0.16621676  0.25032814  1
  Na  Na50  1  -0.00046962  0.16695339  0.50166881  1
  Na  Na51  1  0.00085093  0.16609439  0.74939684  1
  Na  Na52  1  -0.00044848  0.49970628  -0.00115091  1
  Na  Na53  1  -0.00321693  0.50039516  0.24998633  1
  Na  Na54  1  -0.00195207  0.49980148  0.50110172  1
  Na  Na55  1  0.00020599  0.50006828  0.75008711  1
  Na  Na56  1  0.00073652  0.83332220  -0.00020355  1
  Na  Na57  1  0.00176076  0.83260632  0.24939784  1
  Na  Na58  1  0.00261536  0.83236439  0.50082670  1
  Na  Na59  1  0.00131368  0.83284326  0.74924168  1
  Na  Na60  1  0.50017474  0.16742718  0.00035787  1
  Na  Na61  1  0.50072376  0.16741734  0.25052647  1
  Na  Na62  1  0.50172140  0.16636653  0.49984386  1
  Na  Na63  1  0.50158592  0.16615732  0.74943357  1
  Na  Na64  1  0.49933633  0.50013178  -0.00014339  1
  Na  Na65  1  0.49851061  0.50073414  0.25044642  1
  Na  Na66  1  0.50266300  0.49951031  0.49975877  1
  Na  Na67  1  0.50148586  0.49999207  0.74949900  1
  Na  Na68  1  0.49960189  0.83289535  -0.00130174  1
  Na  Na69  1  0.49887685  0.83402163  0.25057986  1
  Na  Na70  1  0.49968763  0.83372066  0.50040514  1
  Na  Na71  1  0.49957129  0.83358644  0.75088964  1
  Na  Na72  1  0.24979888  0.16716904  0.12560085  1
  Na  Na73  1  0.25164581  0.16652087  0.37385606  1
  Na  Na74  1  0.25068128  0.16686281  0.62418068  1
  Na  Na75  1  0.24900322  0.16780520  0.87568062  1
  Na  Na76  1  0.25014025  0.49956363  0.12548149  1
  Na  Na77  1  0.25054545  0.49923756  0.37609433  1
  Na  Na78  1  0.24797670  0.50078366  0.62378911  1
  Na  Na79  1  0.24887146  0.50060261  0.87475385  1
  Na  Na80  1  0.24887489  0.83299768  0.12466996  1
  Na  Na81  1  0.24976648  0.83343230  0.37589613  1
  Na  Na82  1  0.25040239  0.83348446  0.62464470  1
  Na  Na83  1  0.25024860  0.83297145  0.87506622  1
  Na  Na84  1  0.74928275  0.16679402  0.12594913  1
  Na  Na85  1  0.74764428  0.16726422  0.37472095  1
  Na  Na86  1  0.74676422  0.16706435  0.62561596  1
  Na  Na87  1  0.74790061  0.16705693  0.87459870  1
  Na  Na88  1  0.75305963  0.49915188  0.12596884  1
  Na  Na89  1  0.75189087  0.49960377  0.37500596  1
  Na  Na90  1  0.75001897  0.50042153  0.62385505  1
  Na  Na91  1  0.74977640  0.50050228  0.87486830  1
  Na  Na92  1  0.74990675  0.83377371  0.12455934  1
  Na  Na93  1  0.74928878  0.83321699  0.37571313  1
  Na  Na94  1  0.74652806  0.83483716  0.62489290  1
  Na  Na95  1  0.75007469  0.83325259  0.87479065  1
  Mn  Mn96  1  0.39233439  0.91685882  0.12692104  1
  Mn  Mn97  1  0.89171773  0.91564306  0.62715392  1
  Mn  Mn98  1  0.85707111  0.08329365  0.00178992  1
  Mn  Mn99  1  0.60769759  0.74972100  0.87269659  1
  Mn  Mn100  1  0.89142723  0.25037714  0.62728429  1
  Mn  Mn101  1  0.60755241  0.41737698  0.12342164  1
  Mn  Mn102  1  0.60763647  0.74990217  0.37240940  1
  Mn  Mn103  1  0.14148067  0.91689440  0.99683211  1
  Mn  Mn104  1  0.89226301  0.91739150  0.12728684  1
  Mn  Mn105  1  0.35679894  0.74956521  0.00210884  1
  Mn  Mn106  1  0.64274025  0.58342156  0.99825004  1
  Mn  Mn107  1  0.14181020  0.58265650  0.24863411  1
  Mn  Mn108  1  0.14150883  0.58314190  0.49727315  1
  Mn  Mn109  1  0.14213234  0.91679787  0.24842939  1
  Mn  Mn110  1  0.14305058  0.91762174  0.49768927  1
  Mn  Mn111  1  0.35806374  0.08347911  0.25239658  1
  Mn  Mn112  1  0.64136994  0.25080266  0.74777353  1
  Mn  Mn113  1  0.14252338  0.25041429  0.24812341  1
  Mn  Mn114  1  0.39337308  0.58346392  0.62736216  1
  Mn  Mn115  1  0.85766846  0.75069476  0.50269126  1
  Mn  Mn116  1  0.10814382  0.08227924  0.87192485  1
  Mn  Mn117  1  0.35797610  0.08356494  0.00212157  1
  Mn  Mn118  1  0.85616539  0.08348890  0.75225933  1
  Mn  Mn119  1  0.89214132  0.24894179  0.87699104  1
  Mn  Mn120  1  0.85803325  0.41636190  0.00228617  1
  Mn  Mn121  1  0.60827059  0.74948402  0.12253844  1
  Mn  Mn122  1  0.89243182  0.58436397  0.87659442  1
  Mn  Mn123  1  0.35756906  0.41723537  0.75110960  1
  Mn  Mn124  1  0.85729093  0.75007833  0.75160614  1
  Mn  Mn125  1  0.35842637  0.08340405  0.75251615  1
  Mn  Mn126  1  0.60785474  0.08337283  0.12258406  1
  Mn  Mn127  1  0.35737604  0.41689366  0.00204316  1
  Mn  Mn128  1  0.35723861  0.74936975  0.25209444  1
  Mn  Mn129  1  0.14243798  0.24927577  0.49723269  1
  Mn  Mn130  1  0.64168313  0.91644968  0.24786006  1
  Mn  Mn131  1  0.89259523  0.91653083  0.37794020  1
  Mn  Mn132  1  0.39342749  0.25022172  0.62709892  1
  Mn  Mn133  1  0.10730943  0.41620884  0.12339910  1
  Mn  Mn134  1  0.35826573  0.41638292  0.50243207  1
  Mn  Mn135  1  0.10825185  0.41685699  0.87173710  1
  Mn  Mn136  1  0.35811625  0.75032306  0.50260363  1
  Mn  Mn137  1  0.60763013  0.41673170  0.87303296  1
  Mn  Mn138  1  0.85909838  0.75020608  0.25274558  1
  Mn  Mn139  1  0.10829745  0.08341343  0.62235199  1
  Mn  Mn140  1  0.39092242  0.58315212  0.12737176  1
  Mn  Mn141  1  0.64309785  0.58318513  0.24762102  1
  Mn  Mn142  1  0.85816640  0.08369013  0.25267648  1
  Mn  Mn143  1  0.89187805  0.24949149  0.37794789  1
  Fe  Fe144  1  0.85791118  0.75052117  0.00109976  1
  Fe  Fe145  1  0.39278249  0.25005142  0.12692969  1
  Fe  Fe146  1  0.85753229  0.41585481  0.25241104  1
  Fe  Fe147  1  0.89261563  0.58358269  0.62702235  1
  Fe  Fe148  1  0.10628809  0.41653756  0.37337382  1
  Fe  Fe149  1  0.64226311  0.58351389  0.74808170  1
  Fe  Fe150  1  0.10744474  0.08378463  0.12322904  1
  Fe  Fe151  1  0.39184517  0.58320838  0.87597183  1
  Fe  Fe152  1  0.64193947  0.91672891  0.49811032  1
  Fe  Fe153  1  0.89338063  0.58295153  0.12625093  1
  Fe  Fe154  1  0.39373451  0.91648824  0.62728481  1
  Fe  Fe155  1  0.60671815  0.08351842  0.87407425  1
  Fe  Fe156  1  0.89250322  0.24984379  0.12612688  1
  Fe  Fe157  1  0.60701975  0.74989486  0.62350317  1
  Fe  Fe158  1  0.85613554  0.08358573  0.50146081  1
  Fe  Fe159  1  0.89308040  0.58361169  0.37691222  1
  Fe  Fe160  1  0.14267892  0.25038866  0.99869974  1
  Fe  Fe161  1  0.85662176  0.41593681  0.50184055  1
  Fe  Fe162  1  0.60761775  0.41664542  0.37255635  1
  Fe  Fe163  1  0.14285010  0.58332133  0.74780853  1
  Fe  Fe164  1  0.10783198  0.08352356  0.37419473  1
  Fe  Fe165  1  0.89222329  0.91653050  0.87586450  1
  Fe  Fe166  1  0.10791227  0.74940563  0.62381385  1
  Fe  Fe167  1  0.10739814  0.74968405  0.37353063  1
  Fe  Fe168  1  0.64175347  0.91566713  0.74825255  1
  Fe  Fe169  1  0.64254157  0.25025527  0.49804304  1
  Fe  Fe170  1  0.64277191  0.25050922  0.24789975  1
  Fe  Fe171  1  0.39278079  0.91686353  0.37703154  1
  Fe  Fe172  1  0.60692535  0.08352627  0.37372181  1
  Fe  Fe173  1  0.14289497  0.25009417  0.74830756  1
  Fe  Fe174  1  0.35867383  0.08353926  0.50116172  1
  Fe  Fe175  1  0.35691595  0.74960971  0.75136711  1
  Fe  Fe176  1  0.64267488  0.91640094  0.99784807  1
  Fe  Fe177  1  0.85670076  0.41683902  0.75086235  1
  Fe  Fe178  1  0.39297681  0.91675360  0.87649991  1
  Fe  Fe179  1  0.60878540  0.41701643  0.62273732  1
  Fe  Fe180  1  0.10642603  0.41710114  0.62342459  1
  Fe  Fe181  1  0.39419171  0.24992831  0.37681112  1
  Fe  Fe182  1  0.39316202  0.58318613  0.37714533  1
  Fe  Fe183  1  0.14338955  0.91668531  0.74832834  1
  Fe  Fe184  1  0.10719878  0.75083613  0.87266243  1
  Fe  Fe185  1  0.14148188  0.58245511  0.99817134  1
  Fe  Fe186  1  0.39220171  0.25007952  0.87687435  1
  Fe  Fe187  1  0.35771709  0.41700505  0.25282431  1
  Fe  Fe188  1  0.64214067  0.25012452  0.99875477  1
  Fe  Fe189  1  0.60711964  0.08293147  0.62225836  1
  Fe  Fe190  1  0.10681305  0.75002777  0.12264156  1
  Fe  Fe191  1  0.64371245  0.58311198  0.49750663  1
  P  P192  1  0.05272757  0.24974173  0.10945459  1
  P  P193  1  0.05326173  0.25012895  0.36063046  1
  P  P194  1  0.05460343  0.25099810  0.61123581  1
  P  P195  1  0.05510234  0.24976576  0.85976771  1
  P  P196  1  0.05269141  0.58302711  0.10962186  1
  P  P197  1  0.05183777  0.58243978  0.36043200  1
  P  P198  1  0.05383896  0.58304641  0.61165516  1
  P  P199  1  0.05534099  0.58424038  0.86024081  1
  P  P200  1  0.05358083  0.91726334  0.11006154  1
  P  P201  1  0.05354165  0.91704845  0.36069105  1
  P  P202  1  0.05523794  0.91579930  0.61132608  1
  P  P203  1  0.05252575  0.91592192  0.85862250  1
  P  P204  1  0.55377035  0.25073962  0.11083370  1
  P  P205  1  0.55515969  0.25015034  0.36097486  1
  P  P206  1  0.55463459  0.25049426  0.60913062  1
  P  P207  1  0.55288567  0.24957117  0.86159034  1
  P  P208  1  0.55251675  0.58325857  0.10977873  1
  P  P209  1  0.55401467  0.58244868  0.36111578  1
  P  P210  1  0.55614353  0.58357447  0.61043341  1
  P  P211  1  0.55267448  0.58331551  0.85940311  1
  P  P212  1  0.55396761  0.91615275  0.10884689  1
  P  P213  1  0.55320253  0.91754798  0.36153513  1
  P  P214  1  0.55427231  0.91595537  0.61102590  1
  P  P215  1  0.55403897  0.91703194  0.86079248  1
  P  P216  1  0.44684944  0.08419479  0.14006928  1
  P  P217  1  0.44751598  0.08375387  0.39032537  1
  P  P218  1  0.44731048  0.08272525  0.63860687  1
  P  P219  1  0.44751681  0.08326373  0.88967797  1
  P  P220  1  0.44548301  0.41593689  0.14097596  1
  P  P221  1  0.44697794  0.41668605  0.38898212  1
  P  P222  1  0.44922789  0.41676490  0.63956064  1
  P  P223  1  0.44593623  0.41717305  0.88945221  1
  P  P224  1  0.44662894  0.74990355  0.14005354  1
  P  P225  1  0.44641981  0.74972783  0.39019921  1
  P  P226  1  0.44726257  0.75065208  0.64061691  1
  P  P227  1  0.44454859  0.74943612  0.88805304  1
  P  P228  1  0.94769839  0.08467478  0.13962746  1
  P  P229  1  0.94765952  0.08346622  0.39143493  1
  P  P230  1  0.94468565  0.08335907  0.63894843  1
  P  P231  1  0.94642964  0.08196703  0.88929505  1
  P  P232  1  0.94571666  0.41587450  0.14011633  1
  P  P233  1  0.94545001  0.41684083  0.38993416  1
  P  P234  1  0.94505056  0.41744234  0.63945297  1
  P  P235  1  0.94536716  0.41670270  0.88806123  1
  P  P236  1  0.94670974  0.74956414  0.13826299  1
  P  P237  1  0.94833546  0.74936066  0.39050304  1
  P  P238  1  0.94789762  0.74894293  0.64011329  1
  P  P239  1  0.94709588  0.75120318  0.88976320  1
  P  P240  1  0.19506817  0.08355956  0.23549681  1
  P  P241  1  0.19853059  0.08337187  0.48395635  1
  P  P242  1  0.19727863  0.08324766  0.73478422  1
  P  P243  1  0.19542644  0.08447172  0.98608856  1
  P  P244  1  0.19688487  0.41666780  0.23658721  1
  P  P245  1  0.19461652  0.41651668  0.48514952  1
  P  P246  1  0.19618333  0.41668461  0.73369653  1
  P  P247  1  0.19597654  0.41611743  0.98530360  1
  P  P248  1  0.19431570  0.74961726  0.23557464  1
  P  P249  1  0.19497397  0.75008134  0.48568208  1
  P  P250  1  0.19613585  0.75035258  0.73565449  1
  P  P251  1  0.19379111  0.74920483  0.98521846  1
  P  P252  1  0.69514529  0.08412756  0.23645934  1
  P  P253  1  0.69509491  0.08328838  0.48576499  1
  P  P254  1  0.69321166  0.08243328  0.73595019  1
  P  P255  1  0.69538952  0.08367248  0.98455382  1
  P  P256  1  0.69687837  0.41620556  0.23639932  1
  P  P257  1  0.69594457  0.41702991  0.48521267  1
  P  P258  1  0.69695862  0.41768323  0.73434127  1
  P  P259  1  0.69673092  0.41605900  0.98551658  1
  P  P260  1  0.69753538  0.74969302  0.23486148  1
  P  P261  1  0.69513407  0.74986545  0.48629568  1
  P  P262  1  0.69564670  0.74978637  0.73434026  1
  P  P263  1  0.69826290  0.75013184  0.98471573  1
  P  P264  1  0.30402756  0.25004851  0.01491073  1
  P  P265  1  0.30580024  0.25090924  0.26479781  1
  P  P266  1  0.30554266  0.24914870  0.51348309  1
  P  P267  1  0.30293420  0.25035148  0.76497964  1
  P  P268  1  0.30198740  0.58332920  0.01384407  1
  P  P269  1  0.30358387  0.58258165  0.26645196  1
  P  P270  1  0.30462232  0.58325135  0.51434542  1
  P  P271  1  0.30242128  0.58406324  0.76470211  1
  P  P272  1  0.30410782  0.91664077  0.01386258  1
  P  P273  1  0.30397980  0.91635150  0.26580908  1
  P  P274  1  0.30622362  0.91782140  0.51472858  1
  P  P275  1  0.30442945  0.91572794  0.76419388  1
  P  P276  1  0.80223799  0.24936307  0.01567053  1
  P  P277  1  0.80350917  0.25042414  0.26421290  1
  P  P278  1  0.80152994  0.24966751  0.51469222  1
  P  P279  1  0.80254163  0.25107474  0.76483923  1
  P  P280  1  0.80461390  0.58435653  0.01533306  1
  P  P281  1  0.80623107  0.58251793  0.26467953  1
  P  P282  1  0.80482275  0.58274780  0.51404710  1
  P  P283  1  0.80317113  0.58280468  0.76310323  1
  P  P284  1  0.80330010  0.91624344  0.01342113  1
  P  P285  1  0.80322022  0.91697742  0.26564638  1
  P  P286  1  0.80149634  0.91767295  0.51507283  1
  P  P287  1  0.80178506  0.91655462  0.76524195  1
  O  O288  1  0.05661246  0.25049304  0.18617476  1
  O  O289  1  0.05595404  0.25021303  0.43740223  1
  O  O290  1  0.05906480  0.24995695  0.68793719  1
  O  O291  1  0.05930286  0.25008759  0.93648506  1
  O  O292  1  0.05602563  0.58225722  0.18633487  1
  O  O293  1  0.05497174  0.58216369  0.43716343  1
  O  O294  1  0.05871464  0.58321752  0.68831484  1
  O  O295  1  0.05880447  0.58278565  0.93700596  1
  O  O296  1  0.05647165  0.91718803  0.18678799  1
  O  O297  1  0.05622421  0.91724060  0.43747868  1
  O  O298  1  0.05967267  0.91678794  0.68801223  1
  O  O299  1  0.05598195  0.91698630  0.93534740  1
  O  O300  1  0.55865664  0.25074381  0.18754005  1
  O  O301  1  0.55972508  0.25039749  0.43769691  1
  O  O302  1  0.55658852  0.25081816  0.68601088  1
  O  O303  1  0.55759867  0.25046458  0.93822181  1
  O  O304  1  0.55645552  0.58329498  0.18652461  1
  O  O305  1  0.55924907  0.58293597  0.43775269  1
  O  O306  1  0.55958582  0.58323984  0.68725845  1
  O  O307  1  0.55675195  0.58342894  0.93607359  1
  O  O308  1  0.55666012  0.91615816  0.18571364  1
  O  O309  1  0.55801662  0.91685867  0.43821420  1
  O  O310  1  0.55819101  0.91593478  0.68776416  1
  O  O311  1  0.55900138  0.91583641  0.93744818  1
  O  O312  1  0.44386349  0.08378270  0.06331797  1
  O  O313  1  0.44415590  0.08365152  0.31361882  1
  O  O314  1  0.44277251  0.08339680  0.56202871  1
  O  O315  1  0.44453343  0.08324558  0.81290496  1
  O  O316  1  0.44251773  0.41672400  0.06415846  1
  O  O317  1  0.44222951  0.41692921  0.31235456  1
  O  O318  1  0.44504556  0.41686043  0.56291019  1
  O  O319  1  0.44333204  0.41709553  0.81269785  1
  O  O320  1  0.44317951  0.74966957  0.06324858  1
  O  O321  1  0.44333416  0.74964071  0.31346440  1
  O  O322  1  0.44379643  0.74988768  0.56392637  1
  O  O323  1  0.44071158  0.74939729  0.81132158  1
  O  O324  1  0.94353973  0.08407624  0.06297993  1
  O  O325  1  0.94388269  0.08377521  0.31468309  1
  O  O326  1  0.93955662  0.08359906  0.56224704  1
  O  O327  1  0.94280431  0.08285301  0.81255777  1
  O  O328  1  0.94347106  0.41572987  0.06325800  1
  O  O329  1  0.94102103  0.41565635  0.31321596  1
  O  O330  1  0.94008004  0.41622224  0.56272841  1
  O  O331  1  0.94082269  0.41668065  0.81135728  1
  O  O332  1  0.94198544  0.75044292  0.06163197  1
  O  O333  1  0.94495755  0.75010093  0.31376172  1
  O  O334  1  0.94379737  0.74970733  0.56345301  1
  O  O335  1  0.94323769  0.75034775  0.81306878  1
  O  O336  1  0.19129442  0.08366705  0.06285545  1
  O  O337  1  0.19074389  0.08365655  0.31223497  1
  O  O338  1  0.19422536  0.08338220  0.56064126  1
  O  O339  1  0.19439725  0.08303032  0.81157625  1
  O  O340  1  0.19335445  0.41619912  0.06206492  1
  O  O341  1  0.19127163  0.41661258  0.31316706  1
  O  O342  1  0.18983569  0.41687643  0.56182184  1
  O  O343  1  0.19391613  0.41673185  0.81057216  1
  O  O344  1  0.18967303  0.74998327  0.06207137  1
  O  O345  1  0.19017526  0.74960698  0.31242010  1
  O  O346  1  0.19074925  0.74954877  0.56245633  1
  O  O347  1  0.19176691  0.75064806  0.81234979  1
  O  O348  1  0.69322131  0.08363015  0.06139482  1
  O  O349  1  0.69072114  0.08347319  0.31319396  1
  O  O350  1  0.69070733  0.08304900  0.56255328  1
  O  O351  1  0.68937251  0.08328305  0.81270870  1
  O  O352  1  0.69385774  0.41665235  0.06226211  1
  O  O353  1  0.69195122  0.41702258  0.31307038  1
  O  O354  1  0.69173613  0.41714809  0.56194205  1
  O  O355  1  0.69340155  0.41718312  0.81105861  1
  O  O356  1  0.69483040  0.74967886  0.06139152  1
  O  O357  1  0.69364950  0.74933942  0.31165843  1
  O  O358  1  0.69104132  0.75009864  0.56298170  1
  O  O359  1  0.69322551  0.74959427  0.81115364  1
  O  O360  1  0.30948689  0.24999412  0.18800892  1
  O  O361  1  0.31031859  0.24998399  0.43679182  1
  O  O362  1  0.30720744  0.25018061  0.68827044  1
  O  O363  1  0.30899936  0.24976325  0.93816216  1
  O  O364  1  0.30581575  0.58325314  0.18957966  1
  O  O365  1  0.30967295  0.58308510  0.43767533  1
  O  O366  1  0.30667210  0.58350351  0.68801610  1
  O  O367  1  0.30719709  0.58351382  0.93724787  1
  O  O368  1  0.30668660  0.91639238  0.18898978  1
  O  O369  1  0.31023534  0.91694489  0.43792861  1
  O  O370  1  0.30944965  0.91648608  0.68748945  1
  O  O371  1  0.30904890  0.91692627  0.93710990  1
  O  O372  1  0.80851019  0.24958281  0.18762712  1
  O  O373  1  0.80516118  0.24959994  0.43801421  1
  O  O374  1  0.80538443  0.25024596  0.68807512  1
  O  O375  1  0.80634397  0.24929103  0.93896739  1
  O  O376  1  0.81059325  0.58343473  0.18792950  1
  O  O377  1  0.80973954  0.58369200  0.43735363  1
  O  O378  1  0.80797510  0.58370424  0.68643036  1
  O  O379  1  0.80709443  0.58366054  0.93848680  1
  O  O380  1  0.80667171  0.91711794  0.18880780  1
  O  O381  1  0.80581511  0.91678034  0.43842542  1
  O  O382  1  0.80587535  0.91662042  0.68854473  1
  O  O383  1  0.80813723  0.91673645  0.93679571  1
  O  O384  1  0.23370179  0.25027133  0.03855772  1
  O  O385  1  0.23572266  0.25034429  0.28893487  1
  O  O386  1  0.23537716  0.24944631  0.53710872  1
  O  O387  1  0.23268188  0.25040312  0.78888642  1
  O  O388  1  0.23168304  0.58278695  0.03765014  1
  O  O389  1  0.23401141  0.58312388  0.29201334  1
  O  O390  1  0.23434078  0.58345009  0.53755953  1
  O  O391  1  0.23210428  0.58355598  0.78854450  1
  O  O392  1  0.23398379  0.91627547  0.03749633  1
  O  O393  1  0.23431837  0.91673709  0.29095258  1
  O  O394  1  0.23610408  0.91694543  0.53861225  1
  O  O395  1  0.23395170  0.91638918  0.78773804  1
  O  O396  1  0.73210472  0.24960206  0.03992828  1
  O  O397  1  0.73319311  0.25061524  0.28800327  1
  O  O398  1  0.73142293  0.25024879  0.53921640  1
  O  O399  1  0.73283673  0.25076221  0.79001027  1
  O  O400  1  0.73509554  0.58320285  0.04105972  1
  O  O401  1  0.73612107  0.58300035  0.28868270  1
  O  O402  1  0.73421074  0.58289514  0.53694837  1
  O  O403  1  0.73288379  0.58334696  0.78705500  1
  O  O404  1  0.73293237  0.91679926  0.03720813  1
  O  O405  1  0.73349229  0.91679252  0.29049309  1
  O  O406  1  0.73129973  0.91756249  0.53913976  1
  O  O407  1  0.73151424  0.91581283  0.78906224  1
  O  O408  1  0.26522153  0.08348602  0.21172030  1
  O  O409  1  0.26864900  0.08338074  0.45987413  1
  O  O410  1  0.26695856  0.08341477  0.70946152  1
  O  O411  1  0.26532699  0.08407036  0.96155786  1
  O  O412  1  0.26722898  0.41658784  0.21319744  1
  O  O413  1  0.26495180  0.41634440  0.46197789  1
  O  O414  1  0.26574330  0.41676865  0.70786564  1
  O  O415  1  0.26544806  0.41651455  0.95952512  1
  O  O416  1  0.26432016  0.74933837  0.21137839  1
  O  O417  1  0.26515598  0.75043718  0.46212233  1
  O  O418  1  0.26648121  0.75000415  0.71148990  1
  O  O419  1  0.26385498  0.75001747  0.96126506  1
  O  O420  1  0.76508941  0.08356473  0.21210663  1
  O  O421  1  0.76542001  0.08346539  0.46173989  1
  O  O422  1  0.76321958  0.08362715  0.71163905  1
  O  O423  1  0.76486592  0.08334229  0.95870747  1
  O  O424  1  0.76720705  0.41613343  0.21283670  1
  O  O425  1  0.76644177  0.41682789  0.46161605  1
  O  O426  1  0.76689672  0.41708244  0.70946130  1
  O  O427  1  0.76632556  0.41668246  0.96011354  1
  O  O428  1  0.76734471  0.75018943  0.21040363  1
  O  O429  1  0.76514662  0.74965935  0.46185414  1
  O  O430  1  0.76520142  0.75025674  0.70862894  1
  O  O431  1  0.76813834  0.74992190  0.95955836  1
  O  O432  1  0.01779714  0.08410395  0.16401243  1
  O  O433  1  0.01779956  0.08368075  0.41585148  1
  O  O434  1  0.01499584  0.08320035  0.66215710  1
  O  O435  1  0.01621756  0.08258711  0.91395818  1
  O  O436  1  0.01529134  0.41627871  0.16578397  1
  O  O437  1  0.01571790  0.41647687  0.41387681  1
  O  O438  1  0.01546158  0.41706691  0.66287115  1
  O  O439  1  0.01549697  0.41684615  0.91189447  1
  O  O440  1  0.01707391  0.74971020  0.16206958  1
  O  O441  1  0.01830658  0.74925830  0.41529718  1
  O  O442  1  0.01798132  0.74939186  0.66441319  1
  O  O443  1  0.01722429  0.75038875  0.91397655  1
  O  O444  1  0.51641811  0.08378535  0.16540988  1
  O  O445  1  0.51762470  0.08368199  0.41494274  1
  O  O446  1  0.51770031  0.08299593  0.66227802  1
  O  O447  1  0.51732030  0.08328662  0.91500646  1
  O  O448  1  0.51516881  0.41676597  0.16613252  1
  O  O449  1  0.51743500  0.41635356  0.41254113  1
  O  O450  1  0.51934891  0.41688843  0.66374222  1
  O  O451  1  0.51540907  0.41690378  0.91530410  1
  O  O452  1  0.51618261  0.75003212  0.16540529  1
  O  O453  1  0.51610174  0.74992760  0.41542727  1
  O  O454  1  0.51737540  0.75027357  0.66496226  1
  O  O455  1  0.51455720  0.74961698  0.91255350  1
  O  O456  1  0.48336566  0.25039390  0.08739405  1
  O  O457  1  0.48466967  0.25014668  0.33755087  1
  O  O458  1  0.48516675  0.25035417  0.58335361  1
  O  O459  1  0.48267559  0.24992148  0.83731844  1
  O  O460  1  0.48273716  0.58306525  0.08509284  1
  O  O461  1  0.48357821  0.58296187  0.33777472  1
  O  O462  1  0.48612443  0.58345250  0.58601968  1
  O  O463  1  0.48256253  0.58333015  0.83504597  1
  O  O464  1  0.48435244  0.91650591  0.08361633  1
  O  O465  1  0.48287940  0.91731233  0.33777084  1
  O  O466  1  0.48395615  0.91620374  0.58704203  1
  O  O467  1  0.48357452  0.91654245  0.83730471  1
  O  O468  1  0.98269969  0.25026327  0.08476605  1
  O  O469  1  0.98368718  0.24964083  0.33516874  1
  O  O470  1  0.98448678  0.25072113  0.58725271  1
  O  O471  1  0.98502030  0.24939722  0.83574317  1
  O  O472  1  0.98265268  0.58281129  0.08481199  1
  O  O473  1  0.98198973  0.58308103  0.33528387  1
  O  O474  1  0.98351586  0.58304062  0.58787635  1
  O  O475  1  0.98534680  0.58396511  0.83587086  1
  O  O476  1  0.98394524  0.91712085  0.08465003  1
  O  O477  1  0.98413064  0.91684052  0.33463710  1
  O  O478  1  0.98514196  0.91594146  0.58728374  1
  O  O479  1  0.98256566  0.91625641  0.83383311  1
  O  O480  1  0.08694634  0.31463680  0.07655955  1
  O  O481  1  0.08703526  0.31545193  0.32811029  1
  O  O482  1  0.08780719  0.31630966  0.57851185  1
  O  O483  1  0.08858911  0.31483924  0.82651112  1
  O  O484  1  0.08672414  0.64803155  0.07719651  1
  O  O485  1  0.08622977  0.64735684  0.32825365  1
  O  O486  1  0.08724261  0.64805399  0.57834988  1
  O  O487  1  0.08886209  0.64968865  0.82797508  1
  O  O488  1  0.08758166  0.98241996  0.07765731  1
  O  O489  1  0.08770225  0.98231887  0.32865715  1
  O  O490  1  0.08875978  0.98071571  0.57776400  1
  O  O491  1  0.08709078  0.98049103  0.82562276  1
  O  O492  1  0.58691637  0.31576924  0.07737728  1
  O  O493  1  0.58845600  0.31512179  0.32741367  1
  O  O494  1  0.58917356  0.31542822  0.57691170  1
  O  O495  1  0.58649425  0.31443285  0.82801326  1
  O  O496  1  0.58639992  0.64823705  0.07696664  1
  O  O497  1  0.58733278  0.64733976  0.32748612  1
  O  O498  1  0.58967550  0.64890623  0.57782968  1
  O  O499  1  0.58676997  0.64820897  0.82653853  1
  O  O500  1  0.58849931  0.98115702  0.07678456  1
  O  O501  1  0.58634843  0.98273128  0.32852696  1
  O  O502  1  0.58782849  0.98095188  0.57772678  1
  O  O503  1  0.58700050  0.98233840  0.82788917  1
  O  O504  1  0.41257447  0.01917932  0.17241372  1
  O  O505  1  0.41343273  0.01894240  0.42316437  1
  O  O506  1  0.41419268  0.01759643  0.67191029  1
  O  O507  1  0.41353986  0.01812985  0.92204125  1
  O  O508  1  0.41181149  0.35052824  0.17308659  1
  O  O509  1  0.41381205  0.35147397  0.42218291  1
  O  O510  1  0.41548648  0.35175959  0.67232330  1
  O  O511  1  0.41157889  0.35210563  0.92164423  1
  O  O512  1  0.41239073  0.68486681  0.17243664  1
  O  O513  1  0.41261226  0.68456318  0.42281989  1
  O  O514  1  0.41306622  0.68578625  0.67347423  1
  O  O515  1  0.41110550  0.68412702  0.92093891  1
  O  O516  1  0.91377697  0.01979498  0.17271599  1
  O  O517  1  0.91364162  0.01843089  0.42398393  1
  O  O518  1  0.91134693  0.01823951  0.67205537  1
  O  O519  1  0.91285023  0.01651807  0.92150631  1
  O  O520  1  0.91158139  0.35068250  0.17244577  1
  O  O521  1  0.91169225  0.35209263  0.42367261  1
  O  O522  1  0.91139493  0.35275318  0.67313642  1
  O  O523  1  0.91210354  0.35166095  0.92141258  1
  O  O524  1  0.91377290  0.68423416  0.17129832  1
  O  O525  1  0.91424461  0.68436983  0.42279440  1
  O  O526  1  0.91434634  0.68379880  0.67279230  1
  O  O527  1  0.91287282  0.68645467  0.92277607  1
  O  O528  1  0.16144991  0.01863144  0.20231732  1
  O  O529  1  0.16462486  0.01840186  0.45116652  1
  O  O530  1  0.16336234  0.01802142  0.70244183  1
  O  O531  1  0.16177175  0.01956607  0.95261683  1
  O  O532  1  0.16368641  0.35174043  0.20289691  1
  O  O533  1  0.16116992  0.35160382  0.45174960  1
  O  O534  1  0.16172564  0.35166193  0.70169059  1
  O  O535  1  0.16209063  0.35080091  0.95306086  1
  O  O536  1  0.16040801  0.68465570  0.20269753  1
  O  O537  1  0.16151922  0.68516262  0.45216781  1
  O  O538  1  0.16248028  0.68527712  0.70251324  1
  O  O539  1  0.16052368  0.68392079  0.95257614  1
  O  O540  1  0.66130566  0.01934569  0.20320343  1
  O  O541  1  0.66152665  0.01831121  0.45254842  1
  O  O542  1  0.66030188  0.01686336  0.70321890  1
  O  O543  1  0.66066622  0.01876496  0.95247117  1
  O  O544  1  0.66339518  0.35113578  0.20345534  1
  O  O545  1  0.66246344  0.35199882  0.45209585  1
  O  O546  1  0.66265678  0.35276144  0.70164028  1
  O  O547  1  0.66286400  0.35069259  0.95336302  1
  O  O548  1  0.66403506  0.68451604  0.20203471  1
  O  O549  1  0.66177373  0.68456454  0.45333393  1
  O  O550  1  0.66146024  0.68475031  0.70205183  1
  O  O551  1  0.66419272  0.68510676  0.95205103  1
  O  O552  1  0.33759028  0.31504146  0.04801713  1
  O  O553  1  0.33935200  0.31603154  0.29765983  1
  O  O554  1  0.33878889  0.31408402  0.54722100  1
  O  O555  1  0.33668628  0.31540551  0.79773617  1
  O  O556  1  0.33483971  0.64840881  0.04757819  1
  O  O557  1  0.33833560  0.64739017  0.29874836  1
  O  O558  1  0.33787666  0.64828063  0.54769908  1
  O  O559  1  0.33581007  0.64914532  0.79771024  1
  O  O560  1  0.33719368  0.98180625  0.04718373  1
  O  O561  1  0.33856364  0.98125280  0.29814099  1
  O  O562  1  0.33944201  0.98322545  0.54741382  1
  O  O563  1  0.33810152  0.98054092  0.79782370  1
  O  O564  1  0.83642067  0.31423366  0.04840941  1
  O  O565  1  0.83692278  0.31550396  0.29737842  1
  O  O566  1  0.83559198  0.31472951  0.54715951  1
  O  O567  1  0.83653232  0.31628038  0.79675442  1
  O  O568  1  0.83849454  0.64986167  0.04708541  1
  O  O569  1  0.84009928  0.64726114  0.29827970  1
  O  O570  1  0.83806133  0.64751947  0.54810670  1
  O  O571  1  0.83671863  0.64772417  0.79657272  1
  O  O572  1  0.83655697  0.98122832  0.04713001  1
  O  O573  1  0.83710361  0.98208189  0.29811443  1
  O  O574  1  0.83512923  0.98272463  0.54767301  1
  O  O575  1  0.83503630  0.98167246  0.79836836  1
  O  O576  1  0.41290593  0.14931978  0.17237805  1
  O  O577  1  0.41390229  0.14897866  0.42301324  1
  O  O578  1  0.41412036  0.14770448  0.67224828  1
  O  O579  1  0.41343643  0.14833861  0.92202406  1
  O  O580  1  0.41059687  0.48056894  0.17352350  1
  O  O581  1  0.41389615  0.48167646  0.42264812  1
  O  O582  1  0.41528804  0.48168100  0.67238885  1
  O  O583  1  0.41185634  0.48256647  0.92150124  1
  O  O584  1  0.41237292  0.81493217  0.17231217  1
  O  O585  1  0.41244861  0.81497734  0.42247122  1
  O  O586  1  0.41334944  0.81572268  0.67309820  1
  O  O587  1  0.41097575  0.81458582  0.92088695  1
  O  O588  1  0.91429152  0.14994318  0.17244274  1
  O  O589  1  0.91338608  0.14832761  0.42419392  1
  O  O590  1  0.91158037  0.14845426  0.67239029  1
  O  O591  1  0.91227217  0.14676678  0.92226080  1
  O  O592  1  0.91111877  0.48084411  0.17209097  1
  O  O593  1  0.91210634  0.48212471  0.42263848  1
  O  O594  1  0.91193421  0.48278366  0.67237621  1
  O  O595  1  0.91201263  0.48182458  0.92107264  1
  O  O596  1  0.91354434  0.81445995  0.17209620  1
  O  O597  1  0.91454336  0.81442378  0.42346042  1
  O  O598  1  0.91391500  0.81388594  0.67291979  1
  O  O599  1  0.91354968  0.81653336  0.92228129  1
  O  O600  1  0.08672632  0.18468950  0.07694570  1
  O  O601  1  0.08783515  0.18515852  0.32864746  1
  O  O602  1  0.08825740  0.18613686  0.57770312  1
  O  O603  1  0.08906346  0.18492347  0.82671861  1
  O  O604  1  0.08662562  0.51803301  0.07671681  1
  O  O605  1  0.08527284  0.51713104  0.32762995  1
  O  O606  1  0.08690232  0.51790249  0.57821354  1
  O  O607  1  0.08936253  0.51966996  0.82661651  1
  O  O608  1  0.08768615  0.85217405  0.07767818  1
  O  O609  1  0.08785141  0.85183128  0.32874836  1
  O  O610  1  0.08874094  0.85053359  0.57887885  1
  O  O611  1  0.08664333  0.85062465  0.82662709  1
  O  O612  1  0.58735776  0.18590466  0.07742714  1
  O  O613  1  0.58826179  0.18494214  0.32787769  1
  O  O614  1  0.58906636  0.18529142  0.57727525  1
  O  O615  1  0.58619830  0.18442018  0.82865934  1
  O  O616  1  0.58647453  0.51813932  0.07733820  1
  O  O617  1  0.58697036  0.51724426  0.32772748  1
  O  O618  1  0.59008074  0.51874683  0.57729159  1
  O  O619  1  0.58677724  0.51837508  0.82666948  1
  O  O620  1  0.58824610  0.85123482  0.07631985  1
  O  O621  1  0.58644316  0.85259741  0.32791612  1
  O  O622  1  0.58756412  0.85087521  0.57778419  1
  O  O623  1  0.58754002  0.85223767  0.82696404  1
  O  O624  1  0.33749854  0.18516830  0.04840844  1
  O  O625  1  0.33982411  0.18608954  0.29798218  1
  O  O626  1  0.33873798  0.18384988  0.54642936  1
  O  O627  1  0.33663145  0.18539584  0.79817846  1
  O  O628  1  0.33558185  0.51844137  0.04713644  1
  O  O629  1  0.33792437  0.51742865  0.29845434  1
  O  O630  1  0.33776491  0.51818997  0.54780115  1
  O  O631  1  0.33629008  0.51914997  0.79778352  1
  O  O632  1  0.33750210  0.85161320  0.04696886  1
  O  O633  1  0.33798841  0.85131854  0.29830761  1
  O  O634  1  0.34015653  0.85314991  0.54829894  1
  O  O635  1  0.33737445  0.85045609  0.79729245  1
  O  O636  1  0.83596311  0.18432387  0.04864921  1
  O  O637  1  0.83648211  0.18542715  0.29808024  1
  O  O638  1  0.83491565  0.18457467  0.54761427  1
  O  O639  1  0.83653263  0.18603479  0.79748930  1
  O  O640  1  0.83968827  0.51974489  0.04771218  1
  O  O641  1  0.83946869  0.51711561  0.29739627  1
  O  O642  1  0.83785084  0.51748220  0.54709709  1
  O  O643  1  0.83636555  0.51768430  0.79616806  1
  O  O644  1  0.83647709  0.85103290  0.04654201  1
  O  O645  1  0.83735289  0.85190642  0.29803361  1
  O  O646  1  0.83509737  0.85255225  0.54822860  1
  O  O647  1  0.83612082  0.85177323  0.79790730  1
  O  O648  1  0.16153490  0.14858666  0.20227568  1
  O  O649  1  0.16448586  0.14815274  0.45093870  1
  O  O650  1  0.16312135  0.14838131  0.70254948  1
  O  O651  1  0.16199479  0.14976408  0.95358460  1
  O  O652  1  0.16367742  0.48168757  0.20310836  1
  O  O653  1  0.16120050  0.48146233  0.45160798  1
  O  O654  1  0.16168182  0.48183798  0.70175256  1
  O  O655  1  0.16143673  0.48095808  0.95291464  1
  O  O656  1  0.16081823  0.81470845  0.20251224  1
  O  O657  1  0.16137795  0.81505394  0.45269399  1
  O  O658  1  0.16288453  0.81540676  0.70226851  1
  O  O659  1  0.15989268  0.81395247  0.95165035  1
  O  O660  1  0.66188524  0.14957396  0.20377361  1
  O  O661  1  0.66164436  0.14844305  0.45277153  1
  O  O662  1  0.65889403  0.14703291  0.70271682  1
  O  O663  1  0.66103904  0.14892819  0.95261589  1
  O  O664  1  0.66387183  0.48118897  0.20266811  1
  O  O665  1  0.66276978  0.48214117  0.45178868  1
  O  O666  1  0.66322907  0.48269890  0.70160298  1
  O  O667  1  0.66239748  0.48090152  0.95289262  1
  O  O668  1  0.66332303  0.81469914  0.20262534  1
  O  O669  1  0.66168888  0.81508942  0.45335741  1
  O  O670  1  0.66087748  0.81478550  0.70247453  1
  O  O671  1  0.66407759  0.81508083  0.95219816  1
