# generated using pymatgen
data_Na2MnFe(PO4)2
_symmetry_space_group_name_H-M   'P 1'
_cell_length_a   21.08934936
_cell_length_b   18.94252418
_cell_length_c   20.04822342
_cell_angle_alpha   90.00045983
_cell_angle_beta   89.99544785
_cell_angle_gamma   89.99996002
_symmetry_Int_Tables_number   1
_chemical_formula_structural   Na2MnFe(PO4)2
_chemical_formula_sum   'Na96 Mn48 Fe48 P96 O384'
_cell_volume   8008.97473399
_cell_formula_units_Z   48
loop_
 _symmetry_equiv_pos_site_id
 _symmetry_equiv_pos_as_xyz
  1  'x, y, z'
loop_
 _atom_site_type_symbol
 _atom_site_label
 _atom_site_symmetry_multiplicity
 _atom_site_fract_x
 _atom_site_fract_y
 _atom_site_fract_z
 _atom_site_occupancy
  Na  Na0  1  0.00135482  0.00073609  -0.00048245  1
  Na  Na1  1  0.00099510  0.00065909  0.25084819  1
  Na  Na2  1  -0.00062375  0.00007304  0.50026762  1
  Na  Na3  1  0.00019893  0.00023824  0.74903959  1
  Na  Na4  1  0.00143669  0.33427131  -0.00103299  1
  Na  Na5  1  -0.00115081  0.33264757  0.25045744  1
  Na  Na6  1  -0.00140552  0.33277133  0.50101359  1
  Na  Na7  1  0.00050529  0.33353397  0.75000870  1
  Na  Na8  1  0.00072870  0.66585986  0.00083042  1
  Na  Na9  1  0.00076915  0.66585600  0.24945224  1
  Na  Na10  1  0.00117864  0.66668358  0.50041906  1
  Na  Na11  1  -0.00021033  0.66559291  0.75001334  1
  Na  Na12  1  0.49878115  0.00018862  0.00006410  1
  Na  Na13  1  0.49866291  -0.00007484  0.25117635  1
  Na  Na14  1  0.49878472  -0.00034142  0.49986722  1
  Na  Na15  1  0.49855878  -0.00015978  0.74896897  1
  Na  Na16  1  0.50035371  0.33358093  -0.00072620  1
  Na  Na17  1  0.49935253  0.33321040  0.25153490  1
  Na  Na18  1  0.50024598  0.33325408  0.50025366  1
  Na  Na19  1  0.50065687  0.33358195  0.74873341  1
  Na  Na20  1  0.49818554  0.66564430  0.00032502  1
  Na  Na21  1  0.49846465  0.66607718  0.24947814  1
  Na  Na22  1  0.49899160  0.66635383  0.49971799  1
  Na  Na23  1  0.50040190  0.66684599  0.75045719  1
  Na  Na24  1  0.24778394  -0.00029222  0.12484935  1
  Na  Na25  1  0.24773563  0.00021547  0.37556080  1
  Na  Na26  1  0.24789708  0.00008371  0.62400187  1
  Na  Na27  1  0.24945742  0.00035733  0.87586712  1
  Na  Na28  1  0.24896094  0.33349252  0.12429912  1
  Na  Na29  1  0.25108701  0.33403784  0.37564666  1
  Na  Na30  1  0.24962908  0.33320533  0.62482294  1
  Na  Na31  1  0.24742098  0.33270772  0.87559403  1
  Na  Na32  1  0.24830783  0.66570803  0.12537174  1
  Na  Na33  1  0.24896111  0.66614595  0.37513113  1
  Na  Na34  1  0.24962016  0.66646631  0.62472926  1
  Na  Na35  1  0.25139968  0.66675035  0.87442006  1
  Na  Na36  1  0.75151709  0.00016636  0.12526843  1
  Na  Na37  1  0.75367719  0.00114717  0.37569853  1
  Na  Na38  1  0.75186756  0.00012095  0.62475587  1
  Na  Na39  1  0.75194358  0.00068804  0.87442127  1
  Na  Na40  1  0.75015491  0.33369096  0.12603644  1
  Na  Na41  1  0.75077233  0.33325371  0.37373432  1
  Na  Na42  1  0.75051153  0.33333855  0.62484615  1
  Na  Na43  1  0.75032668  0.33382272  0.87489201  1
  Na  Na44  1  0.75230573  0.66640967  0.12485251  1
  Na  Na45  1  0.75113046  0.66685613  0.37523864  1
  Na  Na46  1  0.74928836  0.66566350  0.62413261  1
  Na  Na47  1  0.75122494  0.66645721  0.87525118  1
  Na  Na48  1  0.00081497  0.16673323  -0.00126082  1
  Na  Na49  1  -0.00069130  0.16750390  0.25104252  1
  Na  Na50  1  0.00054694  0.16650274  0.50046296  1
  Na  Na51  1  0.00086486  0.16691059  0.74969317  1
  Na  Na52  1  0.00004510  0.50005060  -0.00015478  1
  Na  Na53  1  0.00046313  0.49963130  0.24930127  1
  Na  Na54  1  -0.00213720  0.50009441  0.50031379  1
  Na  Na55  1  -0.00052746  0.49890403  0.75031448  1
  Na  Na56  1  0.00164074  0.83348905  0.00053801  1
  Na  Na57  1  0.00102438  0.83359502  0.25041806  1
  Na  Na58  1  0.00047903  0.83425653  0.50059810  1
  Na  Na59  1  0.00216476  0.83283271  0.74952934  1
  Na  Na60  1  0.50035008  0.16718324  -0.00011577  1
  Na  Na61  1  0.49832750  0.16782022  0.25176165  1
  Na  Na62  1  0.49928100  0.16724701  0.50077473  1
  Na  Na63  1  0.50092705  0.16664473  0.74847747  1
  Na  Na64  1  0.50034978  0.49814813  -0.00050941  1
  Na  Na65  1  0.49923119  0.49906286  0.25034409  1
  Na  Na66  1  0.49804498  0.49948147  0.50029747  1
  Na  Na67  1  0.49780411  0.49997403  0.74945077  1
  Na  Na68  1  0.49754254  0.83385404  0.00056067  1
  Na  Na69  1  0.49900631  0.83390903  0.24983375  1
  Na  Na70  1  0.50222772  0.83282169  0.49923400  1
  Na  Na71  1  0.50037474  0.83344239  0.74992125  1
  Na  Na72  1  0.24772885  0.16779348  0.12554019  1
  Na  Na73  1  0.24959515  0.16632242  0.37513121  1
  Na  Na74  1  0.24760199  0.16789358  0.62427329  1
  Na  Na75  1  0.24964379  0.16676841  0.87551845  1
  Na  Na76  1  0.24786330  0.50040737  0.12371555  1
  Na  Na77  1  0.25081680  0.49874049  0.37603880  1
  Na  Na78  1  0.25059209  0.49892241  0.62488002  1
  Na  Na79  1  0.24948455  0.49905449  0.87529692  1
  Na  Na80  1  0.24990399  0.83277631  0.12528429  1
  Na  Na81  1  0.24796065  0.83414378  0.37502902  1
  Na  Na82  1  0.24778403  0.83475743  0.62472619  1
  Na  Na83  1  0.24944690  0.83364834  0.87474918  1
  Na  Na84  1  0.75319285  0.16621328  0.12541792  1
  Na  Na85  1  0.75244608  0.16685836  0.37460682  1
  Na  Na86  1  0.75151686  0.16711896  0.62426554  1
  Na  Na87  1  0.75024415  0.16779855  0.87474232  1
  Na  Na88  1  0.75054319  0.49961086  0.12528695  1
  Na  Na89  1  0.75090289  0.49948206  0.37403409  1
  Na  Na90  1  0.75130275  0.49901080  0.62485745  1
  Na  Na91  1  0.75185485  0.49907201  0.87628462  1
  Na  Na92  1  0.75032114  0.83356200  0.12532778  1
  Na  Na93  1  0.75077807  0.83376642  0.37597808  1
  Na  Na94  1  0.74971891  0.83400445  0.62440870  1
  Na  Na95  1  0.74958343  0.83396592  0.87386477  1
  Mn  Mn96  1  0.39145155  0.25016958  0.12698030  1
  Mn  Mn97  1  0.64220322  0.58269283  0.49686543  1
  Mn  Mn98  1  0.60704067  0.74967731  0.87323795  1
  Mn  Mn99  1  0.35784775  0.75006299  0.75230777  1
  Mn  Mn100  1  0.35686103  0.41686690  0.00178049  1
  Mn  Mn101  1  0.64213508  0.91742522  0.74777699  1
  Mn  Mn102  1  0.14228815  0.91611667  0.99732581  1
  Mn  Mn103  1  0.60779817  0.08362319  0.37333399  1
  Mn  Mn104  1  0.85896526  0.74980567  0.00191229  1
  Mn  Mn105  1  0.89269988  0.25052524  0.87705726  1
  Mn  Mn106  1  0.10825930  0.08323751  0.87161041  1
  Mn  Mn107  1  0.85845342  0.41648463  0.25207623  1
  Mn  Mn108  1  0.89298671  0.91707629  0.12751815  1
  Mn  Mn109  1  0.10745509  0.41693091  0.37279337  1
  Mn  Mn110  1  0.85825108  0.75004360  0.50228871  1
  Mn  Mn111  1  0.39139586  0.91729869  0.12788142  1
  Mn  Mn112  1  0.35739685  0.08350285  0.00250578  1
  Mn  Mn113  1  0.39194765  0.91630767  0.62634884  1
  Mn  Mn114  1  0.14249819  0.58284833  0.74788186  1
  Mn  Mn115  1  0.14213604  0.58287498  0.49747535  1
  Mn  Mn116  1  0.10814669  0.74977900  0.12218982  1
  Mn  Mn117  1  0.64237813  0.58301944  0.74859391  1
  Mn  Mn118  1  0.89200959  0.58314419  0.62768274  1
  Mn  Mn119  1  0.60812092  0.41735412  0.62249885  1
  Mn  Mn120  1  0.35683225  0.08409227  0.75188952  1
  Mn  Mn121  1  0.35714197  0.75073000  0.50212490  1
  Mn  Mn122  1  0.60755137  0.74942926  0.12243514  1
  Mn  Mn123  1  0.39205016  0.24967505  0.62718662  1
  Mn  Mn124  1  0.14164588  0.25063175  0.24801546  1
  Mn  Mn125  1  0.64293161  0.58332975  0.99794023  1
  Mn  Mn126  1  0.64278251  0.24937514  0.24827036  1
  Mn  Mn127  1  0.60851221  0.08391280  0.12353285  1
  Mn  Mn128  1  0.64205994  0.58360124  0.24793658  1
  Mn  Mn129  1  0.35656411  0.08378011  0.25266181  1
  Mn  Mn130  1  0.39115697  0.58232930  0.12720810  1
  Mn  Mn131  1  0.60768666  0.08357343  0.87254915  1
  Mn  Mn132  1  0.85812672  0.74975807  0.75256071  1
  Mn  Mn133  1  0.64260042  0.24997231  0.99812235  1
  Mn  Mn134  1  0.85892000  0.75060766  0.25280327  1
  Mn  Mn135  1  0.85880277  0.08386129  0.00239560  1
  Mn  Mn136  1  0.64189983  0.91680512  0.99772800  1
  Mn  Mn137  1  0.64276119  0.91708845  0.24872939  1
  Mn  Mn138  1  0.35656911  0.74966810  0.25277579  1
  Mn  Mn139  1  0.60863900  0.08260662  0.62205318  1
  Mn  Mn140  1  0.89308785  0.91543184  0.87689649  1
  Mn  Mn141  1  0.60726628  0.74919206  0.37226138  1
  Mn  Mn142  1  0.39209071  0.58401624  0.62730922  1
  Mn  Mn143  1  0.10792902  0.74973932  0.62251735  1
  Fe  Fe144  1  0.10665871  0.08406573  0.62296566  1
  Fe  Fe145  1  0.10675725  0.08442033  0.12382811  1
  Fe  Fe146  1  0.89383897  0.91631042  0.37713669  1
  Fe  Fe147  1  0.14202919  0.91652181  0.24876675  1
  Fe  Fe148  1  0.85831532  0.08397269  0.50197173  1
  Fe  Fe149  1  0.85791544  0.41639422  0.00206488  1
  Fe  Fe150  1  0.14177955  0.25049807  0.99804331  1
  Fe  Fe151  1  0.14215282  0.58326941  0.99719361  1
  Fe  Fe152  1  0.14226133  0.58285237  0.24881880  1
  Fe  Fe153  1  0.35565184  0.08355605  0.50123724  1
  Fe  Fe154  1  0.39213959  0.25001286  0.37766894  1
  Fe  Fe155  1  0.39141188  0.91709160  0.37736572  1
  Fe  Fe156  1  0.10670294  0.41735208  0.87260347  1
  Fe  Fe157  1  0.89311584  0.24986550  0.62699269  1
  Fe  Fe158  1  0.35651181  0.41574230  0.75201690  1
  Fe  Fe159  1  0.10711510  0.75002144  0.37366609  1
  Fe  Fe160  1  0.89415884  0.58289345  0.12688421  1
  Fe  Fe161  1  0.64332635  0.25009502  0.74839776  1
  Fe  Fe162  1  0.10629793  0.08349701  0.37351233  1
  Fe  Fe163  1  0.89370898  0.25050790  0.12594860  1
  Fe  Fe164  1  0.39247713  0.25004090  0.87602688  1
  Fe  Fe165  1  0.35708563  0.41674538  0.25153044  1
  Fe  Fe166  1  0.60711917  0.41647227  0.12351609  1
  Fe  Fe167  1  0.39147697  0.58299384  0.37632657  1
  Fe  Fe168  1  0.85783326  0.08390143  0.75119428  1
  Fe  Fe169  1  0.89353221  0.91702913  0.62690418  1
  Fe  Fe170  1  0.35667822  0.74963750  0.00104930  1
  Fe  Fe171  1  0.39145924  0.91682113  0.87629289  1
  Fe  Fe172  1  0.85717127  0.41618172  0.50142079  1
  Fe  Fe173  1  0.60726844  0.41630438  0.87305709  1
  Fe  Fe174  1  0.89320577  0.58340192  0.37621800  1
  Fe  Fe175  1  0.85922740  0.08306971  0.25209575  1
  Fe  Fe176  1  0.60639448  0.41663509  0.37387680  1
  Fe  Fe177  1  0.89292463  0.25019143  0.37759600  1
  Fe  Fe178  1  0.10683583  0.41603614  0.62345855  1
  Fe  Fe179  1  0.64394858  0.91774947  0.49792694  1
  Fe  Fe180  1  0.10827537  0.74916640  0.87321184  1
  Fe  Fe181  1  0.35695930  0.41573822  0.50183377  1
  Fe  Fe182  1  0.85761057  0.41631019  0.75215052  1
  Fe  Fe183  1  0.14260169  0.24988142  0.74784845  1
  Fe  Fe184  1  0.10735821  0.41583258  0.12352815  1
  Fe  Fe185  1  0.64409561  0.24957108  0.49824804  1
  Fe  Fe186  1  0.14224498  0.25004404  0.49829463  1
  Fe  Fe187  1  0.14161810  0.91739264  0.49775602  1
  Fe  Fe188  1  0.89343859  0.58354506  0.87683405  1
  Fe  Fe189  1  0.14262380  0.91736994  0.74808364  1
  Fe  Fe190  1  0.39231930  0.58276971  0.87690526  1
  Fe  Fe191  1  0.60799607  0.75005450  0.62337377  1
  P  P192  1  0.05287825  0.25015682  0.10996128  1
  P  P193  1  0.05312171  0.24969125  0.36181992  1
  P  P194  1  0.05421755  0.25026785  0.61102144  1
  P  P195  1  0.05529839  0.25113659  0.85997205  1
  P  P196  1  0.05495006  0.58190201  0.11056791  1
  P  P197  1  0.05273826  0.58357385  0.35970807  1
  P  P198  1  0.05347283  0.58157730  0.61029317  1
  P  P199  1  0.05365421  0.58304395  0.86104938  1
  P  P200  1  0.05486054  0.91796410  0.11143739  1
  P  P201  1  0.05411946  0.91705585  0.36132285  1
  P  P202  1  0.05433276  0.91805952  0.61070083  1
  P  P203  1  0.05459737  0.91574722  0.85894624  1
  P  P204  1  0.55322998  0.25100159  0.11048870  1
  P  P205  1  0.55371506  0.25062275  0.36224940  1
  P  P206  1  0.55590043  0.25007682  0.61009738  1
  P  P207  1  0.55305301  0.25082059  0.85901592  1
  P  P208  1  0.55292515  0.58178044  0.10993709  1
  P  P209  1  0.55134952  0.58195005  0.36016119  1
  P  P210  1  0.55364120  0.58387978  0.60988808  1
  P  P211  1  0.55191344  0.58195010  0.86047120  1
  P  P212  1  0.55305099  0.91705604  0.11031934  1
  P  P213  1  0.55295214  0.91726638  0.36139976  1
  P  P214  1  0.55447842  0.91601953  0.60896354  1
  P  P215  1  0.55128661  0.91693636  0.85993697  1
  P  P216  1  0.44665583  0.08405396  0.14095323  1
  P  P217  1  0.44508216  0.08374454  0.39111098  1
  P  P218  1  0.44532960  0.08316171  0.63843371  1
  P  P219  1  0.44592645  0.08428318  0.88934885  1
  P  P220  1  0.44658100  0.41613545  0.14066711  1
  P  P221  1  0.44489913  0.41633429  0.38961264  1
  P  P222  1  0.44442361  0.41620428  0.63947549  1
  P  P223  1  0.44588820  0.41560989  0.88821612  1
  P  P224  1  0.44460558  0.74955455  0.13917182  1
  P  P225  1  0.44565662  0.75003286  0.38978453  1
  P  P226  1  0.44798115  0.75053937  0.63986290  1
  P  P227  1  0.44534156  0.74979214  0.89054054  1
  P  P228  1  0.94784355  0.08465960  0.14052224  1
  P  P229  1  0.94611137  0.08337428  0.38974634  1
  P  P230  1  0.94592754  0.08404675  0.63889261  1
  P  P231  1  0.94618467  0.08333931  0.88842243  1
  P  P232  1  0.94717945  0.41636784  0.13846816  1
  P  P233  1  0.94614161  0.41675343  0.39043192  1
  P  P234  1  0.94562760  0.41526947  0.63951793  1
  P  P235  1  0.94595000  0.41732866  0.88929941  1
  P  P236  1  0.94742004  0.74923248  0.14008379  1
  P  P237  1  0.94840118  0.74982743  0.39006599  1
  P  P238  1  0.94692371  0.75073881  0.64010413  1
  P  P239  1  0.94911512  0.74908252  0.88995850  1
  P  P240  1  0.19386971  0.08301233  0.23606097  1
  P  P241  1  0.19434710  0.08412219  0.48568697  1
  P  P242  1  0.19559565  0.08370151  0.73415767  1
  P  P243  1  0.19466914  0.08454208  0.98629692  1
  P  P244  1  0.19701652  0.41720325  0.23462665  1
  P  P245  1  0.19613581  0.41540287  0.48644156  1
  P  P246  1  0.19563683  0.41580187  0.73554167  1
  P  P247  1  0.19363293  0.41665553  0.98551548  1
  P  P248  1  0.19445560  0.74982654  0.23665554  1
  P  P249  1  0.19540864  0.75076921  0.48422688  1
  P  P250  1  0.19571444  0.75044297  0.73587422  1
  P  P251  1  0.19694707  0.74881801  0.98415842  1
  P  P252  1  0.69919969  0.08337345  0.23556629  1
  P  P253  1  0.69885240  0.08364229  0.48513342  1
  P  P254  1  0.69816807  0.08441134  0.73467383  1
  P  P255  1  0.69747981  0.08370759  0.98466511  1
  P  P256  1  0.69489205  0.41659273  0.23582536  1
  P  P257  1  0.69743910  0.41551149  0.48404560  1
  P  P258  1  0.69684082  0.41616341  0.73626596  1
  P  P259  1  0.69640608  0.41655254  0.98571062  1
  P  P260  1  0.69720041  0.75003812  0.23497553  1
  P  P261  1  0.69566491  0.75097556  0.48590618  1
  P  P262  1  0.69628207  0.74978127  0.73427118  1
  P  P263  1  0.69741849  0.74979481  0.98459574  1
  P  P264  1  0.30242446  0.25042289  0.01375361  1
  P  P265  1  0.30324978  0.25118513  0.26585685  1
  P  P266  1  0.30311265  0.24948671  0.51377616  1
  P  P267  1  0.30207919  0.25069258  0.76538909  1
  P  P268  1  0.30277258  0.58370847  0.01346936  1
  P  P269  1  0.30178149  0.58197720  0.26535136  1
  P  P270  1  0.30436371  0.58262278  0.51388983  1
  P  P271  1  0.30394236  0.58200822  0.76542383  1
  P  P272  1  0.30419302  0.91579203  0.01394401  1
  P  P273  1  0.30164965  0.91704152  0.26593574  1
  P  P274  1  0.30221276  0.91785325  0.51358420  1
  P  P275  1  0.30209795  0.91729799  0.76495642  1
  P  P276  1  0.80459070  0.25141459  0.01584505  1
  P  P277  1  0.80650062  0.24945485  0.26431222  1
  P  P278  1  0.80504904  0.25041256  0.51405316  1
  P  P279  1  0.80418851  0.25013927  0.76347077  1
  P  P280  1  0.80628861  0.58216585  0.01467685  1
  P  P281  1  0.80562075  0.58316587  0.26452317  1
  P  P282  1  0.80487177  0.58228351  0.51338319  1
  P  P283  1  0.80431070  0.58220769  0.76598145  1
  P  P284  1  0.80382765  0.91650599  0.01511105  1
  P  P285  1  0.80507981  0.91738751  0.26625751  1
  P  P286  1  0.80551769  0.91751931  0.51441982  1
  P  P287  1  0.80504736  0.91754757  0.76344059  1
  O  O288  1  0.05580082  0.25059584  0.18638453  1
  O  O289  1  0.05788081  0.25036390  0.43862095  1
  O  O290  1  0.05867621  0.25035436  0.68764944  1
  O  O291  1  0.05880076  0.25028689  0.93681244  1
  O  O292  1  0.05944258  0.58243412  0.18725430  1
  O  O293  1  0.05628893  0.58261738  0.43643318  1
  O  O294  1  0.05665562  0.58182539  0.68702320  1
  O  O295  1  0.05787601  0.58324069  0.93776023  1
  O  O296  1  0.05830683  0.91691568  0.18819778  1
  O  O297  1  0.05814310  0.91715422  0.43811017  1
  O  O298  1  0.05901437  0.91739860  0.68730547  1
  O  O299  1  0.05728183  0.91668246  0.93585828  1
  O  O300  1  0.55638390  0.25013619  0.18728343  1
  O  O301  1  0.55942564  0.24968868  0.43880079  1
  O  O302  1  0.56054120  0.24996712  0.68681493  1
  O  O303  1  0.55687123  0.25044575  0.93572394  1
  O  O304  1  0.55602204  0.58276621  0.18669963  1
  O  O305  1  0.55541533  0.58255270  0.43682723  1
  O  O306  1  0.55672796  0.58281952  0.68664035  1
  O  O307  1  0.55610090  0.58205585  0.93708725  1
  O  O308  1  0.55659158  0.91711827  0.18711444  1
  O  O309  1  0.55908288  0.91776639  0.43794949  1
  O  O310  1  0.55720520  0.91741140  0.68566108  1
  O  O311  1  0.55524315  0.91716951  0.93665458  1
  O  O312  1  0.44324622  0.08412471  0.06417257  1
  O  O313  1  0.44208885  0.08371302  0.31433589  1
  O  O314  1  0.44002353  0.08357735  0.56180077  1
  O  O315  1  0.44316469  0.08427017  0.81257109  1
  O  O316  1  0.44237965  0.41611139  0.06400253  1
  O  O317  1  0.44067827  0.41631650  0.31290761  1
  O  O318  1  0.43982302  0.41548056  0.56271952  1
  O  O319  1  0.44113606  0.41565849  0.81155241  1
  O  O320  1  0.44003450  0.74933086  0.06246449  1
  O  O321  1  0.44258686  0.75036660  0.31299060  1
  O  O322  1  0.44356841  0.75067213  0.56321308  1
  O  O323  1  0.44314522  0.74984745  0.81367812  1
  O  O324  1  0.94475458  0.08369805  0.06371096  1
  O  O325  1  0.94240020  0.08349208  0.31306238  1
  O  O326  1  0.94161053  0.08412698  0.56216766  1
  O  O327  1  0.94174995  0.08386079  0.81149198  1
  O  O328  1  0.94307741  0.41638475  0.06176996  1
  O  O329  1  0.94387262  0.41658992  0.31372615  1
  O  O330  1  0.94091449  0.41594685  0.56288545  1
  O  O331  1  0.94131979  0.41617285  0.81261372  1
  O  O332  1  0.94462165  0.74998811  0.06333516  1
  O  O333  1  0.94526351  0.74995947  0.31339248  1
  O  O334  1  0.94393739  0.75037471  0.56333142  1
  O  O335  1  0.94513690  0.74959373  0.81329366  1
  O  O336  1  0.19058193  0.08444054  0.06321385  1
  O  O337  1  0.18988703  0.08388758  0.31285851  1
  O  O338  1  0.19005965  0.08414800  0.56241451  1
  O  O339  1  0.19362172  0.08353700  0.81070105  1
  O  O340  1  0.18991403  0.41641689  0.06234845  1
  O  O341  1  0.19350858  0.41648710  0.31138271  1
  O  O342  1  0.19119103  0.41597620  0.56308351  1
  O  O343  1  0.19089779  0.41681887  0.81221047  1
  O  O344  1  0.19340988  0.74930901  0.06097768  1
  O  O345  1  0.19042701  0.74978613  0.31336152  1
  O  O346  1  0.19276162  0.75011277  0.56108389  1
  O  O347  1  0.19187823  0.74941677  0.81259188  1
  O  O348  1  0.69435048  0.08365363  0.06143751  1
  O  O349  1  0.69462323  0.08372900  0.31223487  1
  O  O350  1  0.69508280  0.08347798  0.56164028  1
  O  O351  1  0.69423826  0.08382877  0.81140513  1
  O  O352  1  0.69143721  0.41662707  0.06235915  1
  O  O353  1  0.69012925  0.41667721  0.31252320  1
  O  O354  1  0.69399388  0.41652257  0.56078724  1
  O  O355  1  0.69169572  0.41683009  0.81292567  1
  O  O356  1  0.69398229  0.74945010  0.06135919  1
  O  O357  1  0.69349861  0.74963663  0.31182420  1
  O  O358  1  0.69170125  0.74993485  0.56260946  1
  O  O359  1  0.69292846  0.74969628  0.81110127  1
  O  O360  1  0.30594339  0.25039209  0.18892188  1
  O  O361  1  0.30778021  0.24976341  0.43719963  1
  O  O362  1  0.30596695  0.25018139  0.68856550  1
  O  O363  1  0.30772662  0.25029971  0.93724313  1
  O  O364  1  0.30501814  0.58262692  0.18858300  1
  O  O365  1  0.30828936  0.58307431  0.43713964  1
  O  O366  1  0.30656178  0.58302805  0.68857644  1
  O  O367  1  0.30822363  0.58254446  0.93687612  1
  O  O368  1  0.30543218  0.91713021  0.18914374  1
  O  O369  1  0.30729229  0.91707683  0.43700610  1
  O  O370  1  0.30582940  0.91709757  0.68817271  1
  O  O371  1  0.30829434  0.91684496  0.93721685  1
  O  O372  1  0.81071313  0.25041289  0.18760002  1
  O  O373  1  0.80944427  0.25024386  0.43731422  1
  O  O374  1  0.80868743  0.25025167  0.68682221  1
  O  O375  1  0.80739752  0.25107984  0.93890619  1
  O  O376  1  0.81034237  0.58287491  0.18779218  1
  O  O377  1  0.80948256  0.58338064  0.43667628  1
  O  O378  1  0.80693377  0.58285509  0.68913111  1
  O  O379  1  0.81044605  0.58317093  0.93789572  1
  O  O380  1  0.80794345  0.91651156  0.18947356  1
  O  O381  1  0.81059070  0.91645310  0.43773011  1
  O  O382  1  0.80949078  0.91664890  0.68668110  1
  O  O383  1  0.80721262  0.91629571  0.93831097  1
  O  O384  1  0.23204237  0.25101705  0.03737308  1
  O  O385  1  0.23360271  0.25052096  0.29084687  1
  O  O386  1  0.23278886  0.24991213  0.53767349  1
  O  O387  1  0.23190585  0.24985829  0.78937950  1
  O  O388  1  0.23233789  0.58311403  0.03681203  1
  O  O389  1  0.23176925  0.58239430  0.29021407  1
  O  O390  1  0.23441944  0.58288650  0.53840094  1
  O  O391  1  0.23424560  0.58245678  0.79052127  1
  O  O392  1  0.23418094  0.91608885  0.03826912  1
  O  O393  1  0.23144889  0.91703807  0.28997431  1
  O  O394  1  0.23172984  0.91775761  0.53692820  1
  O  O395  1  0.23201806  0.91737398  0.78933615  1
  O  O396  1  0.73506408  0.25035686  0.04110330  1
  O  O397  1  0.73636119  0.25008870  0.28832831  1
  O  O398  1  0.73469786  0.25005287  0.53781053  1
  O  O399  1  0.73406394  0.25051614  0.78785161  1
  O  O400  1  0.73621215  0.58273239  0.03874982  1
  O  O401  1  0.73544941  0.58313859  0.28827015  1
  O  O402  1  0.73483395  0.58220346  0.53743325  1
  O  O403  1  0.73470314  0.58266080  0.79135376  1
  O  O404  1  0.73426395  0.91676828  0.04036484  1
  O  O405  1  0.73545239  0.91727048  0.29160834  1
  O  O406  1  0.73505917  0.91733709  0.53769409  1
  O  O407  1  0.73511513  0.91743984  0.78767955  1
  O  O408  1  0.26390728  0.08392326  0.21171553  1
  O  O409  1  0.26462911  0.08368395  0.46171971  1
  O  O410  1  0.26510185  0.08409533  0.70809137  1
  O  O411  1  0.26458487  0.08366866  0.96195001  1
  O  O412  1  0.26696582  0.41675646  0.20968210  1
  O  O413  1  0.26650671  0.41566815  0.46289317  1
  O  O414  1  0.26603068  0.41616663  0.71196699  1
  O  O415  1  0.26367758  0.41643502  0.96137321  1
  O  O416  1  0.26432536  0.74956513  0.21194289  1
  O  O417  1  0.26502655  0.75032951  0.45905749  1
  O  O418  1  0.26555125  0.75036583  0.71097253  1
  O  O419  1  0.26687721  0.74963678  0.95956974  1
  O  O420  1  0.76938999  0.08326067  0.21160386  1
  O  O421  1  0.76910079  0.08416270  0.46090676  1
  O  O422  1  0.76824031  0.08396369  0.71004520  1
  O  O423  1  0.76719219  0.08427248  0.95960582  1
  O  O424  1  0.76521046  0.41660894  0.21248741  1
  O  O425  1  0.76755022  0.41600435  0.45958413  1
  O  O426  1  0.76721811  0.41629351  0.71261493  1
  O  O427  1  0.76692090  0.41644377  0.96241868  1
  O  O428  1  0.76701382  0.74999336  0.21041259  1
  O  O429  1  0.76573928  0.75053006  0.46163188  1
  O  O430  1  0.76609269  0.74953776  0.70941604  1
  O  O431  1  0.76713346  0.74992061  0.95958722  1
  O  O432  1  0.01770277  0.08440216  0.16560139  1
  O  O433  1  0.01639939  0.08319661  0.41392923  1
  O  O434  1  0.01635404  0.08424381  0.66249350  1
  O  O435  1  0.01606906  0.08356491  0.91220131  1
  O  O436  1  0.01731569  0.41618850  0.16303023  1
  O  O437  1  0.01577209  0.41653567  0.41601473  1
  O  O438  1  0.01601958  0.41566592  0.66316464  1
  O  O439  1  0.01636539  0.41705155  0.91268681  1
  O  O440  1  0.01708067  0.74936631  0.16525588  1
  O  O441  1  0.01831074  0.75020711  0.41524523  1
  O  O442  1  0.01662401  0.74963407  0.66506857  1
  O  O443  1  0.01903449  0.74941120  0.91485131  1
  O  O444  1  0.51617291  0.08411269  0.16641408  1
  O  O445  1  0.51493293  0.08383121  0.41603504  1
  O  O446  1  0.51550200  0.08301342  0.66179580  1
  O  O447  1  0.51548089  0.08413308  0.91500939  1
  O  O448  1  0.51661555  0.41625340  0.16497811  1
  O  O449  1  0.51520022  0.41618278  0.41382979  1
  O  O450  1  0.51471106  0.41657430  0.66270058  1
  O  O451  1  0.51618907  0.41575790  0.91216750  1
  O  O452  1  0.51460100  0.74966156  0.16330943  1
  O  O453  1  0.51538097  0.74966536  0.41484303  1
  O  O454  1  0.51793653  0.75044044  0.66430840  1
  O  O455  1  0.51488580  0.74963710  0.91631594  1
  O  O456  1  0.48367318  0.25081651  0.08500395  1
  O  O457  1  0.48310260  0.25037850  0.33941529  1
  O  O458  1  0.48548690  0.25029412  0.58694703  1
  O  O459  1  0.48298910  0.25031835  0.83441684  1
  O  O460  1  0.48323817  0.58162964  0.08479245  1
  O  O461  1  0.48124507  0.58236013  0.33572640  1
  O  O462  1  0.48390465  0.58316649  0.58490006  1
  O  O463  1  0.48177370  0.58276400  0.83611844  1
  O  O464  1  0.48320755  0.91703564  0.08570018  1
  O  O465  1  0.48229351  0.91734434  0.33871912  1
  O  O466  1  0.48464962  0.91645062  0.58393446  1
  O  O467  1  0.48117108  0.91675188  0.83545283  1
  O  O468  1  0.98302080  0.25041032  0.08436589  1
  O  O469  1  0.98276441  0.25007881  0.33831171  1
  O  O470  1  0.98377897  0.24975078  0.58740739  1
  O  O471  1  0.98519529  0.25050357  0.83575597  1
  O  O472  1  0.98454914  0.58272924  0.08702905  1
  O  O473  1  0.98271018  0.58274626  0.33511461  1
  O  O474  1  0.98378507  0.58279222  0.58536068  1
  O  O475  1  0.98353904  0.58246425  0.83668192  1
  O  O476  1  0.98517157  0.91742478  0.08632837  1
  O  O477  1  0.98377707  0.91721240  0.33742268  1
  O  O478  1  0.98386920  0.91760890  0.58721831  1
  O  O479  1  0.98498085  0.91639904  0.83366329  1
  O  O480  1  0.08727881  0.31495865  0.07710600  1
  O  O481  1  0.08638952  0.31449109  0.32816894  1
  O  O482  1  0.08733951  0.31539204  0.57750292  1
  O  O483  1  0.08843143  0.31660540  0.82741839  1
  O  O484  1  0.08869556  0.64669787  0.07697974  1
  O  O485  1  0.08634882  0.64882185  0.32736045  1
  O  O486  1  0.08813492  0.64636582  0.57800142  1
  O  O487  1  0.08700222  0.64806113  0.82786956  1
  O  O488  1  0.08832691  0.98334493  0.07915328  1
  O  O489  1  0.08756460  0.98212517  0.32829607  1
  O  O490  1  0.08723476  0.98331817  0.57735624  1
  O  O491  1  0.08911719  0.98045883  0.82629692  1
  O  O492  1  0.58722917  0.31629044  0.07834583  1
  O  O493  1  0.58660642  0.31584493  0.32893414  1
  O  O494  1  0.58933739  0.31506239  0.57685242  1
  O  O495  1  0.58701944  0.31594726  0.82640666  1
  O  O496  1  0.58695945  0.64674746  0.07715417  1
  O  O497  1  0.58530020  0.64683496  0.32711127  1
  O  O498  1  0.58731727  0.64919856  0.57775260  1
  O  O499  1  0.58596033  0.64695806  0.82787907  1
  O  O500  1  0.58687875  0.98223522  0.07781101  1
  O  O501  1  0.58600117  0.98230766  0.32770523  1
  O  O502  1  0.58903053  0.98070945  0.57589533  1
  O  O503  1  0.58502273  0.98193016  0.82692204  1
  O  O504  1  0.41227059  0.01906884  0.17327761  1
  O  O505  1  0.41069884  0.01875259  0.42346514  1
  O  O506  1  0.41183646  0.01816753  0.67152501  1
  O  O507  1  0.41153901  0.01921376  0.92151624  1
  O  O508  1  0.41257511  0.35133320  0.17371831  1
  O  O509  1  0.41132406  0.35128135  0.42300210  1
  O  O510  1  0.41114617  0.35122354  0.67312143  1
  O  O511  1  0.41266685  0.35042341  0.92150614  1
  O  O512  1  0.41107373  0.68438287  0.17216158  1
  O  O513  1  0.41154267  0.68474892  0.42169000  1
  O  O514  1  0.41407641  0.68554958  0.67262793  1
  O  O515  1  0.41086058  0.68465353  0.92259483  1
  O  O516  1  0.91369231  0.01986513  0.17354180  1
  O  O517  1  0.91259375  0.01838618  0.42287421  1
  O  O518  1  0.91264454  0.01898898  0.67206621  1
  O  O519  1  0.91293608  0.01822678  0.92136844  1
  O  O520  1  0.91363119  0.35144058  0.17161981  1
  O  O521  1  0.91168776  0.35182191  0.42290080  1
  O  O522  1  0.91255024  0.34996771  0.67270639  1
  O  O523  1  0.91255459  0.35245311  0.92305691  1
  O  O524  1  0.91350553  0.68395591  0.17204375  1
  O  O525  1  0.91463561  0.68459390  0.42246798  1
  O  O526  1  0.91244881  0.68587762  0.67241684  1
  O  O527  1  0.91528162  0.68398588  0.92243727  1
  O  O528  1  0.16071560  0.01759225  0.20347451  1
  O  O529  1  0.16054817  0.01927779  0.45251725  1
  O  O530  1  0.16122215  0.01866308  0.70179661  1
  O  O531  1  0.16081587  0.01963142  0.95340318  1
  O  O532  1  0.16268691  0.35235804  0.20189302  1
  O  O533  1  0.16298920  0.35037805  0.45303804  1
  O  O534  1  0.16240804  0.35055212  0.70247720  1
  O  O535  1  0.15973560  0.35184256  0.95248134  1
  O  O536  1  0.16099340  0.68460894  0.20377495  1
  O  O537  1  0.16085592  0.68588623  0.45182781  1
  O  O538  1  0.16211060  0.68537067  0.70277985  1
  O  O539  1  0.16319557  0.68369227  0.95153454  1
  O  O540  1  0.66545858  0.01837757  0.20285962  1
  O  O541  1  0.66541472  0.01845116  0.45215778  1
  O  O542  1  0.66423279  0.01948096  0.70185965  1
  O  O543  1  0.66364015  0.01864941  0.95196649  1
  O  O544  1  0.66166090  0.35147658  0.20254769  1
  O  O545  1  0.66377034  0.35019505  0.45174195  1
  O  O546  1  0.66365092  0.35114290  0.70296251  1
  O  O547  1  0.66305805  0.35158412  0.95217422  1
  O  O548  1  0.66324434  0.68500552  0.20233962  1
  O  O549  1  0.66201856  0.68607894  0.45244390  1
  O  O550  1  0.66203101  0.68474117  0.70187139  1
  O  O551  1  0.66352042  0.68459114  0.95211822  1
  O  O552  1  0.33585347  0.31539022  0.04712233  1
  O  O553  1  0.33719793  0.31653971  0.29777941  1
  O  O554  1  0.33673918  0.31424206  0.54727455  1
  O  O555  1  0.33546400  0.31583996  0.79827955  1
  O  O556  1  0.33553703  0.64895972  0.04669934  1
  O  O557  1  0.33601524  0.64673290  0.29824808  1
  O  O558  1  0.33783554  0.64784298  0.54689766  1
  O  O559  1  0.33851338  0.64680940  0.79783697  1
  O  O560  1  0.33760633  0.98078939  0.04738933  1
  O  O561  1  0.33538881  0.98201394  0.29880281  1
  O  O562  1  0.33530457  0.98296964  0.54678439  1
  O  O563  1  0.33589410  0.98231628  0.79768004  1
  O  O564  1  0.83843157  0.31669206  0.04813369  1
  O  O565  1  0.84027398  0.31426099  0.29778389  1
  O  O566  1  0.83814755  0.31564159  0.54729261  1
  O  O567  1  0.83783413  0.31504221  0.79683521  1
  O  O568  1  0.84048775  0.64675726  0.04798186  1
  O  O569  1  0.83923900  0.64805749  0.29790544  1
  O  O570  1  0.83825012  0.64720956  0.54699244  1
  O  O571  1  0.83900535  0.64705579  0.79840921  1
  O  O572  1  0.83815374  0.98162272  0.04730993  1
  O  O573  1  0.83959227  0.98248469  0.29806058  1
  O  O574  1  0.83875183  0.98283479  0.54728488  1
  O  O575  1  0.83864678  0.98285196  0.79586215  1
  O  O576  1  0.41227079  0.14909894  0.17311307  1
  O  O577  1  0.41083412  0.14883800  0.42348109  1
  O  O578  1  0.41221721  0.14825488  0.67204037  1
  O  O579  1  0.41195430  0.14968911  0.92157382  1
  O  O580  1  0.41243215  0.48105060  0.17354395  1
  O  O581  1  0.41131901  0.48139227  0.42263295  1
  O  O582  1  0.41065223  0.48106817  0.67239914  1
  O  O583  1  0.41240801  0.48056723  0.92170434  1
  O  O584  1  0.41088855  0.81449662  0.17232267  1
  O  O585  1  0.41183661  0.81521491  0.42247744  1
  O  O586  1  0.41405839  0.81552992  0.67262953  1
  O  O587  1  0.41085453  0.81490639  0.92242751  1
  O  O588  1  0.91397173  0.14991124  0.17256603  1
  O  O589  1  0.91267217  0.14841868  0.42307635  1
  O  O590  1  0.91247398  0.14905520  0.67227017  1
  O  O591  1  0.91269814  0.14841125  0.92153837  1
  O  O592  1  0.91374464  0.48141092  0.17164327  1
  O  O593  1  0.91191327  0.48187780  0.42257301  1
  O  O594  1  0.91198952  0.47999302  0.67319052  1
  O  O595  1  0.91271340  0.48235630  0.92239446  1
  O  O596  1  0.91348279  0.81426164  0.17271897  1
  O  O597  1  0.91434301  0.81479027  0.42266091  1
  O  O598  1  0.91360815  0.81615661  0.67241026  1
  O  O599  1  0.91526459  0.81413250  0.92276116  1
  O  O600  1  0.08683407  0.18493028  0.07742108  1
  O  O601  1  0.08611809  0.18456878  0.32876036  1
  O  O602  1  0.08783866  0.18540939  0.57761135  1
  O  O603  1  0.08934099  0.18662767  0.82665195  1
  O  O604  1  0.08781979  0.51673794  0.07728395  1
  O  O605  1  0.08704284  0.51881835  0.32669747  1
  O  O606  1  0.08676347  0.51615867  0.57772855  1
  O  O607  1  0.08726013  0.51794368  0.82803654  1
  O  O608  1  0.08894107  0.85310017  0.07835016  1
  O  O609  1  0.08746096  0.85202873  0.32811602  1
  O  O610  1  0.08793834  0.85325901  0.57712322  1
  O  O611  1  0.08860780  0.85037101  0.82726618  1
  O  O612  1  0.58751974  0.18611122  0.07787692  1
  O  O613  1  0.58677987  0.18574314  0.32812698  1
  O  O614  1  0.58925552  0.18512790  0.57662616  1
  O  O615  1  0.58739921  0.18598894  0.82615480  1
  O  O616  1  0.58711931  0.51652660  0.07803077  1
  O  O617  1  0.58507149  0.51671537  0.32786649  1
  O  O618  1  0.58783074  0.51896852  0.57705640  1
  O  O619  1  0.58527882  0.51683408  0.82732847  1
  O  O620  1  0.58683036  0.85190658  0.07770706  1
  O  O621  1  0.58581931  0.85210988  0.32786087  1
  O  O622  1  0.58856836  0.85070083  0.57721097  1
  O  O623  1  0.58532096  0.85189837  0.82755369  1
  O  O624  1  0.33526720  0.18538450  0.04759334  1
  O  O625  1  0.33792239  0.18654834  0.29855608  1
  O  O626  1  0.33594765  0.18413127  0.54710370  1
  O  O627  1  0.33632116  0.18598156  0.79822609  1
  O  O628  1  0.33595400  0.51874593  0.04726869  1
  O  O629  1  0.33575218  0.51679956  0.29758812  1
  O  O630  1  0.33785010  0.51744560  0.54652338  1
  O  O631  1  0.33778733  0.51668221  0.79750052  1
  O  O632  1  0.33727532  0.85031653  0.04647820  1
  O  O633  1  0.33547649  0.85205842  0.29866151  1
  O  O634  1  0.33521812  0.85280338  0.54739422  1
  O  O635  1  0.33606398  0.85237993  0.79774128  1
  O  O636  1  0.83975635  0.18681530  0.04798962  1
  O  O637  1  0.83984672  0.18426410  0.29725273  1
  O  O638  1  0.83885557  0.18563408  0.54742090  1
  O  O639  1  0.83751654  0.18494423  0.79655625  1
  O  O640  1  0.83953934  0.51669660  0.04740828  1
  O  O641  1  0.83921407  0.51818077  0.29766265  1
  O  O642  1  0.83823810  0.51691959  0.54609136  1
  O  O643  1  0.83853102  0.51704383  0.79791758  1
  O  O644  1  0.83799070  0.85152122  0.04757803  1
  O  O645  1  0.83946071  0.85251294  0.29904916  1
  O  O646  1  0.83894134  0.85271516  0.54821044  1
  O  O647  1  0.83845026  0.85247391  0.79687562  1
  O  O648  1  0.15979190  0.14774699  0.20292437  1
  O  O649  1  0.16112125  0.14929599  0.45242916  1
  O  O650  1  0.16085462  0.14873355  0.70206619  1
  O  O651  1  0.16144891  0.14968753  0.95330852  1
  O  O652  1  0.16293918  0.48225943  0.20232543  1
  O  O653  1  0.16305354  0.48036204  0.45271274  1
  O  O654  1  0.16203340  0.48048420  0.70174219  1
  O  O655  1  0.16022774  0.48187086  0.95247198  1
  O  O656  1  0.16119196  0.81517405  0.20378127  1
  O  O657  1  0.16117099  0.81593806  0.45233899  1
  O  O658  1  0.16196342  0.81569154  0.70350495  1
  O  O659  1  0.16250132  0.81355841  0.95154828  1
  O  O660  1  0.66568416  0.14844763  0.20249957  1
  O  O661  1  0.66499083  0.14862110  0.45225770  1
  O  O662  1  0.66464182  0.14958651  0.70212112  1
  O  O663  1  0.66321324  0.14878493  0.95240683  1
  O  O664  1  0.66153335  0.48146945  0.20229899  1
  O  O665  1  0.66301686  0.48013184  0.45093839  1
  O  O666  1  0.66372029  0.48121060  0.70259819  1
  O  O667  1  0.66311650  0.48147332  0.95204163  1
  O  O668  1  0.66331521  0.81529625  0.20291951  1
  O  O669  1  0.66250020  0.81653531  0.45344582  1
  O  O670  1  0.66221638  0.81484454  0.70189540  1
  O  O671  1  0.66320674  0.81477134  0.95220661  1
