# generated using pymatgen
data_Na2MnFe(PO4)2
_symmetry_space_group_name_H-M   'P 1'
_cell_length_a   21.08953273
_cell_length_b   18.94242430
_cell_length_c   20.04753908
_cell_angle_alpha   90.00027034
_cell_angle_beta   90.00631214
_cell_angle_gamma   90.00215026
_symmetry_Int_Tables_number   1
_chemical_formula_structural   Na2MnFe(PO4)2
_chemical_formula_sum   'Na96 Mn48 Fe48 P96 O384'
_cell_volume   8008.72872991
_cell_formula_units_Z   48
loop_
 _symmetry_equiv_pos_site_id
 _symmetry_equiv_pos_as_xyz
  1  'x, y, z'
loop_
 _atom_site_type_symbol
 _atom_site_label
 _atom_site_symmetry_multiplicity
 _atom_site_fract_x
 _atom_site_fract_y
 _atom_site_fract_z
 _atom_site_occupancy
  Na  Na0  1  -0.00099169  -0.00025671  -0.00016290  1
  Na  Na1  1  0.00030825  0.00069545  0.24927573  1
  Na  Na2  1  0.00069047  -0.00005805  0.50117041  1
  Na  Na3  1  0.00182785  0.00106155  0.74949828  1
  Na  Na4  1  -0.00028442  0.33291331  0.00061709  1
  Na  Na5  1  -0.00007374  0.33351918  0.24970088  1
  Na  Na6  1  -0.00161864  0.33250119  0.49964521  1
  Na  Na7  1  0.00037712  0.33366315  0.75011664  1
  Na  Na8  1  -0.00205698  0.66638740  -0.00030999  1
  Na  Na9  1  -0.00189786  0.66627786  0.25029355  1
  Na  Na10  1  -0.00131689  0.66605098  0.49942108  1
  Na  Na11  1  0.00000401  0.66697665  0.74957329  1
  Na  Na12  1  0.50040779  -0.00071047  0.00009357  1
  Na  Na13  1  0.50174802  -0.00039620  0.25011016  1
  Na  Na14  1  0.50118281  -0.00024916  0.50043447  1
  Na  Na15  1  0.49995223  -0.00076457  0.75012335  1
  Na  Na16  1  0.50128823  0.33309164  0.00048100  1
  Na  Na17  1  0.50255657  0.33406010  0.24970094  1
  Na  Na18  1  0.49897587  0.33265391  0.50016594  1
  Na  Na19  1  0.49878546  0.33245415  0.74961572  1
  Na  Na20  1  0.49918372  0.66600906  0.00044854  1
  Na  Na21  1  0.49781690  0.66565833  0.25044964  1
  Na  Na22  1  0.49841291  0.66632838  0.49976315  1
  Na  Na23  1  0.50118949  0.66726429  0.74939807  1
  Na  Na24  1  0.24834571  -0.00027078  0.12496449  1
  Na  Na25  1  0.24848991  -0.00014035  0.37445721  1
  Na  Na26  1  0.25097643  0.00047894  0.62544078  1
  Na  Na27  1  0.24960066  0.00006969  0.87641568  1
  Na  Na28  1  0.24825902  0.33230597  0.12504177  1
  Na  Na29  1  0.24942220  0.33335503  0.37498659  1
  Na  Na30  1  0.25107105  0.33321700  0.62604079  1
  Na  Na31  1  0.25243283  0.33371765  0.87412845  1
  Na  Na32  1  0.25168970  0.66649735  0.12515223  1
  Na  Na33  1  0.25065177  0.66632446  0.37536943  1
  Na  Na34  1  0.24915126  0.66656812  0.62422150  1
  Na  Na35  1  0.24879828  0.66602205  0.87465595  1
  Na  Na36  1  0.75055017  -0.00007696  0.12548582  1
  Na  Na37  1  0.74953518  -0.00074391  0.37493060  1
  Na  Na38  1  0.74781812  -0.00119678  0.62419461  1
  Na  Na39  1  0.74903332  -0.00066056  0.87464969  1
  Na  Na40  1  0.74794369  0.33250856  0.12557054  1
  Na  Na41  1  0.75069210  0.33360119  0.37513791  1
  Na  Na42  1  0.74979565  0.33254054  0.62493713  1
  Na  Na43  1  0.74954634  0.33354205  0.87470809  1
  Na  Na44  1  0.75318973  0.66763296  0.12527683  1
  Na  Na45  1  0.75207277  0.66674574  0.37585459  1
  Na  Na46  1  0.75101688  0.66647495  0.62383011  1
  Na  Na47  1  0.75110871  0.66699684  0.87467144  1
  Na  Na48  1  0.00252753  0.16577178  0.00051579  1
  Na  Na49  1  0.00175170  0.16663267  0.24921088  1
  Na  Na50  1  0.00104588  0.16716928  0.49963191  1
  Na  Na51  1  -0.00005928  0.16768749  0.75065250  1
  Na  Na52  1  -0.00239961  0.50123374  0.00072256  1
  Na  Na53  1  -0.00059452  0.50061047  0.24993077  1
  Na  Na54  1  -0.00104203  0.50107790  0.50020004  1
  Na  Na55  1  0.00050415  0.49993459  0.74897576  1
  Na  Na56  1  -0.00221445  0.83327332  -0.00085709  1
  Na  Na57  1  -0.00443015  0.83416163  0.24977318  1
  Na  Na58  1  -0.00185810  0.83309634  0.50053280  1
  Na  Na59  1  0.00070452  0.83234750  0.74936802  1
  Na  Na60  1  0.50079747  0.16691398  -0.00011989  1
  Na  Na61  1  0.50133249  0.16717663  0.25024877  1
  Na  Na62  1  0.49995829  0.16726741  0.50015164  1
  Na  Na63  1  0.49864677  0.16748772  0.75057410  1
  Na  Na64  1  0.49875501  0.50063601  0.00045179  1
  Na  Na65  1  0.50044733  0.49975875  0.24942388  1
  Na  Na66  1  0.49729469  0.50159126  0.50054842  1
  Na  Na67  1  0.50076755  0.49942265  0.74903218  1
  Na  Na68  1  0.50116624  0.83368519  0.00069265  1
  Na  Na69  1  0.50036188  0.83331076  0.25066667  1
  Na  Na70  1  0.50012801  0.83321101  0.49946091  1
  Na  Na71  1  0.50115035  0.83328904  0.74951391  1
  Na  Na72  1  0.24689538  0.16696468  0.12453742  1
  Na  Na73  1  0.24658745  0.16763479  0.37448051  1
  Na  Na74  1  0.25125671  0.16607471  0.62612292  1
  Na  Na75  1  0.24996813  0.16676499  0.87555321  1
  Na  Na76  1  0.25182899  0.49952922  0.12548499  1
  Na  Na77  1  0.25071930  0.50063032  0.37482839  1
  Na  Na78  1  0.25101399  0.50054196  0.62475260  1
  Na  Na79  1  0.24994366  0.50084362  0.87457197  1
  Na  Na80  1  0.25073066  0.83269496  0.12466239  1
  Na  Na81  1  0.25178156  0.83136844  0.37570446  1
  Na  Na82  1  0.24772238  0.83432127  0.62513958  1
  Na  Na83  1  0.25010561  0.83316070  0.87546629  1
  Na  Na84  1  0.75003918  0.16697161  0.12539779  1
  Na  Na85  1  0.74925411  0.16806186  0.37586814  1
  Na  Na86  1  0.75013071  0.16720256  0.62452388  1
  Na  Na87  1  0.74895103  0.16753144  0.87427865  1
  Na  Na88  1  0.75037405  0.50000677  0.12530641  1
  Na  Na89  1  0.75137613  0.49993925  0.37490606  1
  Na  Na90  1  0.75197158  0.49956105  0.62433922  1
  Na  Na91  1  0.74938060  0.50059160  0.87480503  1
  Na  Na92  1  0.75125824  0.83363936  0.12573441  1
  Na  Na93  1  0.75147763  0.83262535  0.37531533  1
  Na  Na94  1  0.74825071  0.83357042  0.62369973  1
  Na  Na95  1  0.75078859  0.83284777  0.87496090  1
  Mn  Mn96  1  0.10778237  0.41706732  0.62210621  1
  Mn  Mn97  1  0.60886172  0.74979545  0.87285646  1
  Mn  Mn98  1  0.14108726  0.91548403  0.24771638  1
  Mn  Mn99  1  0.89174898  0.91747378  0.87622075  1
  Mn  Mn100  1  0.10676892  0.75039201  0.37272769  1
  Mn  Mn101  1  0.85810671  0.08361957  0.50226854  1
  Mn  Mn102  1  0.10723936  0.75030476  0.87269522  1
  Mn  Mn103  1  0.10847231  0.08360896  0.62303469  1
  Mn  Mn104  1  0.60779513  0.41747854  0.37383676  1
  Mn  Mn105  1  0.35733504  0.08357640  0.50180461  1
  Mn  Mn106  1  0.10663286  0.75040084  0.12344508  1
  Mn  Mn107  1  0.14185340  0.91664164  0.49702237  1
  Mn  Mn108  1  0.85744644  0.41688666  0.75229522  1
  Mn  Mn109  1  0.89239109  0.24996927  0.12674212  1
  Mn  Mn110  1  0.10774147  0.41723418  0.12219810  1
  Mn  Mn111  1  0.60726917  0.08310839  0.62302485  1
  Mn  Mn112  1  0.14130253  0.91631147  0.99766677  1
  Mn  Mn113  1  0.35725765  0.08370594  0.00275243  1
  Mn  Mn114  1  0.39167339  0.25007167  0.37703238  1
  Mn  Mn115  1  0.64280457  0.58383623  0.99804700  1
  Mn  Mn116  1  0.85722294  0.41671237  0.25230302  1
  Mn  Mn117  1  0.14217320  0.58260287  0.99850055  1
  Mn  Mn118  1  0.39255155  0.91654445  0.62741882  1
  Mn  Mn119  1  0.14321542  0.24996855  0.74788510  1
  Mn  Mn120  1  0.35794581  0.41631605  0.25234506  1
  Mn  Mn121  1  0.10793654  0.41672944  0.87343676  1
  Mn  Mn122  1  0.60790250  0.08333428  0.87283068  1
  Mn  Mn123  1  0.39224136  0.58338828  0.87665331  1
  Mn  Mn124  1  0.89163640  0.58289441  0.87637011  1
  Mn  Mn125  1  0.89211197  0.91692264  0.62783018  1
  Mn  Mn126  1  0.64287912  0.58287280  0.49754418  1
  Mn  Mn127  1  0.85821168  0.08360622  0.25294771  1
  Mn  Mn128  1  0.35836098  0.74939899  0.00217800  1
  Mn  Mn129  1  0.60736037  0.41704074  0.62213589  1
  Mn  Mn130  1  0.10741599  0.41667107  0.37329354  1
  Mn  Mn131  1  0.39270821  0.91650648  0.12767729  1
  Mn  Mn132  1  0.89194802  0.24977928  0.87739702  1
  Mn  Mn133  1  0.85729390  0.08267848  0.75213902  1
  Mn  Mn134  1  0.60780948  0.41688658  0.87316032  1
  Mn  Mn135  1  0.39266274  0.24990805  0.12742801  1
  Mn  Mn136  1  0.60898953  0.08364802  0.12255038  1
  Mn  Mn137  1  0.35674093  0.08291255  0.25212830  1
  Mn  Mn138  1  0.60763122  0.74904157  0.37278366  1
  Mn  Mn139  1  0.39243469  0.91661952  0.37713937  1
  Mn  Mn140  1  0.35794650  0.41669341  0.75259117  1
  Mn  Mn141  1  0.60848147  0.08351273  0.37277383  1
  Mn  Mn142  1  0.60837642  0.74931477  0.12344995  1
  Mn  Mn143  1  0.35750588  0.75093431  0.75188362  1
  Fe  Fe144  1  0.89189889  0.58333197  0.12729681  1
  Fe  Fe145  1  0.89267876  0.25024142  0.62658037  1
  Fe  Fe146  1  0.64381684  0.91700812  0.99854330  1
  Fe  Fe147  1  0.64208115  0.25013623  0.74759942  1
  Fe  Fe148  1  0.85761324  0.08365120  0.00105905  1
  Fe  Fe149  1  0.14219490  0.58399909  0.74747429  1
  Fe  Fe150  1  0.39329117  0.24956025  0.87766647  1
  Fe  Fe151  1  0.39208182  0.58309021  0.37666833  1
  Fe  Fe152  1  0.14154579  0.25086702  0.24825495  1
  Fe  Fe153  1  0.85704929  0.74983438  0.25204179  1
  Fe  Fe154  1  0.85649445  0.75013981  0.75042919  1
  Fe  Fe155  1  0.64268059  0.58374498  0.74741288  1
  Fe  Fe156  1  0.10640149  0.08259255  0.12303786  1
  Fe  Fe157  1  0.64386884  0.91625899  0.24846063  1
  Fe  Fe158  1  0.39292229  0.91667797  0.87694051  1
  Fe  Fe159  1  0.35701493  0.41658361  0.50141389  1
  Fe  Fe160  1  0.35782055  0.41627490  0.00189794  1
  Fe  Fe161  1  0.10679098  0.08307958  0.37367017  1
  Fe  Fe162  1  0.85717886  0.74970197  0.50235599  1
  Fe  Fe163  1  0.14323453  0.58299495  0.49810206  1
  Fe  Fe164  1  0.14278675  0.58343061  0.24832603  1
  Fe  Fe165  1  0.64204855  0.91619727  0.74838144  1
  Fe  Fe166  1  0.85702303  0.41643056  0.00182611  1
  Fe  Fe167  1  0.64298545  0.25032065  0.24870231  1
  Fe  Fe168  1  0.85761226  0.75029254  0.00176276  1
  Fe  Fe169  1  0.89168605  0.91687632  0.12648874  1
  Fe  Fe170  1  0.14309761  0.91634375  0.74892945  1
  Fe  Fe171  1  0.60756802  0.41722495  0.12300174  1
  Fe  Fe172  1  0.35689751  0.74965165  0.50258450  1
  Fe  Fe173  1  0.85794984  0.41662921  0.50170111  1
  Fe  Fe174  1  0.39258114  0.58371694  0.62695933  1
  Fe  Fe175  1  0.64325650  0.24957622  0.99821281  1
  Fe  Fe176  1  0.64315755  0.91663045  0.49784440  1
  Fe  Fe177  1  0.14308453  0.25078526  0.99771404  1
  Fe  Fe178  1  0.35761050  0.08235472  0.75251217  1
  Fe  Fe179  1  0.60761357  0.74939242  0.62295222  1
  Fe  Fe180  1  0.39296025  0.58316854  0.12730817  1
  Fe  Fe181  1  0.64299712  0.25004072  0.49849002  1
  Fe  Fe182  1  0.89251637  0.58303779  0.37685944  1
  Fe  Fe183  1  0.14246222  0.25096750  0.49878606  1
  Fe  Fe184  1  0.35736707  0.75005882  0.25165204  1
  Fe  Fe185  1  0.39236566  0.24996743  0.62633739  1
  Fe  Fe186  1  0.64285009  0.58353400  0.24841505  1
  Fe  Fe187  1  0.89215413  0.91731805  0.37709019  1
  Fe  Fe188  1  0.10671097  0.74963271  0.62313311  1
  Fe  Fe189  1  0.89284172  0.24997012  0.37693684  1
  Fe  Fe190  1  0.10734002  0.08319147  0.87336043  1
  Fe  Fe191  1  0.89327279  0.58310917  0.62678601  1
  P  P192  1  0.05540326  0.24969743  0.11036900  1
  P  P193  1  0.05368898  0.24986968  0.36080798  1
  P  P194  1  0.05301147  0.25042712  0.60955031  1
  P  P195  1  0.05468108  0.24969930  0.86120845  1
  P  P196  1  0.05247659  0.58410287  0.11125299  1
  P  P197  1  0.05367603  0.58341735  0.36070682  1
  P  P198  1  0.05417050  0.58434074  0.61008200  1
  P  P199  1  0.05358110  0.58319746  0.85917382  1
  P  P200  1  0.05107038  0.91646220  0.10994155  1
  P  P201  1  0.05110087  0.91669509  0.36007862  1
  P  P202  1  0.05468583  0.91560230  0.61131378  1
  P  P203  1  0.05346925  0.91750596  0.85906082  1
  P  P204  1  0.55589679  0.25080911  0.11048545  1
  P  P205  1  0.55510894  0.25062493  0.36069101  1
  P  P206  1  0.55356494  0.24998830  0.61047218  1
  P  P207  1  0.55424237  0.25001406  0.86061529  1
  P  P208  1  0.55370855  0.58294118  0.11135160  1
  P  P209  1  0.55238945  0.58321979  0.35956398  1
  P  P210  1  0.55348203  0.58416088  0.61057550  1
  P  P211  1  0.55409417  0.58327597  0.85908892  1
  P  P212  1  0.55609452  0.91630969  0.11063900  1
  P  P213  1  0.55571844  0.91615299  0.36042515  1
  P  P214  1  0.55555751  0.91543877  0.61030471  1
  P  P215  1  0.55441998  0.91666341  0.86074910  1
  P  P216  1  0.44729196  0.08346738  0.14047042  1
  P  P217  1  0.44704569  0.08333523  0.39015167  1
  P  P218  1  0.44569474  0.08391707  0.64072886  1
  P  P219  1  0.44554127  0.08284847  0.88921384  1
  P  P220  1  0.44688423  0.41679704  0.13895344  1
  P  P221  1  0.44590052  0.41732498  0.39065602  1
  P  P222  1  0.44473250  0.41676666  0.63840482  1
  P  P223  1  0.44617402  0.41581811  0.89070790  1
  P  P224  1  0.44635681  0.74933923  0.14094893  1
  P  P225  1  0.44448188  0.74911312  0.38964074  1
  P  P226  1  0.44670986  0.74945232  0.63878949  1
  P  P227  1  0.44734959  0.75099886  0.88983767  1
  P  P228  1  0.94592300  0.08305587  0.13856524  1
  P  P229  1  0.94783290  0.08365934  0.38994409  1
  P  P230  1  0.94684624  0.08470574  0.64019993  1
  P  P231  1  0.94727635  0.08355379  0.89048594  1
  P  P232  1  0.94512007  0.41711844  0.13905717  1
  P  P233  1  0.94585001  0.41673491  0.39026830  1
  P  P234  1  0.94537323  0.41658870  0.63859001  1
  P  P235  1  0.94596174  0.41656439  0.89092963  1
  P  P236  1  0.94371895  0.75000849  0.13940438  1
  P  P237  1  0.94393870  0.74992496  0.38947499  1
  P  P238  1  0.94559184  0.74896406  0.63919251  1
  P  P239  1  0.94416096  0.75014102  0.88875746  1
  P  P240  1  0.19337758  0.08368028  0.23546658  1
  P  P241  1  0.19567975  0.08449371  0.48450917  1
  P  P242  1  0.19702003  0.08236502  0.73679519  1
  P  P243  1  0.19402349  0.08392278  0.98582095  1
  P  P244  1  0.19605974  0.41743131  0.23533964  1
  P  P245  1  0.19778460  0.41703925  0.48542142  1
  P  P246  1  0.19656198  0.41745402  0.73489246  1
  P  P247  1  0.19836738  0.41620485  0.98489402  1
  P  P248  1  0.19738753  0.74869844  0.23526375  1
  P  P249  1  0.19611312  0.74876841  0.48619049  1
  P  P250  1  0.19553684  0.75032674  0.73439214  1
  P  P251  1  0.19642741  0.74936251  0.98520282  1
  P  P252  1  0.69717814  0.08346036  0.23546999  1
  P  P253  1  0.69659884  0.08359174  0.48534118  1
  P  P254  1  0.69619698  0.08329687  0.73477541  1
  P  P255  1  0.69819193  0.08330719  0.98505962  1
  P  P256  1  0.69552780  0.41730066  0.23504441  1
  P  P257  1  0.69832354  0.41613104  0.48529348  1
  P  P258  1  0.69603306  0.41691998  0.73469678  1
  P  P259  1  0.69673688  0.41632504  0.98636139  1
  P  P260  1  0.69805367  0.74941928  0.23574078  1
  P  P261  1  0.69664076  0.74992075  0.48598957  1
  P  P262  1  0.69683886  0.74978201  0.73395048  1
  P  P263  1  0.69850367  0.75073283  0.98566501  1
  P  P264  1  0.30361332  0.25062129  0.01411338  1
  P  P265  1  0.30134566  0.24960421  0.26464834  1
  P  P266  1  0.30233434  0.25072517  0.51532997  1
  P  P267  1  0.30607300  0.24866019  0.76475371  1
  P  P268  1  0.30457871  0.58220468  0.01559297  1
  P  P269  1  0.30430849  0.58391045  0.26449440  1
  P  P270  1  0.30446841  0.58324624  0.51417562  1
  P  P271  1  0.30298561  0.58422854  0.76351457  1
  P  P272  1  0.30421521  0.91670787  0.01438004  1
  P  P273  1  0.30265907  0.91577811  0.26503528  1
  P  P274  1  0.30321210  0.91602780  0.51500802  1
  P  P275  1  0.30299103  0.91714244  0.76588112  1
  P  P276  1  0.80229840  0.24995568  0.01476034  1
  P  P277  1  0.80297539  0.25013825  0.26560017  1
  P  P278  1  0.80445933  0.25082044  0.51434767  1
  P  P279  1  0.80293657  0.25000560  0.76371172  1
  P  P280  1  0.80423053  0.58311452  0.01532784  1
  P  P281  1  0.80386712  0.58379212  0.26464548  1
  P  P282  1  0.80591658  0.58298142  0.51417090  1
  P  P283  1  0.80309130  0.58429020  0.76301716  1
  P  P284  1  0.80327033  0.91725598  0.01502494  1
  P  P285  1  0.80438128  0.91617038  0.26456913  1
  P  P286  1  0.80381465  0.91615833  0.51380219  1
  P  P287  1  0.80152071  0.91555067  0.76420133  1
  O  O288  1  0.05888888  0.25103391  0.18722872  1
  O  O289  1  0.05858180  0.25104273  0.43746409  1
  O  O290  1  0.05729296  0.25072902  0.68624816  1
  O  O291  1  0.05891121  0.25070546  0.93793596  1
  O  O292  1  0.05790515  0.58387396  0.18787105  1
  O  O293  1  0.05910232  0.58332581  0.43734776  1
  O  O294  1  0.05890240  0.58360227  0.68677362  1
  O  O295  1  0.05651736  0.58328407  0.93599456  1
  O  O296  1  0.05485731  0.91565617  0.18663096  1
  O  O297  1  0.05514393  0.91564188  0.43678362  1
  O  O298  1  0.05919751  0.91628036  0.68797791  1
  O  O299  1  0.05583471  0.91644405  0.93587124  1
  O  O300  1  0.56014393  0.24991574  0.18726395  1
  O  O301  1  0.55963607  0.25046363  0.43746859  1
  O  O302  1  0.55842477  0.25016828  0.68719675  1
  O  O303  1  0.55977714  0.24973086  0.93730261  1
  O  O304  1  0.55877176  0.58376283  0.18797216  1
  O  O305  1  0.55672382  0.58352769  0.43626117  1
  O  O306  1  0.55875568  0.58362637  0.68719212  1
  O  O307  1  0.55740088  0.58340822  0.93591234  1
  O  O308  1  0.56090005  0.91621298  0.18740572  1
  O  O309  1  0.56014614  0.91615679  0.43723420  1
  O  O310  1  0.55947075  0.91605761  0.68714814  1
  O  O311  1  0.55995984  0.91670575  0.93740852  1
  O  O312  1  0.44361417  0.08352488  0.06368750  1
  O  O313  1  0.44351151  0.08330327  0.31341913  1
  O  O314  1  0.44294262  0.08315884  0.56392046  1
  O  O315  1  0.44183382  0.08261275  0.81246755  1
  O  O316  1  0.44205391  0.41595890  0.06233677  1
  O  O317  1  0.44344783  0.41637624  0.31382534  1
  O  O318  1  0.44068887  0.41672180  0.56168019  1
  O  O319  1  0.44336410  0.41652105  0.81384914  1
  O  O320  1  0.44368738  0.75012216  0.06414788  1
  O  O321  1  0.44048481  0.75007250  0.31289180  1
  O  O322  1  0.44155817  0.75005030  0.56214448  1
  O  O323  1  0.44415234  0.75073788  0.81306762  1
  O  O324  1  0.94102080  0.08376734  0.06192877  1
  O  O325  1  0.94459159  0.08380661  0.31320052  1
  O  O326  1  0.94368203  0.08380113  0.56344823  1
  O  O327  1  0.94301395  0.08375864  0.81379033  1
  O  O328  1  0.94064789  0.41635103  0.06234043  1
  O  O329  1  0.94312294  0.41680553  0.31348001  1
  O  O330  1  0.94158965  0.41656375  0.56185901  1
  O  O331  1  0.94286003  0.41645487  0.81407576  1
  O  O332  1  0.94034098  0.75000388  0.06252049  1
  O  O333  1  0.94009874  0.74972132  0.31263253  1
  O  O334  1  0.94094911  0.74983219  0.56247131  1
  O  O335  1  0.93990965  0.75014649  0.81201613  1
  O  O336  1  0.18962081  0.08253708  0.06260115  1
  O  O337  1  0.18923926  0.08275057  0.31229545  1
  O  O338  1  0.19344628  0.08343773  0.56135657  1
  O  O339  1  0.19215269  0.08316990  0.81342044  1
  O  O340  1  0.19429055  0.41679064  0.06158266  1
  O  O341  1  0.19300706  0.41755985  0.31212424  1
  O  O342  1  0.19442523  0.41707609  0.56207199  1
  O  O343  1  0.19360418  0.41695350  0.81162907  1
  O  O344  1  0.19288396  0.74961932  0.06193914  1
  O  O345  1  0.19329334  0.74938896  0.31195527  1
  O  O346  1  0.19096385  0.74964561  0.56274872  1
  O  O347  1  0.19291021  0.74998009  0.81118601  1
  O  O348  1  0.69500051  0.08340288  0.06174055  1
  O  O349  1  0.69441690  0.08355446  0.31221227  1
  O  O350  1  0.69339087  0.08366269  0.56204634  1
  O  O351  1  0.69359488  0.08349710  0.81156246  1
  O  O352  1  0.69206192  0.41707621  0.06300658  1
  O  O353  1  0.69310648  0.41766836  0.31182132  1
  O  O354  1  0.69414778  0.41682448  0.56192177  1
  O  O355  1  0.69329859  0.41703331  0.81148633  1
  O  O356  1  0.69484087  0.74995168  0.06227782  1
  O  O357  1  0.69445729  0.74903571  0.31239538  1
  O  O358  1  0.69166113  0.74911778  0.56258637  1
  O  O359  1  0.69408727  0.74950357  0.81073573  1
  O  O360  1  0.30567215  0.24941949  0.18800688  1
  O  O361  1  0.30556655  0.25008807  0.43858900  1
  O  O362  1  0.30980416  0.24944232  0.68795646  1
  O  O363  1  0.30869973  0.24987185  0.93746591  1
  O  O364  1  0.30920682  0.58303517  0.18782487  1
  O  O365  1  0.30851765  0.58338334  0.43745498  1
  O  O366  1  0.30824608  0.58427666  0.68688940  1
  O  O367  1  0.30718650  0.58326607  0.93876057  1
  O  O368  1  0.30596858  0.91662247  0.18827199  1
  O  O369  1  0.30641996  0.91636100  0.43828269  1
  O  O370  1  0.30675758  0.91660177  0.68915581  1
  O  O371  1  0.30882521  0.91678294  0.93767456  1
  O  O372  1  0.80707832  0.24985085  0.18895130  1
  O  O373  1  0.80936233  0.25004584  0.43765584  1
  O  O374  1  0.80819579  0.24995252  0.68710698  1
  O  O375  1  0.80559399  0.25015284  0.93804643  1
  O  O376  1  0.80825201  0.58303756  0.18795984  1
  O  O377  1  0.80950424  0.58291343  0.43735160  1
  O  O378  1  0.80821132  0.58334607  0.68641964  1
  O  O379  1  0.80647689  0.58285165  0.93849659  1
  O  O380  1  0.80881604  0.91735697  0.18787153  1
  O  O381  1  0.80862765  0.91708523  0.43712852  1
  O  O382  1  0.80532355  0.91642376  0.68753402  1
  O  O383  1  0.80629942  0.91731992  0.93830380  1
  O  O384  1  0.23324055  0.24988316  0.03758207  1
  O  O385  1  0.23115053  0.25045662  0.28867977  1
  O  O386  1  0.23238559  0.25006711  0.54041393  1
  O  O387  1  0.23598364  0.24992715  0.78879426  1
  O  O388  1  0.23491831  0.58292008  0.04091650  1
  O  O389  1  0.23394834  0.58337770  0.28818455  1
  O  O390  1  0.23409111  0.58340942  0.53808134  1
  O  O391  1  0.23260900  0.58399360  0.78691496  1
  O  O392  1  0.23408721  0.91661519  0.03824517  1
  O  O393  1  0.23293304  0.91546558  0.29014733  1
  O  O394  1  0.23347470  0.91697338  0.53994200  1
  O  O395  1  0.23289984  0.91642824  0.79028914  1
  O  O396  1  0.73237975  0.24966833  0.03979042  1
  O  O397  1  0.73269966  0.25086136  0.28941620  1
  O  O398  1  0.73396361  0.25010990  0.53773773  1
  O  O399  1  0.73250335  0.25042878  0.78711129  1
  O  O400  1  0.73462942  0.58365887  0.04092585  1
  O  O401  1  0.73358236  0.58311336  0.28865630  1
  O  O402  1  0.73584180  0.58295477  0.53833106  1
  O  O403  1  0.73284722  0.58408694  0.78694735  1
  O  O404  1  0.73331385  0.91704305  0.04012686  1
  O  O405  1  0.73400632  0.91609190  0.28827083  1
  O  O406  1  0.73341052  0.91626257  0.53725251  1
  O  O407  1  0.73159100  0.91574826  0.78897449  1
  O  O408  1  0.26340665  0.08307016  0.21116467  1
  O  O409  1  0.26519915  0.08384430  0.45885028  1
  O  O410  1  0.26727221  0.08272940  0.71287690  1
  O  O411  1  0.26421236  0.08368905  0.96224690  1
  O  O412  1  0.26574645  0.41658530  0.21023983  1
  O  O413  1  0.26762512  0.41712111  0.46023808  1
  O  O414  1  0.26631623  0.41713594  0.70997671  1
  O  O415  1  0.26825164  0.41690075  0.96009195  1
  O  O416  1  0.26741855  0.74930905  0.21082212  1
  O  O417  1  0.26656352  0.74864152  0.46289186  1
  O  O418  1  0.26520870  0.75047197  0.70903024  1
  O  O419  1  0.26613964  0.74916485  0.96024901  1
  O  O420  1  0.76678584  0.08350877  0.21005558  1
  O  O421  1  0.76625183  0.08368370  0.46007900  1
  O  O422  1  0.76567097  0.08293786  0.70894315  1
  O  O423  1  0.76802600  0.08341782  0.95971004  1
  O  O424  1  0.76524097  0.41659878  0.20983545  1
  O  O425  1  0.76834345  0.41674159  0.46086188  1
  O  O426  1  0.76567207  0.41642383  0.70941886  1
  O  O427  1  0.76692131  0.41679416  0.96214157  1
  O  O428  1  0.76808094  0.75004569  0.21106525  1
  O  O429  1  0.76707506  0.74946518  0.46263361  1
  O  O430  1  0.76673609  0.75002359  0.70869222  1
  O  O431  1  0.76852469  0.75023535  0.96096425  1
  O  O432  1  0.01626138  0.08350273  0.16224390  1
  O  O433  1  0.01770802  0.08333525  0.41510853  1
  O  O434  1  0.01653664  0.08470350  0.66523922  1
  O  O435  1  0.01737921  0.08297575  0.91454000  1
  O  O436  1  0.01510130  0.41694206  0.16324222  1
  O  O437  1  0.01554604  0.41689187  0.41562577  1
  O  O438  1  0.01527046  0.41685789  0.66319198  1
  O  O439  1  0.01561329  0.41687398  0.91602883  1
  O  O440  1  0.01353254  0.75007883  0.16439202  1
  O  O441  1  0.01398440  0.74962818  0.41377553  1
  O  O442  1  0.01594864  0.74931233  0.66272354  1
  O  O443  1  0.01420643  0.74997135  0.91287672  1
  O  O444  1  0.51711871  0.08355367  0.16500332  1
  O  O445  1  0.51671518  0.08346154  0.41519674  1
  O  O446  1  0.51539602  0.08337125  0.66592313  1
  O  O447  1  0.51545290  0.08312105  0.91396519  1
  O  O448  1  0.51715719  0.41683228  0.16280187  1
  O  O449  1  0.51543471  0.41723303  0.41632280  1
  O  O450  1  0.51467351  0.41633995  0.66289937  1
  O  O451  1  0.51585903  0.41662007  0.91581976  1
  O  O452  1  0.51601672  0.74956405  0.16624323  1
  O  O453  1  0.51462625  0.74969966  0.41363161  1
  O  O454  1  0.51704909  0.74981283  0.66238355  1
  O  O455  1  0.51695796  0.75021933  0.91527593  1
  O  O456  1  0.48578706  0.24995300  0.08654578  1
  O  O457  1  0.48500477  0.25069074  0.33673146  1
  O  O458  1  0.48304956  0.25002016  0.58721653  1
  O  O459  1  0.48367716  0.24989779  0.83779638  1
  O  O460  1  0.48337526  0.58324437  0.08768346  1
  O  O461  1  0.48216546  0.58277682  0.33574201  1
  O  O462  1  0.48306068  0.58393312  0.58725630  1
  O  O463  1  0.48432008  0.58321296  0.83425291  1
  O  O464  1  0.48586636  0.91637085  0.08722109  1
  O  O465  1  0.48555063  0.91622791  0.33678965  1
  O  O466  1  0.48545043  0.91635610  0.58632396  1
  O  O467  1  0.48402022  0.91669247  0.83738489  1
  O  O468  1  0.98535325  0.24975495  0.08615676  1
  O  O469  1  0.98327026  0.25040732  0.33700523  1
  O  O470  1  0.98283526  0.25005812  0.58555404  1
  O  O471  1  0.98469665  0.25025570  0.83690741  1
  O  O472  1  0.98207155  0.58406108  0.08791373  1
  O  O473  1  0.98295984  0.58342646  0.33804275  1
  O  O474  1  0.98368774  0.58366583  0.58682264  1
  O  O475  1  0.98382905  0.58319325  0.83415060  1
  O  O476  1  0.98107130  0.91631950  0.08528418  1
  O  O477  1  0.98102890  0.91701252  0.33564217  1
  O  O478  1  0.98456531  0.91616463  0.58736334  1
  O  O479  1  0.98390189  0.91713314  0.83345302  1
  O  O480  1  0.08923172  0.31447551  0.07686796  1
  O  O481  1  0.08725074  0.31472632  0.32708722  1
  O  O482  1  0.08654533  0.31539662  0.57618626  1
  O  O483  1  0.08848319  0.31444660  0.82781719  1
  O  O484  1  0.08549562  0.64907928  0.07770522  1
  O  O485  1  0.08665456  0.64838281  0.32693027  1
  O  O486  1  0.08714872  0.64950501  0.57676624  1
  O  O487  1  0.08770422  0.64819815  0.82661061  1
  O  O488  1  0.08496834  0.98156313  0.07761333  1
  O  O489  1  0.08515853  0.98165505  0.32789263  1
  O  O490  1  0.08827095  0.98062102  0.57813771  1
  O  O491  1  0.08778244  0.98278804  0.82735005  1
  O  O492  1  0.58902841  0.31623013  0.07771297  1
  O  O493  1  0.58870435  0.31569720  0.32777474  1
  O  O494  1  0.58699245  0.31479724  0.57681896  1
  O  O495  1  0.58719426  0.31510937  0.82706790  1
  O  O496  1  0.58695208  0.64791215  0.07766504  1
  O  O497  1  0.58591962  0.64824040  0.32637146  1
  O  O498  1  0.58666572  0.64911719  0.57710362  1
  O  O499  1  0.58833106  0.64824333  0.82658466  1
  O  O500  1  0.58953929  0.98127882  0.07715463  1
  O  O501  1  0.58942847  0.98101906  0.32724962  1
  O  O502  1  0.58959583  0.98030625  0.57725804  1
  O  O503  1  0.58767733  0.98160816  0.82712768  1
  O  O504  1  0.41342428  0.01834369  0.17297528  1
  O  O505  1  0.41316018  0.01827696  0.42277080  1
  O  O506  1  0.41131572  0.01900763  0.67342692  1
  O  O507  1  0.41201643  0.01771066  0.92211672  1
  O  O508  1  0.41371148  0.35185609  0.17277457  1
  O  O509  1  0.41126372  0.35250493  0.42310635  1
  O  O510  1  0.41104717  0.35171397  0.67124600  1
  O  O511  1  0.41237793  0.35051811  0.92300688  1
  O  O512  1  0.41203673  0.68415901  0.17284254  1
  O  O513  1  0.41131002  0.68360147  0.42224849  1
  O  O514  1  0.41342211  0.68442303  0.67205381  1
  O  O515  1  0.41298648  0.68585111  0.92190548  1
  O  O516  1  0.91294038  0.01780036  0.17169546  1
  O  O517  1  0.91362549  0.01875999  0.42248734  1
  O  O518  1  0.91297745  0.01948708  0.67281138  1
  O  O519  1  0.91297787  0.01864417  0.92298364  1
  O  O520  1  0.91168861  0.35205413  0.17229090  1
  O  O521  1  0.91170163  0.35160528  0.42252403  1
  O  O522  1  0.91194671  0.35135947  0.67151042  1
  O  O523  1  0.91170165  0.35163164  0.92348865  1
  O  O524  1  0.90983860  0.68501532  0.17237546  1
  O  O525  1  0.91019322  0.68489545  0.42239112  1
  O  O526  1  0.91232524  0.68373945  0.67216189  1
  O  O527  1  0.91043102  0.68529310  0.92196292  1
  O  O528  1  0.15929232  0.01885547  0.20216353  1
  O  O529  1  0.16077164  0.01986568  0.45183162  1
  O  O530  1  0.16377060  0.01722208  0.70367532  1
  O  O531  1  0.16031258  0.01919319  0.95219975  1
  O  O532  1  0.16146518  0.35260585  0.20316304  1
  O  O533  1  0.16377073  0.35187011  0.45306679  1
  O  O534  1  0.16262931  0.35230460  0.70236681  1
  O  O535  1  0.16477089  0.35100219  0.95224274  1
  O  O536  1  0.16383167  0.68343883  0.20270495  1
  O  O537  1  0.16289534  0.68365988  0.45293764  1
  O  O538  1  0.16121971  0.68541405  0.70175061  1
  O  O539  1  0.16228948  0.68438007  0.95281207  1
  O  O540  1  0.66322565  0.01825369  0.20323177  1
  O  O541  1  0.66268400  0.01841318  0.45299002  1
  O  O542  1  0.66180540  0.01808986  0.70303613  1
  O  O543  1  0.66414358  0.01814091  0.95276012  1
  O  O544  1  0.66094389  0.35237717  0.20295057  1
  O  O545  1  0.66464206  0.35100704  0.45286174  1
  O  O546  1  0.66158241  0.35189372  0.70257375  1
  O  O547  1  0.66353259  0.35106532  0.95336194  1
  O  O548  1  0.66470113  0.68420934  0.20271030  1
  O  O549  1  0.66341306  0.68494603  0.45230605  1
  O  O550  1  0.66277533  0.68482454  0.70111449  1
  O  O551  1  0.66458608  0.68586973  0.95260009  1
  O  O552  1  0.33647412  0.31599233  0.04729212  1
  O  O553  1  0.33547469  0.31446616  0.29734526  1
  O  O554  1  0.33619914  0.31598679  0.54761288  1
  O  O555  1  0.34038192  0.31334014  0.79784498  1
  O  O556  1  0.33943617  0.64679599  0.04824181  1
  O  O557  1  0.33748712  0.64909841  0.29759466  1
  O  O558  1  0.33810494  0.64815847  0.54763723  1
  O  O559  1  0.33606822  0.64924214  0.79702592  1
  O  O560  1  0.33754397  0.98173015  0.04775020  1
  O  O561  1  0.33647494  0.98090738  0.29777037  1
  O  O562  1  0.33765482  0.98092178  0.54739535  1
  O  O563  1  0.33676071  0.98217641  0.79864881  1
  O  O564  1  0.83600752  0.31499407  0.04761444  1
  O  O565  1  0.83712946  0.31491514  0.29835261  1
  O  O566  1  0.83741251  0.31607241  0.54757566  1
  O  O567  1  0.83638952  0.31485940  0.79719371  1
  O  O568  1  0.83883532  0.64812375  0.04726824  1
  O  O569  1  0.83723543  0.64895153  0.29755708  1
  O  O570  1  0.83952172  0.64810507  0.54710824  1
  O  O571  1  0.83635640  0.64954204  0.79583324  1
  O  O572  1  0.83717275  0.98238288  0.04766190  1
  O  O573  1  0.83769518  0.98107607  0.29835272  1
  O  O574  1  0.83698660  0.98107923  0.54748148  1
  O  O575  1  0.83542349  0.98047821  0.79722278  1
  O  O576  1  0.41325316  0.14846015  0.17305264  1
  O  O577  1  0.41295666  0.14844626  0.42252609  1
  O  O578  1  0.41171288  0.14913258  0.67269084  1
  O  O579  1  0.41191748  0.14812321  0.92199810  1
  O  O580  1  0.41342371  0.48191061  0.17193411  1
  O  O581  1  0.41150562  0.48252401  0.42237982  1
  O  O582  1  0.41155603  0.48215840  0.67141256  1
  O  O583  1  0.41151547  0.48062886  0.92298157  1
  O  O584  1  0.41193875  0.81414158  0.17364953  1
  O  O585  1  0.41050281  0.81370981  0.42321984  1
  O  O586  1  0.41350989  0.81447754  0.67238306  1
  O  O587  1  0.41352341  0.81614466  0.92229513  1
  O  O588  1  0.91273611  0.14796529  0.17233508  1
  O  O589  1  0.91411577  0.14890660  0.42234555  1
  O  O590  1  0.91269447  0.14982201  0.67222206  1
  O  O591  1  0.91373535  0.14851518  0.92376397  1
  O  O592  1  0.91160294  0.48226448  0.17194162  1
  O  O593  1  0.91157473  0.48169142  0.42263877  1
  O  O594  1  0.91174816  0.48182996  0.67142381  1
  O  O595  1  0.91144544  0.48152564  0.92297829  1
  O  O596  1  0.90972507  0.81512872  0.17189488  1
  O  O597  1  0.91045035  0.81512243  0.42235133  1
  O  O598  1  0.91194367  0.81370277  0.67287428  1
  O  O599  1  0.91066840  0.81524557  0.92184807  1
  O  O600  1  0.08907719  0.18445753  0.07818437  1
  O  O601  1  0.08675387  0.18456955  0.32794121  1
  O  O602  1  0.08722470  0.18562043  0.57689820  1
  O  O603  1  0.08791159  0.18420001  0.82857531  1
  O  O604  1  0.08562538  0.51907124  0.07756383  1
  O  O605  1  0.08675295  0.51841248  0.32710169  1
  O  O606  1  0.08776059  0.51956981  0.57634193  1
  O  O607  1  0.08779841  0.51822401  0.82675538  1
  O  O608  1  0.08485593  0.85152370  0.07694806  1
  O  O609  1  0.08435670  0.85150973  0.32679308  1
  O  O610  1  0.08757961  0.85028024  0.57804334  1
  O  O611  1  0.08812827  0.85273626  0.82664099  1
  O  O612  1  0.58990727  0.18614664  0.07688739  1
  O  O613  1  0.58882917  0.18579563  0.32731722  1
  O  O614  1  0.58684662  0.18495023  0.57723227  1
  O  O615  1  0.58740470  0.18509042  0.82691168  1
  O  O616  1  0.58684359  0.51781576  0.07806366  1
  O  O617  1  0.58649825  0.51836911  0.32694963  1
  O  O618  1  0.58650403  0.51906893  0.57687350  1
  O  O619  1  0.58822831  0.51828701  0.82663296  1
  O  O620  1  0.58952745  0.85128065  0.07738504  1
  O  O621  1  0.58916227  0.85108718  0.32726224  1
  O  O622  1  0.58885057  0.85024062  0.57734763  1
  O  O623  1  0.58778245  0.85172519  0.82718277  1
  O  O624  1  0.33703654  0.18585887  0.04788381  1
  O  O625  1  0.33448387  0.18449565  0.29786875  1
  O  O626  1  0.33689861  0.18599300  0.54805578  1
  O  O627  1  0.33902581  0.18332415  0.79775515  1
  O  O628  1  0.33854106  0.51683220  0.04759384  1
  O  O629  1  0.33798485  0.51907929  0.29804426  1
  O  O630  1  0.33781391  0.51811699  0.54725551  1
  O  O631  1  0.33639533  0.51927042  0.79685874  1
  O  O632  1  0.33780068  0.85161956  0.04728794  1
  O  O633  1  0.33703850  0.85071776  0.29699588  1
  O  O634  1  0.33669810  0.85067225  0.54760843  1
  O  O635  1  0.33723662  0.85225692  0.79864766  1
  O  O636  1  0.83633522  0.18483252  0.04712437  1
  O  O637  1  0.83637511  0.18510365  0.29884190  1
  O  O638  1  0.83809627  0.18607815  0.54800823  1
  O  O639  1  0.83590373  0.18486132  0.79722966  1
  O  O640  1  0.83822735  0.51801358  0.04784764  1
  O  O641  1  0.83784561  0.51907926  0.29799959  1
  O  O642  1  0.83966417  0.51800973  0.54713813  1
  O  O643  1  0.83637052  0.51942766  0.79684608  1
  O  O644  1  0.83737140  0.85226550  0.04758074  1
  O  O645  1  0.83776488  0.85103451  0.29735097  1
  O  O646  1  0.83690832  0.85094823  0.54687088  1
  O  O647  1  0.83541694  0.85044866  0.79640095  1
  O  O648  1  0.16000766  0.14907672  0.20302554  1
  O  O649  1  0.16153620  0.14992048  0.45300813  1
  O  O650  1  0.16369438  0.14735868  0.70315410  1
  O  O651  1  0.16076745  0.14924304  0.95305076  1
  O  O652  1  0.16254209  0.48286587  0.20278468  1
  O  O653  1  0.16375346  0.48206314  0.45277782  1
  O  O654  1  0.16256692  0.48247870  0.70243131  1
  O  O655  1  0.16409212  0.48114086  0.95238102  1
  O  O656  1  0.16324118  0.81355123  0.20231332  1
  O  O657  1  0.16309439  0.81377086  0.45224239  1
  O  O658  1  0.16122670  0.81551075  0.70239297  1
  O  O659  1  0.16247342  0.81445377  0.95262559  1
  O  O660  1  0.66311484  0.14863224  0.20325912  1
  O  O661  1  0.66252592  0.14878024  0.45314149  1
  O  O662  1  0.66213323  0.14850068  0.70256636  1
  O  O663  1  0.66390445  0.14822523  0.95256173  1
  O  O664  1  0.66172364  0.48251836  0.20241547  1
  O  O665  1  0.66438499  0.48106110  0.45230997  1
  O  O666  1  0.66230654  0.48217946  0.70213040  1
  O  O667  1  0.66313334  0.48122519  0.95299134  1
  O  O668  1  0.66410308  0.81437607  0.20317208  1
  O  O669  1  0.66366317  0.81504847  0.45277789  1
  O  O670  1  0.66248110  0.81478927  0.70179677  1
  O  O671  1  0.66496399  0.81592847  0.95307038  1
