# generated using pymatgen
data_Na2MnFe(PO4)2
_symmetry_space_group_name_H-M   'P 1'
_cell_length_a   21.08603573
_cell_length_b   18.93897267
_cell_length_c   20.04512212
_cell_angle_alpha   89.99922690
_cell_angle_beta   90.00249078
_cell_angle_gamma   90.00004824
_symmetry_Int_Tables_number   1
_chemical_formula_structural   Na2MnFe(PO4)2
_chemical_formula_sum   'Na96 Mn48 Fe48 P96 O384'
_cell_volume   8004.97649975
_cell_formula_units_Z   48
loop_
 _symmetry_equiv_pos_site_id
 _symmetry_equiv_pos_as_xyz
  1  'x, y, z'
loop_
 _atom_site_type_symbol
 _atom_site_label
 _atom_site_symmetry_multiplicity
 _atom_site_fract_x
 _atom_site_fract_y
 _atom_site_fract_z
 _atom_site_occupancy
  Na  Na0  1  0.00005527  0.00027862  -0.00070025  1
  Na  Na1  1  -0.00069830  0.00049183  0.24898871  1
  Na  Na2  1  -0.00076543  0.00017460  0.50161944  1
  Na  Na3  1  -0.00091462  -0.00016097  0.74984086  1
  Na  Na4  1  -0.00141540  0.33314989  0.00031553  1
  Na  Na5  1  0.00029913  0.33381953  0.24947200  1
  Na  Na6  1  -0.00202121  0.33287228  0.50021799  1
  Na  Na7  1  -0.00163104  0.33373444  0.74951835  1
  Na  Na8  1  0.00135052  0.66663505  0.00018351  1
  Na  Na9  1  -0.00109322  0.66608336  0.24965929  1
  Na  Na10  1  -0.00210524  0.66558878  0.49993116  1
  Na  Na11  1  0.00200898  0.66678246  0.75001660  1
  Na  Na12  1  0.50095502  0.00006804  -0.00048305  1
  Na  Na13  1  0.49966348  -0.00077205  0.25085205  1
  Na  Na14  1  0.50204023  0.00109632  0.49904660  1
  Na  Na15  1  0.50192144  0.00059113  0.75048839  1
  Na  Na16  1  0.50152542  0.33342284  -0.00049025  1
  Na  Na17  1  0.50114424  0.33345095  0.25008390  1
  Na  Na18  1  0.49988430  0.33281173  0.50036120  1
  Na  Na19  1  0.50045342  0.33294168  0.75041179  1
  Na  Na20  1  0.50071712  0.66686665  -0.00032464  1
  Na  Na21  1  0.49825943  0.66519760  0.24984247  1
  Na  Na22  1  0.50038774  0.66569482  0.50056933  1
  Na  Na23  1  0.50220393  0.66712426  0.75021713  1
  Na  Na24  1  0.24826388  -0.00020182  0.12622946  1
  Na  Na25  1  0.24872144  0.00055317  0.37376353  1
  Na  Na26  1  0.24945345  0.00027911  0.62455967  1
  Na  Na27  1  0.24873660  -0.00039239  0.87598220  1
  Na  Na28  1  0.24809685  0.33277987  0.12602119  1
  Na  Na29  1  0.24978606  0.33323587  0.37484009  1
  Na  Na30  1  0.25263449  0.33352552  0.62462666  1
  Na  Na31  1  0.25215028  0.33443032  0.87496494  1
  Na  Na32  1  0.25015875  0.66621978  0.12591355  1
  Na  Na33  1  0.24952223  0.66573717  0.37542976  1
  Na  Na34  1  0.24855804  0.66556226  0.62371592  1
  Na  Na35  1  0.24989519  0.66667042  0.87478659  1
  Na  Na36  1  0.75093406  -0.00030990  0.12500195  1
  Na  Na37  1  0.75158364  0.00039355  0.37501907  1
  Na  Na38  1  0.74878848  -0.00048289  0.62505459  1
  Na  Na39  1  0.75046912  0.00061059  0.87481930  1
  Na  Na40  1  0.75045535  0.33330267  0.12648695  1
  Na  Na41  1  0.74982047  0.33330850  0.37525444  1
  Na  Na42  1  0.74886651  0.33289562  0.62361513  1
  Na  Na43  1  0.74848854  0.33261573  0.87435715  1
  Na  Na44  1  0.75078409  0.66662702  0.12483305  1
  Na  Na45  1  0.75357045  0.66728721  0.37552221  1
  Na  Na46  1  0.75001877  0.66603083  0.62493105  1
  Na  Na47  1  0.74641113  0.66500436  0.87454874  1
  Na  Na48  1  -0.00184556  0.16743267  0.00013200  1
  Na  Na49  1  0.00050216  0.16621033  0.24929370  1
  Na  Na50  1  -0.00183352  0.16762326  0.50025773  1
  Na  Na51  1  -0.00097816  0.16659155  0.74948160  1
  Na  Na52  1  0.00152640  0.49987442  -0.00000527  1
  Na  Na53  1  0.00155226  0.49908174  0.24872010  1
  Na  Na54  1  -0.00124003  0.50029179  0.50097682  1
  Na  Na55  1  -0.00057368  0.50017418  0.75019255  1
  Na  Na56  1  -0.00125986  0.83453184  -0.00038510  1
  Na  Na57  1  -0.00307415  0.83431564  0.25010328  1
  Na  Na58  1  -0.00155155  0.83317411  0.50064574  1
  Na  Na59  1  0.00103454  0.83297505  0.74960471  1
  Na  Na60  1  0.50251115  0.16621659  -0.00026761  1
  Na  Na61  1  0.50050440  0.16752474  0.25014501  1
  Na  Na62  1  0.50004239  0.16763320  0.50004984  1
  Na  Na63  1  0.50129577  0.16663546  0.75086324  1
  Na  Na64  1  0.49961192  0.50056991  -0.00105487  1
  Na  Na65  1  0.49958131  0.50007641  0.25088043  1
  Na  Na66  1  0.50100193  0.49956840  0.50044020  1
  Na  Na67  1  0.50200440  0.49936202  0.74964622  1
  Na  Na68  1  0.50057275  0.83297999  -0.00005832  1
  Na  Na69  1  0.49944565  0.83348277  0.25003452  1
  Na  Na70  1  0.50108146  0.83348043  0.49935449  1
  Na  Na71  1  0.50073223  0.83363972  0.75055528  1
  Na  Na72  1  0.24835062  0.16658335  0.12557514  1
  Na  Na73  1  0.24835018  0.16769384  0.37497766  1
  Na  Na74  1  0.25251116  0.16629735  0.62418755  1
  Na  Na75  1  0.25103408  0.16628144  0.87533022  1
  Na  Na76  1  0.24803181  0.50040342  0.12604173  1
  Na  Na77  1  0.24975788  0.49950156  0.37410626  1
  Na  Na78  1  0.25133570  0.49912101  0.62382812  1
  Na  Na79  1  0.24851400  0.50097338  0.87601720  1
  Na  Na80  1  0.25123196  0.83278499  0.12622508  1
  Na  Na81  1  0.24985891  0.83317511  0.37509699  1
  Na  Na82  1  0.24758066  0.83412078  0.62464634  1
  Na  Na83  1  0.24984242  0.83356162  0.87482874  1
  Na  Na84  1  0.75079331  0.16678271  0.12524873  1
  Na  Na85  1  0.75081081  0.16740624  0.37578824  1
  Na  Na86  1  0.74942433  0.16699438  0.62427808  1
  Na  Na87  1  0.74732670  0.16782201  0.87422703  1
  Na  Na88  1  0.74969696  0.49981272  0.12656466  1
  Na  Na89  1  0.75013119  0.49998128  0.37583323  1
  Na  Na90  1  0.74869736  0.50063419  0.62389727  1
  Na  Na91  1  0.74931918  0.49979910  0.87420713  1
  Na  Na92  1  0.75197503  0.83336295  0.12439856  1
  Na  Na93  1  0.75263221  0.83303110  0.37454012  1
  Na  Na94  1  0.75018198  0.83323706  0.62522401  1
  Na  Na95  1  0.74882265  0.83393438  0.87545791  1
  Mn  Mn96  1  0.10756194  0.75056233  0.12255986  1
  Mn  Mn97  1  0.89203084  0.58376858  0.87742542  1
  Mn  Mn98  1  0.14178543  0.58242975  0.49741105  1
  Mn  Mn99  1  0.89066836  0.24976755  0.87725314  1
  Mn  Mn100  1  0.39244325  0.91678160  0.37773322  1
  Mn  Mn101  1  0.89238781  0.58344397  0.12659113  1
  Mn  Mn102  1  0.10742985  0.08387726  0.87254503  1
  Mn  Mn103  1  0.35794882  0.08264599  0.00293224  1
  Mn  Mn104  1  0.60852872  0.75050406  0.62171894  1
  Mn  Mn105  1  0.35806078  0.08357369  0.50201357  1
  Mn  Mn106  1  0.35666210  0.08391365  0.25183126  1
  Mn  Mn107  1  0.35757101  0.41720322  0.00297904  1
  Mn  Mn108  1  0.14303102  0.25024792  0.74745178  1
  Mn  Mn109  1  0.10596452  0.74991188  0.37269908  1
  Mn  Mn110  1  0.85830547  0.41715375  0.25301895  1
  Mn  Mn111  1  0.60842884  0.08270405  0.12289093  1
  Mn  Mn112  1  0.85875633  0.08333159  0.25262792  1
  Mn  Mn113  1  0.39320738  0.58313162  0.62765615  1
  Mn  Mn114  1  0.10776337  0.08398329  0.62310868  1
  Mn  Mn115  1  0.14216523  0.25030928  0.49811070  1
  Mn  Mn116  1  0.39329442  0.24961982  0.87741837  1
  Mn  Mn117  1  0.10866848  0.75030819  0.87300735  1
  Mn  Mn118  1  0.64246342  0.58375147  0.24823711  1
  Mn  Mn119  1  0.60810732  0.41723617  0.12274777  1
  Mn  Mn120  1  0.39206055  0.91650742  0.87739008  1
  Mn  Mn121  1  0.39248905  0.24991612  0.12739192  1
  Mn  Mn122  1  0.60790327  0.74991090  0.12321409  1
  Mn  Mn123  1  0.10781799  0.41655674  0.62282586  1
  Mn  Mn124  1  0.89208752  0.91635635  0.62763713  1
  Mn  Mn125  1  0.14133899  0.24984170  0.99730861  1
  Mn  Mn126  1  0.39246774  0.58379966  0.87660094  1
  Mn  Mn127  1  0.39269760  0.91741545  0.62711878  1
  Mn  Mn128  1  0.64212097  0.91658987  0.74749641  1
  Mn  Mn129  1  0.85710831  0.74953193  0.00165213  1
  Mn  Mn130  1  0.35723105  0.75011526  0.75157129  1
  Mn  Mn131  1  0.85652245  0.41668364  0.75168457  1
  Mn  Mn132  1  0.85661132  0.08347912  0.75218890  1
  Mn  Mn133  1  0.14126375  0.91703251  0.49713728  1
  Mn  Mn134  1  0.60861062  0.08409728  0.37256255  1
  Mn  Mn135  1  0.35772284  0.74994555  0.50251064  1
  Mn  Mn136  1  0.85769433  0.74972593  0.75284561  1
  Mn  Mn137  1  0.60881964  0.74916178  0.37257809  1
  Mn  Mn138  1  0.64340929  0.91664656  0.24745427  1
  Mn  Mn139  1  0.14087410  0.91642498  0.24774143  1
  Mn  Mn140  1  0.35687153  0.41603317  0.25212621  1
  Mn  Mn141  1  0.35771136  0.74970870  0.25270004  1
  Mn  Mn142  1  0.60867896  0.41685737  0.87274893  1
  Mn  Mn143  1  0.10774335  0.41604023  0.87252266  1
  Fe  Fe144  1  0.85824537  0.74962653  0.25165502  1
  Fe  Fe145  1  0.60716779  0.41672629  0.37416156  1
  Fe  Fe146  1  0.64286253  0.91675101  0.99858949  1
  Fe  Fe147  1  0.39217616  0.58346023  0.12655202  1
  Fe  Fe148  1  0.64382784  0.58346108  0.49770387  1
  Fe  Fe149  1  0.64386771  0.91641753  0.49811111  1
  Fe  Fe150  1  0.10663549  0.41606870  0.12279597  1
  Fe  Fe151  1  0.64356471  0.24993247  0.99929315  1
  Fe  Fe152  1  0.64318684  0.24991916  0.24863291  1
  Fe  Fe153  1  0.14275938  0.58309782  0.74793949  1
  Fe  Fe154  1  0.89276627  0.25027992  0.37657465  1
  Fe  Fe155  1  0.10695012  0.41612036  0.37418914  1
  Fe  Fe156  1  0.85666654  0.08387481  0.00102534  1
  Fe  Fe157  1  0.89158702  0.25059253  0.62661785  1
  Fe  Fe158  1  0.60741105  0.75042711  0.87371390  1
  Fe  Fe159  1  0.60826907  0.08256740  0.87334450  1
  Fe  Fe160  1  0.14245653  0.91592139  0.99874923  1
  Fe  Fe161  1  0.14333125  0.58420289  0.99859032  1
  Fe  Fe162  1  0.39402633  0.24961707  0.62682848  1
  Fe  Fe163  1  0.10602746  0.08389926  0.37409886  1
  Fe  Fe164  1  0.39254520  0.91660246  0.12621651  1
  Fe  Fe165  1  0.85718939  0.08374169  0.50188855  1
  Fe  Fe166  1  0.10685214  0.74949074  0.62313508  1
  Fe  Fe167  1  0.89242607  0.91722131  0.37760180  1
  Fe  Fe168  1  0.89273321  0.91642255  0.87681942  1
  Fe  Fe169  1  0.64204596  0.25050180  0.74698583  1
  Fe  Fe170  1  0.35811394  0.41680081  0.75131507  1
  Fe  Fe171  1  0.89243756  0.91719048  0.12560810  1
  Fe  Fe172  1  0.14246999  0.91675677  0.74868628  1
  Fe  Fe173  1  0.85689888  0.41654986  0.00133076  1
  Fe  Fe174  1  0.60719838  0.41595193  0.62246818  1
  Fe  Fe175  1  0.64195829  0.58313291  0.99879467  1
  Fe  Fe176  1  0.39271358  0.25051347  0.37654854  1
  Fe  Fe177  1  0.14209330  0.58305542  0.24858361  1
  Fe  Fe178  1  0.60746323  0.08375428  0.62277729  1
  Fe  Fe179  1  0.89240177  0.25002962  0.12676515  1
  Fe  Fe180  1  0.35781818  0.75015335  0.00163592  1
  Fe  Fe181  1  0.10604391  0.08350039  0.12265572  1
  Fe  Fe182  1  0.89244816  0.58299721  0.62725273  1
  Fe  Fe183  1  0.39253368  0.58245388  0.37697331  1
  Fe  Fe184  1  0.64307206  0.25006345  0.49774949  1
  Fe  Fe185  1  0.85701884  0.41680039  0.50148732  1
  Fe  Fe186  1  0.14109961  0.25044961  0.24863959  1
  Fe  Fe187  1  0.89298384  0.58257703  0.37688592  1
  Fe  Fe188  1  0.35818999  0.08311005  0.75161180  1
  Fe  Fe189  1  0.85735290  0.74972550  0.50230899  1
  Fe  Fe190  1  0.35826287  0.41658103  0.50120737  1
  Fe  Fe191  1  0.64262246  0.58292776  0.74742661  1
  P  P192  1  0.05285429  0.25010934  0.11110549  1
  P  P193  1  0.05203512  0.25021862  0.36013430  1
  P  P194  1  0.05167206  0.25041112  0.61005160  1
  P  P195  1  0.05222127  0.25006658  0.85919573  1
  P  P196  1  0.05520793  0.58271097  0.11051494  1
  P  P197  1  0.05216945  0.58217952  0.35972701  1
  P  P198  1  0.05337552  0.58355979  0.61113656  1
  P  P199  1  0.05536876  0.58331917  0.86042264  1
  P  P200  1  0.05215576  0.91736521  0.10933462  1
  P  P201  1  0.05088978  0.91751607  0.36030630  1
  P  P202  1  0.05463229  0.91605674  0.61145067  1
  P  P203  1  0.05384980  0.91679281  0.86045298  1
  P  P204  1  0.55532873  0.25000388  0.11049136  1
  P  P205  1  0.55445931  0.25128907  0.36082380  1
  P  P206  1  0.55465188  0.24992488  0.61045965  1
  P  P207  1  0.55655048  0.24926836  0.86086606  1
  P  P208  1  0.55238667  0.58334343  0.10957470  1
  P  P209  1  0.55375537  0.58233558  0.36147457  1
  P  P210  1  0.55595221  0.58225555  0.61019473  1
  P  P211  1  0.55561338  0.58407791  0.86038908  1
  P  P212  1  0.55296699  0.91637569  0.10951107  1
  P  P213  1  0.55548073  0.91636101  0.36076146  1
  P  P214  1  0.55442655  0.91793825  0.60884252  1
  P  P215  1  0.55503766  0.91650251  0.86154521  1
  P  P216  1  0.44705889  0.08233571  0.14030337  1
  P  P217  1  0.44686722  0.08471280  0.38960629  1
  P  P218  1  0.44794552  0.08422025  0.64038917  1
  P  P219  1  0.44731056  0.08311193  0.88923020  1
  P  P220  1  0.44670977  0.41754305  0.14016424  1
  P  P221  1  0.44699924  0.41630250  0.39029950  1
  P  P222  1  0.44681618  0.41561904  0.63921175  1
  P  P223  1  0.44587498  0.41688816  0.88892356  1
  P  P224  1  0.44516382  0.74999865  0.13870141  1
  P  P225  1  0.44700060  0.74878139  0.39029824  1
  P  P226  1  0.44756988  0.75022898  0.64028132  1
  P  P227  1  0.44720075  0.74993750  0.89035472  1
  P  P228  1  0.94553923  0.08357667  0.13794470  1
  P  P229  1  0.94676027  0.08369153  0.39065551  1
  P  P230  1  0.94463759  0.08438923  0.63906515  1
  P  P231  1  0.94530884  0.08261824  0.89033379  1
  P  P232  1  0.94578039  0.41624465  0.13843218  1
  P  P233  1  0.94723144  0.41673809  0.39044407  1
  P  P234  1  0.94467069  0.41685817  0.63869203  1
  P  P235  1  0.94545784  0.41696872  0.89070622  1
  P  P236  1  0.94577733  0.75078135  0.13985195  1
  P  P237  1  0.94417921  0.74974724  0.38955839  1
  P  P238  1  0.94606401  0.74877395  0.63924512  1
  P  P239  1  0.94714655  0.75049989  0.89001150  1
  P  P240  1  0.19291995  0.08456382  0.23584569  1
  P  P241  1  0.19587616  0.08392710  0.48397624  1
  P  P242  1  0.19825639  0.08318795  0.73505608  1
  P  P243  1  0.19498661  0.08225724  0.98643781  1
  P  P244  1  0.19335685  0.41640399  0.23620803  1
  P  P245  1  0.19754799  0.41625267  0.48417622  1
  P  P246  1  0.19836067  0.41714431  0.73475194  1
  P  P247  1  0.19522189  0.41726647  0.98640573  1
  P  P248  1  0.19584110  0.74899161  0.23558714  1
  P  P249  1  0.19491244  0.74956165  0.48552701  1
  P  P250  1  0.19569189  0.74984681  0.73415607  1
  P  P251  1  0.19806881  0.75031852  0.98568182  1
  P  P252  1  0.69754518  0.08432834  0.23524145  1
  P  P253  1  0.69692046  0.08356403  0.48627848  1
  P  P254  1  0.69442999  0.08400091  0.73498273  1
  P  P255  1  0.69735599  0.08329859  0.98489722  1
  P  P256  1  0.69546337  0.41607462  0.23713129  1
  P  P257  1  0.69589906  0.41651870  0.48577555  1
  P  P258  1  0.69538532  0.41667659  0.73355917  1
  P  P259  1  0.69783547  0.41645353  0.98551554  1
  P  P260  1  0.69896108  0.74987378  0.23491199  1
  P  P261  1  0.69850682  0.74976954  0.48490447  1
  P  P262  1  0.69556175  0.74937457  0.73588229  1
  P  P263  1  0.69572419  0.75001748  0.98485272  1
  P  P264  1  0.30300325  0.24986735  0.01548996  1
  P  P265  1  0.30187890  0.24996079  0.26548346  1
  P  P266  1  0.30580724  0.25116127  0.51423649  1
  P  P267  1  0.30579121  0.24978190  0.76363960  1
  P  P268  1  0.30297427  0.58428185  0.01557763  1
  P  P269  1  0.30361686  0.58275522  0.26464752  1
  P  P270  1  0.30496837  0.58194791  0.51369981  1
  P  P271  1  0.30233791  0.58261673  0.76450538  1
  P  P272  1  0.30249407  0.91592330  0.01592751  1
  P  P273  1  0.30389546  0.91700118  0.26423725  1
  P  P274  1  0.30282104  0.91697358  0.51514556  1
  P  P275  1  0.30223398  0.91757300  0.76476272  1
  P  P276  1  0.80273438  0.24999993  0.01536770  1
  P  P277  1  0.80447156  0.25014430  0.26499358  1
  P  P278  1  0.80439036  0.25049876  0.51370760  1
  P  P279  1  0.80206406  0.25025070  0.76334719  1
  P  P280  1  0.80150661  0.58230625  0.01474161  1
  P  P281  1  0.80443074  0.58373354  0.26580758  1
  P  P282  1  0.80470883  0.58275172  0.51414507  1
  P  P283  1  0.80288575  0.58305694  0.76385312  1
  P  P284  1  0.80380021  0.91759968  0.01375653  1
  P  P285  1  0.80608918  0.91608306  0.26423887  1
  P  P286  1  0.80396248  0.91689823  0.51394778  1
  P  P287  1  0.80378031  0.91649617  0.76588777  1
  O  O288  1  0.05705395  0.25021271  0.18777329  1
  O  O289  1  0.05555146  0.25038285  0.43680556  1
  O  O290  1  0.05615748  0.25045750  0.68668835  1
  O  O291  1  0.05564180  0.25013320  0.93598747  1
  O  O292  1  0.05874022  0.58360310  0.18728731  1
  O  O293  1  0.05553535  0.58288322  0.43649114  1
  O  O294  1  0.05857362  0.58260846  0.68779086  1
  O  O295  1  0.05999511  0.58372126  0.93718756  1
  O  O296  1  0.05540417  0.91643260  0.18608084  1
  O  O297  1  0.05452975  0.91671145  0.43701786  1
  O  O298  1  0.05899032  0.91699948  0.68821195  1
  O  O299  1  0.05877792  0.91640614  0.93712230  1
  O  O300  1  0.55946424  0.25000433  0.18725353  1
  O  O301  1  0.55940483  0.25023831  0.43756938  1
  O  O302  1  0.55856133  0.25018093  0.68722774  1
  O  O303  1  0.56087869  0.25016616  0.93766058  1
  O  O304  1  0.55648655  0.58315338  0.18629989  1
  O  O305  1  0.55936655  0.58339898  0.43808604  1
  O  O306  1  0.55964807  0.58320279  0.68702258  1
  O  O307  1  0.55943155  0.58284163  0.93719955  1
  O  O308  1  0.55699229  0.91638140  0.18624826  1
  O  O309  1  0.56064375  0.91641660  0.43748458  1
  O  O310  1  0.55699713  0.91665350  0.68567591  1
  O  O311  1  0.55916053  0.91680201  0.93826063  1
  O  O312  1  0.44439352  0.08316214  0.06346376  1
  O  O313  1  0.44315941  0.08402113  0.31289627  1
  O  O314  1  0.44409050  0.08354564  0.56369213  1
  O  O315  1  0.44212063  0.08294055  0.81258706  1
  O  O316  1  0.44389204  0.41674301  0.06334769  1
  O  O317  1  0.44315053  0.41631301  0.31361366  1
  O  O318  1  0.44236240  0.41661881  0.56257419  1
  O  O319  1  0.44160549  0.41708906  0.81214704  1
  O  O320  1  0.44151870  0.74995240  0.06192710  1
  O  O321  1  0.44363063  0.74927988  0.31345857  1
  O  O322  1  0.44398522  0.74995167  0.56354141  1
  O  O323  1  0.44309085  0.74998420  0.81365911  1
  O  O324  1  0.94071671  0.08374387  0.06134768  1
  O  O325  1  0.94404151  0.08369286  0.31385722  1
  O  O326  1  0.94038239  0.08377693  0.56229670  1
  O  O327  1  0.94229783  0.08346948  0.81353494  1
  O  O328  1  0.94064819  0.41692243  0.06182000  1
  O  O329  1  0.94431458  0.41687931  0.31368825  1
  O  O330  1  0.94057132  0.41683479  0.56195421  1
  O  O331  1  0.94183500  0.41712888  0.81390905  1
  O  O332  1  0.94277147  0.74976363  0.06306421  1
  O  O333  1  0.94125788  0.74965077  0.31272277  1
  O  O334  1  0.94096532  0.74936744  0.56252178  1
  O  O335  1  0.94417949  0.74958165  0.81322659  1
  O  O336  1  0.19016674  0.08325979  0.06317743  1
  O  O337  1  0.18864354  0.08385624  0.31261598  1
  O  O338  1  0.19276918  0.08405110  0.56077307  1
  O  O339  1  0.19430167  0.08393391  0.81177187  1
  O  O340  1  0.19092755  0.41599296  0.06317281  1
  O  O341  1  0.18949077  0.41617475  0.31299771  1
  O  O342  1  0.19357714  0.41617838  0.56087908  1
  O  O343  1  0.19434206  0.41651904  0.81143617  1
  O  O344  1  0.19437797  0.75032915  0.06233965  1
  O  O345  1  0.19223928  0.74970653  0.31233935  1
  O  O346  1  0.19034238  0.74945014  0.56226965  1
  O  O347  1  0.19364003  0.75000315  0.81101852  1
  O  O348  1  0.69441942  0.08283479  0.06164473  1
  O  O349  1  0.69457804  0.08379885  0.31202136  1
  O  O350  1  0.69232279  0.08365521  0.56293050  1
  O  O351  1  0.69097572  0.08324172  0.81178879  1
  O  O352  1  0.69475484  0.41670439  0.06224842  1
  O  O353  1  0.69124631  0.41679094  0.31383281  1
  O  O354  1  0.69140275  0.41624187  0.56241384  1
  O  O355  1  0.69332939  0.41653369  0.81041905  1
  O  O356  1  0.69353026  0.75030477  0.06168551  1
  O  O357  1  0.69518245  0.74975282  0.31159741  1
  O  O358  1  0.69466330  0.74975445  0.56159952  1
  O  O359  1  0.69137334  0.75014519  0.81258115  1
  O  O360  1  0.30629375  0.24989100  0.18881772  1
  O  O361  1  0.30948686  0.25044338  0.43746582  1
  O  O362  1  0.30986405  0.24958911  0.68685186  1
  O  O363  1  0.30707956  0.24989311  0.93870507  1
  O  O364  1  0.30845377  0.58279972  0.18799044  1
  O  O365  1  0.30912811  0.58253109  0.43692723  1
  O  O366  1  0.30636597  0.58294396  0.68780557  1
  O  O367  1  0.30680816  0.58358337  0.93886980  1
  O  O368  1  0.30857730  0.91706655  0.18755583  1
  O  O369  1  0.30631200  0.91698630  0.43834953  1
  O  O370  1  0.30607096  0.91725369  0.68811161  1
  O  O371  1  0.30620250  0.91678242  0.93916732  1
  O  O372  1  0.80932657  0.25011553  0.18829959  1
  O  O373  1  0.80931378  0.25052754  0.43701626  1
  O  O374  1  0.80709172  0.25017040  0.68671057  1
  O  O375  1  0.80532969  0.25006610  0.93857471  1
  O  O376  1  0.80728343  0.58259384  0.18902084  1
  O  O377  1  0.80946833  0.58241443  0.43747853  1
  O  O378  1  0.80797840  0.58342125  0.68719500  1
  O  O379  1  0.80512072  0.58283611  0.93805256  1
  O  O380  1  0.80982043  0.91718977  0.18741492  1
  O  O381  1  0.80840388  0.91724681  0.43721652  1
  O  O382  1  0.80702607  0.91627906  0.68905428  1
  O  O383  1  0.80827143  0.91684819  0.93710810  1
  O  O384  1  0.23312953  0.24970956  0.03987548  1
  O  O385  1  0.23152611  0.25058229  0.28910118  1
  O  O386  1  0.23579215  0.25021056  0.53867573  1
  O  O387  1  0.23589595  0.25021187  0.78841822  1
  O  O388  1  0.23281228  0.58363769  0.03991184  1
  O  O389  1  0.23311749  0.58249876  0.28802622  1
  O  O390  1  0.23488620  0.58203817  0.53766161  1
  O  O391  1  0.23230462  0.58348391  0.78905055  1
  O  O392  1  0.23242768  0.91619718  0.04057044  1
  O  O393  1  0.23367534  0.91688523  0.28797203  1
  O  O394  1  0.23302881  0.91724193  0.53971750  1
  O  O395  1  0.23216897  0.91683405  0.78942979  1
  O  O396  1  0.73277134  0.24986483  0.04051736  1
  O  O397  1  0.73417142  0.25024513  0.28865663  1
  O  O398  1  0.73375421  0.25033610  0.53683980  1
  O  O399  1  0.73173756  0.25053972  0.78683308  1
  O  O400  1  0.73155874  0.58330422  0.03977310  1
  O  O401  1  0.73475102  0.58345893  0.29100949  1
  O  O402  1  0.73411565  0.58296184  0.53738584  1
  O  O403  1  0.73251140  0.58239059  0.78717693  1
  O  O404  1  0.73343879  0.91663445  0.03773760  1
  O  O405  1  0.73614254  0.91696570  0.28867031  1
  O  O406  1  0.73372793  0.91644454  0.53815500  1
  O  O407  1  0.73394636  0.91692912  0.79024671  1
  O  O408  1  0.26308152  0.08372669  0.21191997  1
  O  O409  1  0.26562646  0.08403584  0.45911797  1
  O  O410  1  0.26827865  0.08325205  0.71034499  1
  O  O411  1  0.26508886  0.08257848  0.96253565  1
  O  O412  1  0.26347495  0.41632096  0.21202393  1
  O  O413  1  0.26759357  0.41638911  0.45983444  1
  O  O414  1  0.26843406  0.41657542  0.71023817  1
  O  O415  1  0.26520787  0.41752829  0.96215358  1
  O  O416  1  0.26561748  0.74933772  0.21093158  1
  O  O417  1  0.26495201  0.74946566  0.46155531  1
  O  O418  1  0.26523715  0.74972085  0.70830278  1
  O  O419  1  0.26794974  0.75028725  0.96049049  1
  O  O420  1  0.76716891  0.08375994  0.21009754  1
  O  O421  1  0.76726205  0.08419340  0.46223050  1
  O  O422  1  0.76435604  0.08313252  0.71050588  1
  O  O423  1  0.76729122  0.08394909  0.95970519  1
  O  O424  1  0.76550012  0.41652583  0.21300257  1
  O  O425  1  0.76639684  0.41656594  0.46214771  1
  O  O426  1  0.76487732  0.41672495  0.70787455  1
  O  O427  1  0.76755394  0.41605379  0.95985598  1
  O  O428  1  0.76887849  0.74965367  0.21018776  1
  O  O429  1  0.76870950  0.74963304  0.46077806  1
  O  O430  1  0.76549765  0.74988206  0.71139940  1
  O  O431  1  0.76529764  0.74949702  0.95909674  1
  O  O432  1  0.01579871  0.08334297  0.16195354  1
  O  O433  1  0.01670530  0.08387506  0.41579521  1
  O  O434  1  0.01461333  0.08376755  0.66337688  1
  O  O435  1  0.01500445  0.08378218  0.91532575  1
  O  O436  1  0.01613572  0.41633372  0.16197951  1
  O  O437  1  0.01723212  0.41646333  0.41553170  1
  O  O438  1  0.01458662  0.41693777  0.66327423  1
  O  O439  1  0.01532473  0.41662978  0.91512913  1
  O  O440  1  0.01545512  0.75024399  0.16505317  1
  O  O441  1  0.01399726  0.74956147  0.41464385  1
  O  O442  1  0.01635800  0.74941723  0.66287237  1
  O  O443  1  0.01673435  0.75059570  0.91537035  1
  O  O444  1  0.51659183  0.08280159  0.16593829  1
  O  O445  1  0.51672778  0.08478612  0.41426778  1
  O  O446  1  0.51810693  0.08407356  0.66460573  1
  O  O447  1  0.51775563  0.08305431  0.91257921  1
  O  O448  1  0.51627703  0.41718117  0.16559232  1
  O  O449  1  0.51711154  0.41625833  0.41486734  1
  O  O450  1  0.51722911  0.41586349  0.66288965  1
  O  O451  1  0.51599287  0.41685012  0.91283221  1
  O  O452  1  0.51499792  0.74971600  0.16379044  1
  O  O453  1  0.51678412  0.74920016  0.41518522  1
  O  O454  1  0.51738210  0.75033442  0.66486883  1
  O  O455  1  0.51737385  0.74996097  0.91438958  1
  O  O456  1  0.48535713  0.24991935  0.08616405  1
  O  O457  1  0.48401011  0.25088699  0.33732439  1
  O  O458  1  0.48434005  0.24990551  0.58657363  1
  O  O459  1  0.48641422  0.24989670  0.83702725  1
  O  O460  1  0.48232336  0.58365046  0.08521222  1
  O  O461  1  0.48332949  0.58221893  0.33808543  1
  O  O462  1  0.48585312  0.58271194  0.58628707  1
  O  O463  1  0.48563652  0.58344216  0.83589258  1
  O  O464  1  0.48291553  0.91644161  0.08507026  1
  O  O465  1  0.48527996  0.91637524  0.33733491  1
  O  O466  1  0.48482506  0.91740684  0.58344246  1
  O  O467  1  0.48512712  0.91668238  0.83692366  1
  O  O468  1  0.98257275  0.25022524  0.08690012  1
  O  O469  1  0.98186555  0.25024676  0.33543048  1
  O  O470  1  0.98152810  0.25047945  0.58594417  1
  O  O471  1  0.98242114  0.24993278  0.83453156  1
  O  O472  1  0.98518297  0.58341764  0.08602041  1
  O  O473  1  0.98207374  0.58239464  0.33511993  1
  O  O474  1  0.98299721  0.58311552  0.58760272  1
  O  O475  1  0.98517602  0.58331596  0.83673946  1
  O  O476  1  0.98206622  0.91736340  0.08477198  1
  O  O477  1  0.98087211  0.91742848  0.33567797  1
  O  O478  1  0.98449688  0.91644260  0.58754464  1
  O  O479  1  0.98347959  0.91660630  0.83682740  1
  O  O480  1  0.08630156  0.31511591  0.07783352  1
  O  O481  1  0.08591189  0.31522430  0.32732508  1
  O  O482  1  0.08537941  0.31538525  0.57703032  1
  O  O483  1  0.08620291  0.31513464  0.82669501  1
  O  O484  1  0.08929785  0.64746762  0.07721381  1
  O  O485  1  0.08618124  0.64705361  0.32672710  1
  O  O486  1  0.08634841  0.64873348  0.57785994  1
  O  O487  1  0.08901217  0.64827540  0.82726485  1
  O  O488  1  0.08625943  0.98229677  0.07697993  1
  O  O489  1  0.08470439  0.98260530  0.32797383  1
  O  O490  1  0.08803114  0.98109273  0.57813552  1
  O  O491  1  0.08704273  0.98193730  0.82707700  1
  O  O492  1  0.58907215  0.31500247  0.07741030  1
  O  O493  1  0.58763509  0.31656247  0.32795245  1
  O  O494  1  0.58816714  0.31485541  0.57701958  1
  O  O495  1  0.59017326  0.31416083  0.82727481  1
  O  O496  1  0.58664445  0.64818106  0.07697585  1
  O  O497  1  0.58674795  0.64722420  0.32731272  1
  O  O498  1  0.59000839  0.64692965  0.57672985  1
  O  O499  1  0.58902070  0.64952403  0.82806752  1
  O  O500  1  0.58714441  0.98128546  0.07673136  1
  O  O501  1  0.58870484  0.98159220  0.32763438  1
  O  O502  1  0.58846595  0.98341750  0.57716659  1
  O  O503  1  0.58883017  0.98145357  0.82849234  1
  O  O504  1  0.41293413  0.01696544  0.17197383  1
  O  O505  1  0.41321740  0.01967002  0.42266033  1
  O  O506  1  0.41408352  0.01929192  0.67363316  1
  O  O507  1  0.41392384  0.01817215  0.92266171  1
  O  O508  1  0.41240530  0.35261070  0.17279503  1
  O  O509  1  0.41313081  0.35126438  0.42306912  1
  O  O510  1  0.41356582  0.35035738  0.67212882  1
  O  O511  1  0.41248860  0.35190193  0.92213788  1
  O  O512  1  0.41132858  0.68478988  0.17137832  1
  O  O513  1  0.41316596  0.68352550  0.42247465  1
  O  O514  1  0.41382020  0.68507163  0.67296116  1
  O  O515  1  0.41340237  0.68493088  0.92323596  1
  O  O516  1  0.91231263  0.01845525  0.17119568  1
  O  O517  1  0.91260054  0.01872061  0.42323512  1
  O  O518  1  0.91090304  0.01944386  0.67214076  1
  O  O519  1  0.91177500  0.01711895  0.92249924  1
  O  O520  1  0.91254290  0.35124953  0.17184387  1
  O  O521  1  0.91277670  0.35183797  0.42278911  1
  O  O522  1  0.91101066  0.35163347  0.67148631  1
  O  O523  1  0.91111141  0.35198108  0.92310740  1
  O  O524  1  0.91123833  0.68599932  0.17258815  1
  O  O525  1  0.91028997  0.68461431  0.42219230  1
  O  O526  1  0.91308748  0.68351170  0.67246775  1
  O  O527  1  0.91308685  0.68548238  0.92268209  1
  O  O528  1  0.15888283  0.01982208  0.20245965  1
  O  O529  1  0.16147234  0.01908316  0.45142606  1
  O  O530  1  0.16409516  0.01809884  0.70286937  1
  O  O531  1  0.16176277  0.01677831  0.95386939  1
  O  O532  1  0.15960496  0.35139630  0.20304656  1
  O  O533  1  0.16344975  0.35127612  0.45150733  1
  O  O534  1  0.16441759  0.35225597  0.70163936  1
  O  O535  1  0.16192084  0.35236072  0.95261284  1
  O  O536  1  0.16213632  0.68371130  0.20336105  1
  O  O537  1  0.16137106  0.68446444  0.45252831  1
  O  O538  1  0.16119795  0.68472736  0.70208052  1
  O  O539  1  0.16408591  0.68527275  0.95306331  1
  O  O540  1  0.66334716  0.01940699  0.20263969  1
  O  O541  1  0.66411420  0.01830911  0.45294169  1
  O  O542  1  0.66026589  0.01927725  0.70191353  1
  O  O543  1  0.66348399  0.01821239  0.95211159  1
  O  O544  1  0.66227142  0.35077007  0.20425247  1
  O  O545  1  0.66248630  0.35154780  0.45236914  1
  O  O546  1  0.66095214  0.35166055  0.70130690  1
  O  O547  1  0.66361596  0.35141355  0.95320652  1
  O  O548  1  0.66476093  0.68490615  0.20243770  1
  O  O549  1  0.66496978  0.68455570  0.45205978  1
  O  O550  1  0.66227502  0.68410708  0.70303433  1
  O  O551  1  0.66098948  0.68508867  0.95296410  1
  O  O552  1  0.33669065  0.31502668  0.04818344  1
  O  O553  1  0.33603972  0.31479575  0.29835129  1
  O  O554  1  0.33915039  0.31658408  0.54687180  1
  O  O555  1  0.33965735  0.31497506  0.79621367  1
  O  O556  1  0.33649390  0.64957694  0.04806605  1
  O  O557  1  0.33700681  0.64762200  0.29817737  1
  O  O558  1  0.33846509  0.64681493  0.54720945  1
  O  O559  1  0.33637794  0.64766531  0.79720556  1
  O  O560  1  0.33662244  0.98072331  0.04904066  1
  O  O561  1  0.33718495  0.98211303  0.29744454  1
  O  O562  1  0.33688835  0.98209906  0.54755043  1
  O  O563  1  0.33589579  0.98265063  0.79764700  1
  O  O564  1  0.83676386  0.31497858  0.04801917  1
  O  O565  1  0.83803537  0.31500995  0.29840618  1
  O  O566  1  0.83732612  0.31570293  0.54717480  1
  O  O567  1  0.83540470  0.31512054  0.79678476  1
  O  O568  1  0.83601669  0.64716694  0.04721099  1
  O  O569  1  0.83870751  0.64893384  0.29749741  1
  O  O570  1  0.83796942  0.64776633  0.54765658  1
  O  O571  1  0.83572472  0.64804953  0.79773411  1
  O  O572  1  0.83666526  0.98301945  0.04690320  1
  O  O573  1  0.84020438  0.98074109  0.29774469  1
  O  O574  1  0.83697826  0.98210464  0.54717038  1
  O  O575  1  0.83805349  0.98142826  0.79820458  1
  O  O576  1  0.41257389  0.14729092  0.17268605  1
  O  O577  1  0.41304188  0.14991725  0.42191098  1
  O  O578  1  0.41421011  0.14935676  0.67303249  1
  O  O579  1  0.41425944  0.14812469  0.92279889  1
  O  O580  1  0.41259417  0.48282145  0.17204894  1
  O  O581  1  0.41314414  0.48124258  0.42328062  1
  O  O582  1  0.41333353  0.48042447  0.67310341  1
  O  O583  1  0.41242822  0.48198216  0.92193355  1
  O  O584  1  0.41162503  0.81533737  0.17135835  1
  O  O585  1  0.41281769  0.81384652  0.42271726  1
  O  O586  1  0.41363523  0.81537893  0.67267961  1
  O  O587  1  0.41325419  0.81481499  0.92334694  1
  O  O588  1  0.91248286  0.14862360  0.17163868  1
  O  O589  1  0.91250215  0.14876247  0.42288217  1
  O  O590  1  0.91123230  0.14974486  0.67169711  1
  O  O591  1  0.91029256  0.14715095  0.92299638  1
  O  O592  1  0.91275687  0.48131560  0.17213039  1
  O  O593  1  0.91315885  0.48173038  0.42309239  1
  O  O594  1  0.91109333  0.48199503  0.67169641  1
  O  O595  1  0.91162996  0.48199521  0.92360228  1
  O  O596  1  0.91185220  0.81615177  0.17167215  1
  O  O597  1  0.91044445  0.81495025  0.42229673  1
  O  O598  1  0.91253517  0.81371370  0.67258177  1
  O  O599  1  0.91274450  0.81562065  0.92180469  1
  O  O600  1  0.08603539  0.18495818  0.07784393  1
  O  O601  1  0.08575156  0.18513087  0.32739564  1
  O  O602  1  0.08533989  0.18538811  0.57718987  1
  O  O603  1  0.08638189  0.18505945  0.82681318  1
  O  O604  1  0.08855406  0.51735286  0.07799146  1
  O  O605  1  0.08615570  0.51705098  0.32756926  1
  O  O606  1  0.08670275  0.51860862  0.57743439  1
  O  O607  1  0.08881532  0.51828777  0.82705437  1
  O  O608  1  0.08606482  0.85238712  0.07631720  1
  O  O609  1  0.08456912  0.85248093  0.32723073  1
  O  O610  1  0.08759281  0.85068016  0.57852590  1
  O  O611  1  0.08759682  0.85199235  0.82709257  1
  O  O612  1  0.58922969  0.18506475  0.07750746  1
  O  O613  1  0.58820726  0.18664810  0.32701962  1
  O  O614  1  0.58822281  0.18492048  0.57725749  1
  O  O615  1  0.58969386  0.18395926  0.82801961  1
  O  O616  1  0.58623535  0.51837362  0.07651376  1
  O  O617  1  0.58689780  0.51706753  0.32852915  1
  O  O618  1  0.58928017  0.51691591  0.57751609  1
  O  O619  1  0.58973754  0.51933591  0.82708417  1
  O  O620  1  0.58704653  0.85145659  0.07684483  1
  O  O621  1  0.58868730  0.85126702  0.32738274  1
  O  O622  1  0.58932948  0.85335591  0.57608053  1
  O  O623  1  0.58840688  0.85118037  0.82867872  1
  O  O624  1  0.33689179  0.18476752  0.04807279  1
  O  O625  1  0.33536708  0.18495624  0.29856560  1
  O  O626  1  0.34021122  0.18658315  0.54751928  1
  O  O627  1  0.33914569  0.18442257  0.79663040  1
  O  O628  1  0.33700972  0.51956746  0.04892965  1
  O  O629  1  0.33711576  0.51774847  0.29793193  1
  O  O630  1  0.33848848  0.51666477  0.54638410  1
  O  O631  1  0.33589849  0.51749684  0.79729983  1
  O  O632  1  0.33656720  0.85075716  0.04807655  1
  O  O633  1  0.33735578  0.85195431  0.29741764  1
  O  O634  1  0.33665525  0.85194072  0.54781968  1
  O  O635  1  0.33623708  0.85248320  0.79745877  1
  O  O636  1  0.83687054  0.18486139  0.04768366  1
  O  O637  1  0.83791500  0.18516208  0.29830115  1
  O  O638  1  0.83761027  0.18560964  0.54736721  1
  O  O639  1  0.83498095  0.18519901  0.79698411  1
  O  O640  1  0.83500058  0.51713782  0.04748818  1
  O  O641  1  0.83874354  0.51893918  0.29882449  1
  O  O642  1  0.83761158  0.51754981  0.54763873  1
  O  O643  1  0.83634370  0.51814306  0.79704180  1
  O  O644  1  0.83786146  0.85294351  0.04715665  1
  O  O645  1  0.83935136  0.85062863  0.29664619  1
  O  O646  1  0.83748991  0.85174688  0.54691694  1
  O  O647  1  0.83777600  0.85158122  0.79863002  1
  O  O648  1  0.15983709  0.15003112  0.20301122  1
  O  O649  1  0.16152285  0.14895004  0.45170350  1
  O  O650  1  0.16453584  0.14821505  0.70188317  1
  O  O651  1  0.16149197  0.14707599  0.95269111  1
  O  O652  1  0.15983257  0.48160282  0.20335588  1
  O  O653  1  0.16323396  0.48100487  0.45134345  1
  O  O654  1  0.16470818  0.48235643  0.70211429  1
  O  O655  1  0.16164095  0.48264184  0.95413404  1
  O  O656  1  0.16181344  0.81398932  0.20274626  1
  O  O657  1  0.16137530  0.81462895  0.45241329  1
  O  O658  1  0.16119961  0.81499111  0.70232115  1
  O  O659  1  0.16402528  0.81542350  0.95310113  1
  O  O660  1  0.66365878  0.14961923  0.20326135  1
  O  O661  1  0.66337150  0.14861612  0.45306893  1
  O  O662  1  0.66108904  0.14924842  0.70212387  1
  O  O663  1  0.66300150  0.14830490  0.95274244  1
  O  O664  1  0.66186319  0.48097582  0.20370131  1
  O  O665  1  0.66254905  0.48162194  0.45253219  1
  O  O666  1  0.66091910  0.48167698  0.70155304  1
  O  O667  1  0.66375542  0.48149354  0.95297422  1
  O  O668  1  0.66522102  0.81492372  0.20217925  1
  O  O669  1  0.66503933  0.81485241  0.45206624  1
  O  O670  1  0.66193443  0.81433197  0.70254998  1
  O  O671  1  0.66167328  0.81524179  0.95255616  1
