# generated using pymatgen
data_Na2MnFe(PO4)2
_symmetry_space_group_name_H-M   'P 1'
_cell_length_a   21.09110610
_cell_length_b   18.94455927
_cell_length_c   20.04967641
_cell_angle_alpha   89.99986917
_cell_angle_beta   90.00219009
_cell_angle_gamma   89.99995468
_symmetry_Int_Tables_number   1
_chemical_formula_structural   Na2MnFe(PO4)2
_chemical_formula_sum   'Na96 Mn48 Fe48 P96 O384'
_cell_volume   8011.08297461
_cell_formula_units_Z   48
loop_
 _symmetry_equiv_pos_site_id
 _symmetry_equiv_pos_as_xyz
  1  'x, y, z'
loop_
 _atom_site_type_symbol
 _atom_site_label
 _atom_site_symmetry_multiplicity
 _atom_site_fract_x
 _atom_site_fract_y
 _atom_site_fract_z
 _atom_site_occupancy
  Na  Na0  1  0.00037101  0.00055699  -0.00051094  1
  Na  Na1  1  -0.00115354  0.00000770  0.25065292  1
  Na  Na2  1  -0.00230567  -0.00060234  0.49938837  1
  Na  Na3  1  -0.00210125  -0.00097076  0.75046880  1
  Na  Na4  1  -0.00177180  0.33285721  -0.00054672  1
  Na  Na5  1  -0.00158451  0.33341777  0.25094928  1
  Na  Na6  1  -0.00089300  0.33281080  0.50011730  1
  Na  Na7  1  0.00187099  0.33422918  0.74882545  1
  Na  Na8  1  -0.00018771  0.66730675  0.00002837  1
  Na  Na9  1  -0.00210861  0.66627455  0.25015226  1
  Na  Na10  1  -0.00108887  0.66722615  0.49984824  1
  Na  Na11  1  -0.00258292  0.66641986  0.75036505  1
  Na  Na12  1  0.50180122  0.00040938  -0.00057899  1
  Na  Na13  1  0.50151144  -0.00019289  0.24943310  1
  Na  Na14  1  0.49895332  -0.00099131  0.50128911  1
  Na  Na15  1  0.49866940  -0.00071071  0.75071237  1
  Na  Na16  1  0.49928469  0.33255798  0.00124307  1
  Na  Na17  1  0.50272317  0.33457767  0.24939485  1
  Na  Na18  1  0.50176967  0.33300987  0.49978937  1
  Na  Na19  1  0.50227042  0.33368624  0.75027285  1
  Na  Na20  1  0.49853490  0.66721178  -0.00057173  1
  Na  Na21  1  0.49933360  0.66728617  0.24975749  1
  Na  Na22  1  0.49934639  0.66674451  0.50013503  1
  Na  Na23  1  0.49920712  0.66698498  0.75001437  1
  Na  Na24  1  0.25000976  -0.00054175  0.12393044  1
  Na  Na25  1  0.25003641  -0.00037650  0.37516204  1
  Na  Na26  1  0.25280746  0.00090495  0.62588548  1
  Na  Na27  1  0.25211126  0.00055648  0.87418440  1
  Na  Na28  1  0.25006050  0.33357385  0.12501350  1
  Na  Na29  1  0.24861274  0.33265196  0.37508101  1
  Na  Na30  1  0.24933494  0.33275696  0.62506146  1
  Na  Na31  1  0.24997085  0.33331755  0.87533153  1
  Na  Na32  1  0.25100620  0.66714672  0.12597111  1
  Na  Na33  1  0.25114000  0.66705971  0.37436060  1
  Na  Na34  1  0.25047177  0.66747443  0.62471271  1
  Na  Na35  1  0.24941204  0.66672281  0.87477450  1
  Na  Na36  1  0.74886124  -0.00066258  0.12369792  1
  Na  Na37  1  0.75120478  0.00057514  0.37537138  1
  Na  Na38  1  0.75081619  -0.00003202  0.62609620  1
  Na  Na39  1  0.74921945  -0.00051712  0.87499210  1
  Na  Na40  1  0.75160652  0.33373064  0.12597310  1
  Na  Na41  1  0.75032308  0.33407332  0.37473368  1
  Na  Na42  1  0.74763524  0.33262099  0.62445229  1
  Na  Na43  1  0.75060538  0.33357192  0.87472507  1
  Na  Na44  1  0.75120608  0.66705523  0.12505628  1
  Na  Na45  1  0.75110384  0.66776579  0.37549393  1
  Na  Na46  1  0.75156768  0.66759993  0.62437407  1
  Na  Na47  1  0.75176088  0.66754145  0.87477849  1
  Na  Na48  1  -0.00023823  0.16634035  -0.00079468  1
  Na  Na49  1  -0.00327502  0.16830647  0.25104178  1
  Na  Na50  1  0.00089345  0.16599289  0.50032803  1
  Na  Na51  1  0.00083838  0.16627963  0.74964314  1
  Na  Na52  1  0.00053478  0.49971605  0.00017434  1
  Na  Na53  1  -0.00088765  0.50020980  0.25066873  1
  Na  Na54  1  -0.00261541  0.50105812  0.49938616  1
  Na  Na55  1  -0.00210925  0.50150364  0.75027246  1
  Na  Na56  1  -0.00148498  0.83341415  -0.00007082  1
  Na  Na57  1  -0.00079220  0.83242887  0.24982918  1
  Na  Na58  1  -0.00189682  0.83305110  0.49998130  1
  Na  Na59  1  -0.00167612  0.83314087  0.74967943  1
  Na  Na60  1  0.50166323  0.16596719  0.00021427  1
  Na  Na61  1  0.50324106  0.16641310  0.24960800  1
  Na  Na62  1  0.50108968  0.16717337  0.50029819  1
  Na  Na63  1  0.49959029  0.16707827  0.75001808  1
  Na  Na64  1  0.49824489  0.50075857  0.00052065  1
  Na  Na65  1  0.49844288  0.50136686  0.24908452  1
  Na  Na66  1  0.50203536  0.49928375  0.50046001  1
  Na  Na67  1  0.50094526  0.49945385  0.75019553  1
  Na  Na68  1  0.49929008  0.83315280  -0.00055687  1
  Na  Na69  1  0.50024312  0.83219928  0.24932107  1
  Na  Na70  1  0.49874347  0.83266798  0.50089820  1
  Na  Na71  1  0.49883829  0.83349828  0.75052559  1
  Na  Na72  1  0.25071354  0.16598199  0.12470018  1
  Na  Na73  1  0.25043682  0.16676684  0.37540191  1
  Na  Na74  1  0.25059993  0.16667534  0.62574243  1
  Na  Na75  1  0.24925293  0.16685309  0.87415665  1
  Na  Na76  1  0.24949667  0.50042998  0.12568060  1
  Na  Na77  1  0.24987706  0.50017548  0.37401224  1
  Na  Na78  1  0.24897475  0.50091307  0.62432412  1
  Na  Na79  1  0.25088892  0.49957376  0.87566342  1
  Na  Na80  1  0.25202273  0.83228642  0.12445766  1
  Na  Na81  1  0.25000654  0.83282934  0.37504021  1
  Na  Na82  1  0.25196431  0.83226844  0.62586608  1
  Na  Na83  1  0.25196639  0.83264822  0.87434040  1
  Na  Na84  1  0.75097797  0.16648136  0.12435482  1
  Na  Na85  1  0.74932324  0.16774548  0.37477229  1
  Na  Na86  1  0.74890884  0.16655983  0.62509297  1
  Na  Na87  1  0.74794353  0.16701004  0.87597123  1
  Na  Na88  1  0.75305492  0.49931622  0.12528221  1
  Na  Na89  1  0.75220967  0.49948398  0.37601307  1
  Na  Na90  1  0.75051371  0.50030064  0.62462004  1
  Na  Na91  1  0.75248992  0.49980696  0.87381726  1
  Na  Na92  1  0.74924898  0.83267170  0.12454312  1
  Na  Na93  1  0.74978560  0.83241676  0.37536292  1
  Na  Na94  1  0.75029278  0.83281414  0.62507741  1
  Na  Na95  1  0.75065248  0.83289383  0.87496554  1
  Mn  Mn96  1  0.85736021  0.41609985  0.75190622  1
  Mn  Mn97  1  0.10735039  0.08294187  0.37265660  1
  Mn  Mn98  1  0.64188101  0.91678158  0.49842645  1
  Mn  Mn99  1  0.64268755  0.58345075  0.49756671  1
  Mn  Mn100  1  0.10769268  0.74991043  0.12276218  1
  Mn  Mn101  1  0.14210088  0.91678200  0.24772518  1
  Mn  Mn102  1  0.39362913  0.25076259  0.37693072  1
  Mn  Mn103  1  0.14269549  0.91625455  0.99715579  1
  Mn  Mn104  1  0.60863191  0.41795196  0.12233365  1
  Mn  Mn105  1  0.14147478  0.58313688  0.74785050  1
  Mn  Mn106  1  0.39319135  0.91652706  0.12670280  1
  Mn  Mn107  1  0.39220665  0.58253573  0.62700426  1
  Mn  Mn108  1  0.64237170  0.91692048  0.24771735  1
  Mn  Mn109  1  0.35779178  0.41634672  0.25252501  1
  Mn  Mn110  1  0.39154492  0.58332407  0.87763336  1
  Mn  Mn111  1  0.35820858  0.08335190  0.50214525  1
  Mn  Mn112  1  0.10749366  0.41729848  0.62216898  1
  Mn  Mn113  1  0.64270951  0.58305783  0.24794083  1
  Mn  Mn114  1  0.89148312  0.91631839  0.37725948  1
  Mn  Mn115  1  0.60862952  0.08287122  0.37233783  1
  Mn  Mn116  1  0.35906231  0.08324851  0.25208928  1
  Mn  Mn117  1  0.64271593  0.58329492  0.99788632  1
  Mn  Mn118  1  0.64302946  0.58367344  0.74783734  1
  Mn  Mn119  1  0.14265610  0.91684031  0.74793346  1
  Mn  Mn120  1  0.10637777  0.41714719  0.37332536  1
  Mn  Mn121  1  0.85739994  0.08340764  0.50299080  1
  Mn  Mn122  1  0.89134364  0.91753628  0.12731029  1
  Mn  Mn123  1  0.60727934  0.08296091  0.62340289  1
  Mn  Mn124  1  0.64314128  0.25040875  0.99784732  1
  Mn  Mn125  1  0.60824204  0.41646705  0.87377312  1
  Mn  Mn126  1  0.10759786  0.08241411  0.62316291  1
  Mn  Mn127  1  0.60755881  0.74997061  0.87260860  1
  Mn  Mn128  1  0.14212951  0.91640884  0.49859970  1
  Mn  Mn129  1  0.35836372  0.41658711  0.75196202  1
  Mn  Mn130  1  0.89247959  0.58304493  0.12736435  1
  Mn  Mn131  1  0.14201377  0.24999435  0.99800726  1
  Mn  Mn132  1  0.10694749  0.75025006  0.62296581  1
  Mn  Mn133  1  0.39227159  0.91628390  0.37750357  1
  Mn  Mn134  1  0.89188806  0.24973792  0.62759896  1
  Mn  Mn135  1  0.39244451  0.24966878  0.87740665  1
  Mn  Mn136  1  0.10787493  0.41685012  0.87294405  1
  Mn  Mn137  1  0.89241229  0.24992023  0.87623294  1
  Mn  Mn138  1  0.14236301  0.58346025  0.24812314  1
  Mn  Mn139  1  0.85752389  0.08338146  0.00194387  1
  Mn  Mn140  1  0.14110967  0.24944571  0.24778627  1
  Mn  Mn141  1  0.10733923  0.08399788  0.12282165  1
  Mn  Mn142  1  0.39299418  0.24990235  0.12763945  1
  Mn  Mn143  1  0.35812970  0.41671069  0.50179930  1
  Fe  Fe144  1  0.10665064  0.75063602  0.87361995  1
  Fe  Fe145  1  0.35776613  0.08355696  0.00161933  1
  Fe  Fe146  1  0.85685695  0.08330628  0.25113890  1
  Fe  Fe147  1  0.35707404  0.41683169  0.00227768  1
  Fe  Fe148  1  0.85678781  0.75009679  0.25212022  1
  Fe  Fe149  1  0.60720771  0.74986156  0.12307860  1
  Fe  Fe150  1  0.35788703  0.75018803  0.25230000  1
  Fe  Fe151  1  0.39305864  0.58296467  0.37689872  1
  Fe  Fe152  1  0.14318595  0.24985811  0.74811671  1
  Fe  Fe153  1  0.64294495  0.91632416  0.74840154  1
  Fe  Fe154  1  0.89246560  0.58385990  0.62655721  1
  Fe  Fe155  1  0.60694477  0.74925190  0.37352803  1
  Fe  Fe156  1  0.64258930  0.25013698  0.49808599  1
  Fe  Fe157  1  0.64447037  0.25025808  0.24842458  1
  Fe  Fe158  1  0.89234862  0.58356483  0.37712514  1
  Fe  Fe159  1  0.60703173  0.08305295  0.87275900  1
  Fe  Fe160  1  0.60817849  0.41797283  0.37280866  1
  Fe  Fe161  1  0.85782400  0.41672842  0.25238899  1
  Fe  Fe162  1  0.85722704  0.74994137  0.00176518  1
  Fe  Fe163  1  0.10676607  0.74996882  0.37372622  1
  Fe  Fe164  1  0.89167855  0.25030509  0.37775873  1
  Fe  Fe165  1  0.85635579  0.41670258  0.50228385  1
  Fe  Fe166  1  0.10652782  0.41640380  0.12350171  1
  Fe  Fe167  1  0.60858073  0.08274866  0.12279567  1
  Fe  Fe168  1  0.85710111  0.74989872  0.50208522  1
  Fe  Fe169  1  0.39341162  0.91709559  0.87695748  1
  Fe  Fe170  1  0.60689968  0.74966147  0.62366528  1
  Fe  Fe171  1  0.10763377  0.08250101  0.87289049  1
  Fe  Fe172  1  0.35687367  0.74967699  0.00172186  1
  Fe  Fe173  1  0.14208525  0.58350819  0.49777885  1
  Fe  Fe174  1  0.85697196  0.75089393  0.75212196  1
  Fe  Fe175  1  0.35771607  0.08353728  0.75240186  1
  Fe  Fe176  1  0.64277794  0.91579636  0.99755439  1
  Fe  Fe177  1  0.60781537  0.41716594  0.62315743  1
  Fe  Fe178  1  0.35713132  0.74959234  0.50158946  1
  Fe  Fe179  1  0.14292095  0.25018944  0.49850789  1
  Fe  Fe180  1  0.39263997  0.91663254  0.62734790  1
  Fe  Fe181  1  0.89288271  0.58405407  0.87739953  1
  Fe  Fe182  1  0.89232938  0.91651098  0.87655634  1
  Fe  Fe183  1  0.85659595  0.08300317  0.75207999  1
  Fe  Fe184  1  0.89150215  0.91639047  0.62758491  1
  Fe  Fe185  1  0.35753419  0.74989509  0.75199893  1
  Fe  Fe186  1  0.39311123  0.24999694  0.62659884  1
  Fe  Fe187  1  0.89230328  0.25013995  0.12688688  1
  Fe  Fe188  1  0.85854026  0.41708862  0.00199323  1
  Fe  Fe189  1  0.14309380  0.58364326  0.99883190  1
  Fe  Fe190  1  0.64232714  0.24936073  0.74819455  1
  Fe  Fe191  1  0.39213297  0.58359207  0.12632241  1
  P  P192  1  0.05132477  0.25100312  0.11005558  1
  P  P193  1  0.05249919  0.25030261  0.36154514  1
  P  P194  1  0.05504432  0.24966691  0.61037375  1
  P  P195  1  0.05434540  0.24924943  0.85909866  1
  P  P196  1  0.05396771  0.58268417  0.10964495  1
  P  P197  1  0.05292305  0.58442019  0.36134791  1
  P  P198  1  0.05219275  0.58391693  0.60923420  1
  P  P199  1  0.05333945  0.58473205  0.86167600  1
  P  P200  1  0.05283101  0.91672819  0.10956648  1
  P  P201  1  0.05303340  0.91524096  0.36025697  1
  P  P202  1  0.05107894  0.91655238  0.61024632  1
  P  P203  1  0.05228445  0.91604636  0.86009074  1
  P  P204  1  0.55600432  0.24972567  0.11136245  1
  P  P205  1  0.55649145  0.25128623  0.36014042  1
  P  P206  1  0.55448728  0.25034545  0.61077231  1
  P  P207  1  0.55436737  0.24921858  0.85986755  1
  P  P208  1  0.55224433  0.58469790  0.10986530  1
  P  P209  1  0.55264524  0.58371622  0.36022264  1
  P  P210  1  0.55387260  0.58391701  0.61022680  1
  P  P211  1  0.55317769  0.58336476  0.86004599  1
  P  P212  1  0.55490358  0.91577983  0.10908803  1
  P  P213  1  0.55328978  0.91495600  0.36026189  1
  P  P214  1  0.55316531  0.91552156  0.61207015  1
  P  P215  1  0.55440601  0.91703659  0.86055567  1
  P  P216  1  0.44804096  0.08302395  0.13866064  1
  P  P217  1  0.44802293  0.08357746  0.39031543  1
  P  P218  1  0.44574635  0.08364821  0.64063109  1
  P  P219  1  0.44632619  0.08271680  0.88947448  1
  P  P220  1  0.44556017  0.41753051  0.13893911  1
  P  P221  1  0.44872921  0.41759544  0.38979969  1
  P  P222  1  0.44841263  0.41564930  0.63968912  1
  P  P223  1  0.44625671  0.41625235  0.89122049  1
  P  P224  1  0.44563753  0.74931339  0.13899894  1
  P  P225  1  0.44589990  0.74894363  0.38965104  1
  P  P226  1  0.44559079  0.75009719  0.63954263  1
  P  P227  1  0.44460281  0.75089675  0.88937669  1
  P  P228  1  0.94576363  0.08436067  0.14048158  1
  P  P229  1  0.94454531  0.08423526  0.38908286  1
  P  P230  1  0.94540688  0.08263478  0.64102178  1
  P  P231  1  0.94636912  0.08257030  0.88847759  1
  P  P232  1  0.94588963  0.41617333  0.13987188  1
  P  P233  1  0.94359469  0.41677941  0.38980824  1
  P  P234  1  0.94515907  0.41747998  0.63861123  1
  P  P235  1  0.94602776  0.41736530  0.89003633  1
  P  P236  1  0.94459999  0.75007170  0.13963885  1
  P  P237  1  0.94519684  0.74928966  0.38951624  1
  P  P238  1  0.94419042  0.74985913  0.63948736  1
  P  P239  1  0.94530918  0.75061685  0.88930495  1
  P  P240  1  0.19717027  0.08317253  0.23455501  1
  P  P241  1  0.19667772  0.08380230  0.48538458  1
  P  P242  1  0.19678470  0.08338618  0.73623495  1
  P  P243  1  0.19732371  0.08314685  0.98397922  1
  P  P244  1  0.19524623  0.41650305  0.23449306  1
  P  P245  1  0.19634185  0.41681713  0.48482375  1
  P  P246  1  0.19662265  0.41623418  0.73492833  1
  P  P247  1  0.19644551  0.41755026  0.98676210  1
  P  P248  1  0.19685476  0.74996084  0.23614419  1
  P  P249  1  0.19674227  0.74932855  0.48466811  1
  P  P250  1  0.19642341  0.75029587  0.73623422  1
  P  P251  1  0.19709406  0.74922656  0.98454240  1
  P  P252  1  0.69770141  0.08416421  0.23434022  1
  P  P253  1  0.69645389  0.08365477  0.48543589  1
  P  P254  1  0.69609169  0.08255116  0.73671778  1
  P  P255  1  0.69470117  0.08223710  0.98519409  1
  P  P256  1  0.69749667  0.41687229  0.23629191  1
  P  P257  1  0.69567541  0.41652021  0.48559209  1
  P  P258  1  0.69596267  0.41612201  0.73443866  1
  P  P259  1  0.69928022  0.41729320  0.98503186  1
  P  P260  1  0.69601154  0.74947028  0.23560922  1
  P  P261  1  0.69585089  0.74996703  0.48590143  1
  P  P262  1  0.69711949  0.75084128  0.73460640  1
  P  P263  1  0.69660578  0.75006934  0.98592790  1
  P  P264  1  0.30369483  0.24948985  0.01485977  1
  P  P265  1  0.30321789  0.24991123  0.26536602  1
  P  P266  1  0.30332489  0.25033580  0.51554255  1
  P  P267  1  0.30397656  0.24962374  0.76385060  1
  P  P268  1  0.30271296  0.58373651  0.01565170  1
  P  P269  1  0.30565541  0.58397196  0.26452816  1
  P  P270  1  0.30320279  0.58385439  0.51334816  1
  P  P271  1  0.30315175  0.58385558  0.76484274  1
  P  P272  1  0.30518726  0.91686634  0.01307029  1
  P  P273  1  0.30391609  0.91595100  0.26473076  1
  P  P274  1  0.30413634  0.91539976  0.51595035  1
  P  P275  1  0.30601708  0.91663971  0.76442120  1
  P  P276  1  0.80466795  0.25083903  0.01535632  1
  P  P277  1  0.80464632  0.24996219  0.26428715  1
  P  P278  1  0.80281156  0.25096945  0.51415412  1
  P  P279  1  0.80153402  0.24878688  0.76478614  1
  P  P280  1  0.80514379  0.58365593  0.01390804  1
  P  P281  1  0.80436316  0.58354538  0.26553194  1
  P  P282  1  0.80520400  0.58351434  0.51428406  1
  P  P283  1  0.80562336  0.58462562  0.76407151  1
  P  P284  1  0.80332241  0.91587526  0.01341413  1
  P  P285  1  0.80290782  0.91653875  0.26470019  1
  P  P286  1  0.80364821  0.91561038  0.51597857  1
  P  P287  1  0.80382414  0.91647896  0.76458796  1
  O  O288  1  0.05469435  0.25049793  0.18681835  1
  O  O289  1  0.05809118  0.24997463  0.43811108  1
  O  O290  1  0.05982138  0.24984327  0.68713087  1
  O  O291  1  0.05692542  0.24971363  0.93591587  1
  O  O292  1  0.05676566  0.58365838  0.18659277  1
  O  O293  1  0.05785033  0.58391086  0.43798063  1
  O  O294  1  0.05596510  0.58377948  0.68599675  1
  O  O295  1  0.05864068  0.58400887  0.93822949  1
  O  O296  1  0.05607015  0.91638271  0.18638626  1
  O  O297  1  0.05610946  0.91584539  0.43699515  1
  O  O298  1  0.05581373  0.91651973  0.68687886  1
  O  O299  1  0.05620413  0.91626005  0.93671214  1
  O  O300  1  0.56073899  0.25042455  0.18808616  1
  O  O301  1  0.56000535  0.25032654  0.43700443  1
  O  O302  1  0.55917722  0.24955788  0.68750475  1
  O  O303  1  0.55742595  0.24999626  0.93665066  1
  O  O304  1  0.55640605  0.58401718  0.18655248  1
  O  O305  1  0.55649848  0.58351176  0.43658384  1
  O  O306  1  0.55688940  0.58401957  0.68707796  1
  O  O307  1  0.55656045  0.58374180  0.93675402  1
  O  O308  1  0.55751583  0.91581367  0.18596997  1
  O  O309  1  0.55590886  0.91562259  0.43701330  1
  O  O310  1  0.55821413  0.91615189  0.68871286  1
  O  O311  1  0.55907799  0.91595688  0.93721900  1
  O  O312  1  0.44267162  0.08338305  0.06207149  1
  O  O313  1  0.44534196  0.08364525  0.31343903  1
  O  O314  1  0.44325368  0.08373919  0.56402436  1
  O  O315  1  0.44145757  0.08365556  0.81277448  1
  O  O316  1  0.44066720  0.41663922  0.06224209  1
  O  O317  1  0.44465155  0.41695295  0.31313710  1
  O  O318  1  0.44442560  0.41608990  0.56307215  1
  O  O319  1  0.44353753  0.41625010  0.81437943  1
  O  O320  1  0.44070056  0.74977973  0.06232392  1
  O  O321  1  0.44169172  0.74998006  0.31289815  1
  O  O322  1  0.44106387  0.74943426  0.56286535  1
  O  O323  1  0.44073611  0.74977175  0.81259730  1
  O  O324  1  0.94311981  0.08329016  0.06377233  1
  O  O325  1  0.94015160  0.08377634  0.31233258  1
  O  O326  1  0.94249707  0.08355656  0.56426052  1
  O  O327  1  0.94094882  0.08328216  0.81171956  1
  O  O328  1  0.94176890  0.41685502  0.06310453  1
  O  O329  1  0.94028839  0.41669029  0.31290319  1
  O  O330  1  0.94088348  0.41627113  0.56188654  1
  O  O331  1  0.94296000  0.41666480  0.81323387  1
  O  O332  1  0.94047929  0.75026377  0.06281363  1
  O  O333  1  0.94058890  0.74994992  0.31283855  1
  O  O334  1  0.94065621  0.75010978  0.56267550  1
  O  O335  1  0.94097582  0.75061509  0.81260160  1
  O  O336  1  0.19305587  0.08294878  0.06068850  1
  O  O337  1  0.19336408  0.08336236  0.31129620  1
  O  O338  1  0.19372358  0.08298870  0.56220457  1
  O  O339  1  0.19145635  0.08234889  0.81282541  1
  O  O340  1  0.19128517  0.41665812  0.06335939  1
  O  O341  1  0.19147862  0.41655893  0.31121871  1
  O  O342  1  0.19357740  0.41722174  0.56158791  1
  O  O343  1  0.19362714  0.41691127  0.81172401  1
  O  O344  1  0.19349040  0.75018975  0.06127553  1
  O  O345  1  0.19133581  0.74980717  0.31267802  1
  O  O346  1  0.19294200  0.74973727  0.56142081  1
  O  O347  1  0.19095583  0.75053726  0.81279804  1
  O  O348  1  0.69116260  0.08285036  0.06203638  1
  O  O349  1  0.69438895  0.08331979  0.31106110  1
  O  O350  1  0.69311426  0.08285147  0.56222426  1
  O  O351  1  0.69160405  0.08268986  0.81335812  1
  O  O352  1  0.69523853  0.41762770  0.06170773  1
  O  O353  1  0.69243032  0.41812598  0.31293729  1
  O  O354  1  0.69085445  0.41726369  0.56229243  1
  O  O355  1  0.69338586  0.41702426  0.81124674  1
  O  O356  1  0.69172829  0.74929917  0.06250553  1
  O  O357  1  0.69098687  0.74934478  0.31230144  1
  O  O358  1  0.69078436  0.74982680  0.56251640  1
  O  O359  1  0.69337052  0.75010764  0.81133965  1
  O  O360  1  0.30705801  0.25002153  0.18861749  1
  O  O361  1  0.30762447  0.25049165  0.43886673  1
  O  O362  1  0.30904367  0.25026899  0.68723944  1
  O  O363  1  0.30639725  0.24964870  0.93809986  1
  O  O364  1  0.30947370  0.58344001  0.18777902  1
  O  O365  1  0.30843905  0.58285445  0.43674123  1
  O  O366  1  0.30637526  0.58351377  0.68805105  1
  O  O367  1  0.30588847  0.58352938  0.93892848  1
  O  O368  1  0.30725741  0.91637396  0.18795252  1
  O  O369  1  0.30676618  0.91613894  0.43914269  1
  O  O370  1  0.30977519  0.91656844  0.68759896  1
  O  O371  1  0.30897462  0.91708559  0.93635238  1
  O  O372  1  0.80874309  0.25020416  0.18759193  1
  O  O373  1  0.80733583  0.25051880  0.43747763  1
  O  O374  1  0.80524651  0.24914199  0.68813760  1
  O  O375  1  0.80737577  0.24992695  0.93853827  1
  O  O376  1  0.80701384  0.58328109  0.18917079  1
  O  O377  1  0.80882616  0.58387494  0.43732584  1
  O  O378  1  0.80898481  0.58383073  0.68732624  1
  O  O379  1  0.80884130  0.58378214  0.93687992  1
  O  O380  1  0.80510645  0.91633369  0.18795226  1
  O  O381  1  0.80649056  0.91616233  0.43917688  1
  O  O382  1  0.80802369  0.91657316  0.68790309  1
  O  O383  1  0.80815789  0.91653391  0.93673697  1
  O  O384  1  0.23402828  0.24947848  0.04025502  1
  O  O385  1  0.23341570  0.24987028  0.28996394  1
  O  O386  1  0.23308071  0.25006807  0.53950655  1
  O  O387  1  0.23366482  0.24975992  0.78764419  1
  O  O388  1  0.23273889  0.58398489  0.04062316  1
  O  O389  1  0.23551642  0.58341313  0.28849048  1
  O  O390  1  0.23283927  0.58399017  0.53705026  1
  O  O391  1  0.23355075  0.58331233  0.79008168  1
  O  O392  1  0.23532669  0.91612024  0.03783423  1
  O  O393  1  0.23432045  0.91611968  0.28997414  1
  O  O394  1  0.23454065  0.91628218  0.54157220  1
  O  O395  1  0.23595435  0.91663904  0.78864264  1
  O  O396  1  0.73497711  0.25035768  0.04049136  1
  O  O397  1  0.73430199  0.25063971  0.28830406  1
  O  O398  1  0.73251366  0.25027888  0.53796777  1
  O  O399  1  0.73158224  0.24970023  0.78954913  1
  O  O400  1  0.73545365  0.58348951  0.03896668  1
  O  O401  1  0.73470748  0.58357473  0.29132245  1
  O  O402  1  0.73537392  0.58362964  0.53855344  1
  O  O403  1  0.73567428  0.58386254  0.78867654  1
  O  O404  1  0.73305381  0.91593150  0.03721924  1
  O  O405  1  0.73351152  0.91654843  0.29083594  1
  O  O406  1  0.73397532  0.91631947  0.54111252  1
  O  O407  1  0.73350676  0.91613794  0.78851326  1
  O  O408  1  0.26688316  0.08297065  0.20967223  1
  O  O409  1  0.26632005  0.08340336  0.46021150  1
  O  O410  1  0.26726578  0.08324477  0.71304273  1
  O  O411  1  0.26756816  0.08360966  0.96005527  1
  O  O412  1  0.26521142  0.41691960  0.21037036  1
  O  O413  1  0.26587783  0.41664696  0.45914687  1
  O  O414  1  0.26619485  0.41675707  0.70947184  1
  O  O415  1  0.26683775  0.41703359  0.96308791  1
  O  O416  1  0.26728844  0.74962499  0.21283387  1
  O  O417  1  0.26690826  0.74972108  0.46042630  1
  O  O418  1  0.26689138  0.75039694  0.71301548  1
  O  O419  1  0.26731125  0.74959404  0.96042491  1
  O  O420  1  0.76766115  0.08315874  0.20949116  1
  O  O421  1  0.76611034  0.08388990  0.46043093  1
  O  O422  1  0.76631552  0.08251133  0.71251985  1
  O  O423  1  0.76469814  0.08331134  0.96103779  1
  O  O424  1  0.76801477  0.41664924  0.21313921  1
  O  O425  1  0.76617907  0.41714004  0.46235128  1
  O  O426  1  0.76565229  0.41635338  0.70920949  1
  O  O427  1  0.76922946  0.41686228  0.96045430  1
  O  O428  1  0.76648092  0.74959089  0.21238153  1
  O  O429  1  0.76644302  0.74974941  0.46283325  1
  O  O430  1  0.76731584  0.75071859  0.71060732  1
  O  O431  1  0.76689983  0.75008871  0.96208790  1
  O  O432  1  0.01525828  0.08400241  0.16622334  1
  O  O433  1  0.01447487  0.08308573  0.41339322  1
  O  O434  1  0.01515592  0.08278695  0.66593287  1
  O  O435  1  0.01678253  0.08285530  0.91184796  1
  O  O436  1  0.01605802  0.41704681  0.16418831  1
  O  O437  1  0.01353478  0.41688908  0.41426729  1
  O  O438  1  0.01507063  0.41776855  0.66302375  1
  O  O439  1  0.01579401  0.41652651  0.91491188  1
  O  O440  1  0.01475492  0.74935942  0.16350357  1
  O  O441  1  0.01544752  0.74991134  0.41344399  1
  O  O442  1  0.01413398  0.74968692  0.66411184  1
  O  O443  1  0.01559074  0.75050540  0.91338200  1
  O  O444  1  0.51852420  0.08257658  0.16199025  1
  O  O445  1  0.51751991  0.08304320  0.41591395  1
  O  O446  1  0.51548303  0.08316559  0.66601798  1
  O  O447  1  0.51680636  0.08301937  0.91269417  1
  O  O448  1  0.51573782  0.41776756  0.16261523  1
  O  O449  1  0.51879488  0.41709839  0.41418442  1
  O  O450  1  0.51849787  0.41659419  0.66410913  1
  O  O451  1  0.51592578  0.41648380  0.91649888  1
  O  O452  1  0.51609638  0.75000191  0.16240864  1
  O  O453  1  0.51611825  0.74929421  0.41374892  1
  O  O454  1  0.51591196  0.74983882  0.66351669  1
  O  O455  1  0.51469402  0.75034612  0.91333315  1
  O  O456  1  0.48593922  0.24975120  0.08740100  1
  O  O457  1  0.48661378  0.25067003  0.33546700  1
  O  O458  1  0.48410711  0.24969332  0.58710974  1
  O  O459  1  0.48461993  0.24994581  0.83497566  1
  O  O460  1  0.48215019  0.58418400  0.08557924  1
  O  O461  1  0.48268816  0.58388804  0.33527130  1
  O  O462  1  0.48420797  0.58327086  0.58498475  1
  O  O463  1  0.48346614  0.58330305  0.83513150  1
  O  O464  1  0.48525660  0.91629871  0.08390965  1
  O  O465  1  0.48391029  0.91561906  0.33432922  1
  O  O466  1  0.48277676  0.91611367  0.58850113  1
  O  O467  1  0.48394625  0.91670023  0.83725710  1
  O  O468  1  0.98148433  0.25014886  0.08501054  1
  O  O469  1  0.98201168  0.25100638  0.33842309  1
  O  O470  1  0.98476915  0.24943349  0.58703731  1
  O  O471  1  0.98461671  0.25018729  0.83381143  1
  O  O472  1  0.98438856  0.58344844  0.08481188  1
  O  O473  1  0.98256955  0.58346629  0.33769077  1
  O  O474  1  0.98201441  0.58413632  0.58520625  1
  O  O475  1  0.98287779  0.58448074  0.83819426  1
  O  O476  1  0.98312709  0.91712526  0.08465994  1
  O  O477  1  0.98332962  0.91563122  0.33515084  1
  O  O478  1  0.98089115  0.91642388  0.58636619  1
  O  O479  1  0.98215540  0.91598782  0.83569236  1
  O  O480  1  0.08490216  0.31631175  0.07760107  1
  O  O481  1  0.08577230  0.31526016  0.32809847  1
  O  O482  1  0.08830334  0.31468099  0.57690794  1
  O  O483  1  0.08909353  0.31406746  0.82683973  1
  O  O484  1  0.08867829  0.64729945  0.07689406  1
  O  O485  1  0.08577815  0.64968061  0.32803287  1
  O  O486  1  0.08616048  0.64887629  0.57657630  1
  O  O487  1  0.08618939  0.64995988  0.82823723  1
  O  O488  1  0.08713171  0.98166540  0.07731359  1
  O  O489  1  0.08712525  0.98025882  0.32770569  1
  O  O490  1  0.08462032  0.98155724  0.57723556  1
  O  O491  1  0.08608324  0.98102007  0.82711137  1
  O  O492  1  0.58924013  0.31488098  0.07798762  1
  O  O493  1  0.59008507  0.31666225  0.32776712  1
  O  O494  1  0.58773401  0.31550232  0.57768454  1
  O  O495  1  0.58900992  0.31394421  0.82737167  1
  O  O496  1  0.58575051  0.64989236  0.07722760  1
  O  O497  1  0.58648831  0.64890470  0.32751272  1
  O  O498  1  0.58744343  0.64925080  0.57783229  1
  O  O499  1  0.58717323  0.64835217  0.82732934  1
  O  O500  1  0.58962274  0.98051541  0.07689364  1
  O  O501  1  0.58797794  0.97979831  0.32786940  1
  O  O502  1  0.58646607  0.98047621  0.57849709  1
  O  O503  1  0.58756126  0.98223900  0.82746150  1
  O  O504  1  0.41483880  0.01791157  0.17188895  1
  O  O505  1  0.41342297  0.01866520  0.42228920  1
  O  O506  1  0.41126231  0.01876191  0.67303072  1
  O  O507  1  0.41323596  0.01748854  0.92254226  1
  O  O508  1  0.41258368  0.35247586  0.17269802  1
  O  O509  1  0.41489122  0.35268305  0.42279445  1
  O  O510  1  0.41516085  0.35043359  0.67257650  1
  O  O511  1  0.41204347  0.35125331  0.92350006  1
  O  O512  1  0.41249944  0.68427647  0.17235420  1
  O  O513  1  0.41246384  0.68366127  0.42242270  1
  O  O514  1  0.41192687  0.68518793  0.67292031  1
  O  O515  1  0.41059577  0.68628433  0.92287976  1
  O  O516  1  0.91104225  0.01959862  0.17310081  1
  O  O517  1  0.91046192  0.01935859  0.42194038  1
  O  O518  1  0.91111800  0.01751453  0.67305639  1
  O  O519  1  0.91324847  0.01743334  0.92167822  1
  O  O520  1  0.91257563  0.35087644  0.17270197  1
  O  O521  1  0.90972995  0.35184837  0.42275621  1
  O  O522  1  0.91188585  0.35243057  0.67213990  1
  O  O523  1  0.91148519  0.35255475  0.92250525  1
  O  O524  1  0.91071547  0.68538425  0.17263507  1
  O  O525  1  0.91194747  0.68410885  0.42268223  1
  O  O526  1  0.91043694  0.68477542  0.67219898  1
  O  O527  1  0.91169459  0.68565684  0.92260913  1
  O  O528  1  0.16308433  0.01819179  0.20203599  1
  O  O529  1  0.16244400  0.01875339  0.45300006  1
  O  O530  1  0.16380139  0.01838406  0.70232308  1
  O  O531  1  0.16382292  0.01804228  0.95080698  1
  O  O532  1  0.16135209  0.35151464  0.20162818  1
  O  O533  1  0.16203448  0.35150207  0.45308567  1
  O  O534  1  0.16259955  0.35102003  0.70294316  1
  O  O535  1  0.16306696  0.35274125  0.95303013  1
  O  O536  1  0.16357068  0.68493776  0.20265635  1
  O  O537  1  0.16290271  0.68438015  0.45170734  1
  O  O538  1  0.16335781  0.68523292  0.70274506  1
  O  O539  1  0.16325783  0.68402510  0.95225029  1
  O  O540  1  0.66303796  0.01949182  0.20162769  1
  O  O541  1  0.66284528  0.01838810  0.45281772  1
  O  O542  1  0.66277471  0.01737146  0.70354061  1
  O  O543  1  0.66148206  0.01692914  0.95239998  1
  O  O544  1  0.66426047  0.35188103  0.20319999  1
  O  O545  1  0.66276539  0.35136276  0.45240383  1
  O  O546  1  0.66182808  0.35092555  0.70251211  1
  O  O547  1  0.66520719  0.35222287  0.95265114  1
  O  O548  1  0.66285036  0.68450583  0.20195796  1
  O  O549  1  0.66265670  0.68517653  0.45205520  1
  O  O550  1  0.66334740  0.68596407  0.70143322  1
  O  O551  1  0.66344082  0.68516764  0.95214868  1
  O  O552  1  0.33782387  0.31452531  0.04723632  1
  O  O553  1  0.33697783  0.31511283  0.29802059  1
  O  O554  1  0.33696370  0.31545477  0.54853904  1
  O  O555  1  0.33717898  0.31458436  0.79742433  1
  O  O556  1  0.33682446  0.64890023  0.04799316  1
  O  O557  1  0.33912432  0.64910491  0.29736976  1
  O  O558  1  0.33659146  0.64899545  0.54635576  1
  O  O559  1  0.33700767  0.64904160  0.79717059  1
  O  O560  1  0.33851241  0.98220376  0.04600219  1
  O  O561  1  0.33809397  0.98090517  0.29729542  1
  O  O562  1  0.33924194  0.97995446  0.54828344  1
  O  O563  1  0.33978010  0.98175334  0.79727537  1
  O  O564  1  0.83866466  0.31600643  0.04754559  1
  O  O565  1  0.83838244  0.31473552  0.29771473  1
  O  O566  1  0.83579072  0.31616738  0.54739896  1
  O  O567  1  0.83588687  0.31372419  0.79715702  1
  O  O568  1  0.83875305  0.64877118  0.04650292  1
  O  O569  1  0.83861158  0.64873277  0.29793446  1
  O  O570  1  0.83904195  0.64849791  0.54713908  1
  O  O571  1  0.83886441  0.65008417  0.79676841  1
  O  O572  1  0.83642320  0.98104270  0.04672359  1
  O  O573  1  0.83721973  0.98168915  0.29656326  1
  O  O574  1  0.83824506  0.98029894  0.54861823  1
  O  O575  1  0.83722563  0.98144668  0.79805520  1
  O  O576  1  0.41513860  0.14792714  0.17259057  1
  O  O577  1  0.41414410  0.14879901  0.42250697  1
  O  O578  1  0.41187891  0.14893047  0.67312341  1
  O  O579  1  0.41296610  0.14746542  0.92330779  1
  O  O580  1  0.41205777  0.48275534  0.17149599  1
  O  O581  1  0.41510407  0.48277029  0.42250641  1
  O  O582  1  0.41428769  0.48055159  0.67246630  1
  O  O583  1  0.41159683  0.48116134  0.92337756  1
  O  O584  1  0.41220464  0.81423869  0.17258069  1
  O  O585  1  0.41205901  0.81357496  0.42325626  1
  O  O586  1  0.41218312  0.81514924  0.67267594  1
  O  O587  1  0.41142308  0.81625911  0.92199109  1
  O  O588  1  0.91148966  0.14959624  0.17234042  1
  O  O589  1  0.91163637  0.14963879  0.42220245  1
  O  O590  1  0.91106859  0.14750999  0.67379213  1
  O  O591  1  0.91311160  0.14754986  0.92185743  1
  O  O592  1  0.91187692  0.48080937  0.17318000  1
  O  O593  1  0.90983333  0.48196668  0.42230483  1
  O  O594  1  0.91148751  0.48273756  0.67092986  1
  O  O595  1  0.91239612  0.48262858  0.92250498  1
  O  O596  1  0.91126769  0.81522041  0.17274306  1
  O  O597  1  0.91120958  0.81391975  0.42304395  1
  O  O598  1  0.91047973  0.81489488  0.67255828  1
  O  O599  1  0.91177510  0.81567069  0.92245345  1
  O  O600  1  0.08573281  0.18624084  0.07742208  1
  O  O601  1  0.08515497  0.18519124  0.32759267  1
  O  O602  1  0.08858354  0.18467178  0.57728304  1
  O  O603  1  0.08821776  0.18396230  0.82694839  1
  O  O604  1  0.08776104  0.51724882  0.07767829  1
  O  O605  1  0.08649456  0.51958214  0.32794013  1
  O  O606  1  0.08595288  0.51902702  0.57618513  1
  O  O607  1  0.08631966  0.51967369  0.82789397  1
  O  O608  1  0.08663156  0.85151467  0.07707467  1
  O  O609  1  0.08685718  0.84991457  0.32805656  1
  O  O610  1  0.08476957  0.85153465  0.57738809  1
  O  O611  1  0.08593892  0.85085848  0.82736172  1
  O  O612  1  0.58937057  0.18455939  0.07852704  1
  O  O613  1  0.59082781  0.18655723  0.32713439  1
  O  O614  1  0.58816812  0.18545397  0.57739424  1
  O  O615  1  0.58799797  0.18387215  0.82745280  1
  O  O616  1  0.58632997  0.51982931  0.07695308  1
  O  O617  1  0.58650146  0.51869815  0.32707389  1
  O  O618  1  0.58837033  0.51905113  0.57804321  1
  O  O619  1  0.58736579  0.51825866  0.82797358  1
  O  O620  1  0.58865361  0.85035990  0.07681383  1
  O  O621  1  0.58724616  0.84961681  0.32828720  1
  O  O622  1  0.58612306  0.85037634  0.57876983  1
  O  O623  1  0.58789799  0.85232006  0.82672092  1
  O  O624  1  0.33786653  0.18417191  0.04689143  1
  O  O625  1  0.33745013  0.18499563  0.29775565  1
  O  O626  1  0.33732273  0.18549494  0.54844255  1
  O  O627  1  0.33719468  0.18445279  0.79710627  1
  O  O628  1  0.33684274  0.51885445  0.04835574  1
  O  O629  1  0.33948432  0.51915203  0.29791516  1
  O  O630  1  0.33643661  0.51889815  0.54712318  1
  O  O631  1  0.33750101  0.51888926  0.79717235  1
  O  O632  1  0.33910508  0.85176747  0.04571269  1
  O  O633  1  0.33793313  0.85072927  0.29698817  1
  O  O634  1  0.33793544  0.84981798  0.54772826  1
  O  O635  1  0.33976057  0.85163883  0.79728628  1
  O  O636  1  0.83896012  0.18594093  0.04787804  1
  O  O637  1  0.83742497  0.18453766  0.29743845  1
  O  O638  1  0.83640181  0.18619027  0.54758241  1
  O  O639  1  0.83499209  0.18368800  0.79770889  1
  O  O640  1  0.83907858  0.51859319  0.04637298  1
  O  O641  1  0.83881314  0.51858145  0.29810571  1
  O  O642  1  0.83886565  0.51836318  0.54696255  1
  O  O643  1  0.83997585  0.52001619  0.79716531  1
  O  O644  1  0.83670515  0.85094479  0.04660592  1
  O  O645  1  0.83712889  0.85142657  0.29693588  1
  O  O646  1  0.83749651  0.85028977  0.54807137  1
  O  O647  1  0.83748895  0.85142508  0.79763510  1
  O  O648  1  0.16319085  0.14833875  0.20200136  1
  O  O649  1  0.16270387  0.14909939  0.45329657  1
  O  O650  1  0.16362870  0.14850446  0.70319222  1
  O  O651  1  0.16304488  0.14799594  0.95142111  1
  O  O652  1  0.16107991  0.48146680  0.20193948  1
  O  O653  1  0.16212258  0.48193482  0.45250444  1
  O  O654  1  0.16215834  0.48116869  0.70250697  1
  O  O655  1  0.16355107  0.48293092  0.95357509  1
  O  O656  1  0.16390347  0.81489880  0.20227694  1
  O  O657  1  0.16270730  0.81435720  0.45199815  1
  O  O658  1  0.16334510  0.81525399  0.70245228  1
  O  O659  1  0.16316404  0.81395277  0.95112373  1
  O  O660  1  0.66433651  0.14955037  0.20200900  1
  O  O661  1  0.66234031  0.14864499  0.45328678  1
  O  O662  1  0.66270012  0.14754312  0.70346216  1
  O  O663  1  0.66038955  0.14693849  0.95227363  1
  O  O664  1  0.66468351  0.48188470  0.20226130  1
  O  O665  1  0.66235223  0.48135974  0.45181409  1
  O  O666  1  0.66177148  0.48108149  0.70172993  1
  O  O667  1  0.66555022  0.48218046  0.95202880  1
  O  O668  1  0.66261287  0.81439245  0.20217229  1
  O  O669  1  0.66272454  0.81500419  0.45247316  1
  O  O670  1  0.66320144  0.81591883  0.70210880  1
  O  O671  1  0.66330388  0.81517290  0.95266550  1
