# generated using pymatgen
data_Na2MnFe(PO4)2
_symmetry_space_group_name_H-M   'P 1'
_cell_length_a   21.08001979
_cell_length_b   18.93123761
_cell_length_c   20.03962280
_cell_angle_alpha   90.00004345
_cell_angle_beta   89.99529793
_cell_angle_gamma   90.00339436
_symmetry_Int_Tables_number   1
_chemical_formula_structural   Na2MnFe(PO4)2
_chemical_formula_sum   'Na96 Mn48 Fe48 P96 O384'
_cell_volume   7997.22953248
_cell_formula_units_Z   48
loop_
 _symmetry_equiv_pos_site_id
 _symmetry_equiv_pos_as_xyz
  1  'x, y, z'
loop_
 _atom_site_type_symbol
 _atom_site_label
 _atom_site_symmetry_multiplicity
 _atom_site_fract_x
 _atom_site_fract_y
 _atom_site_fract_z
 _atom_site_occupancy
  Na  Na0  1  0.00240840  0.00033706  0.00043600  1
  Na  Na1  1  0.00183570  0.00038706  0.24969530  1
  Na  Na2  1  0.00170088  0.00034611  0.50030154  1
  Na  Na3  1  0.00233628  0.00095544  0.75038289  1
  Na  Na4  1  0.00024507  0.33335406  0.00066640  1
  Na  Na5  1  -0.00191469  0.33276832  0.25093446  1
  Na  Na6  1  0.00023337  0.33365317  0.49951976  1
  Na  Na7  1  0.00105032  0.33333281  0.74876081  1
  Na  Na8  1  -0.00144125  0.66614749  -0.00046350  1
  Na  Na9  1  0.00043749  0.66745058  0.25072782  1
  Na  Na10  1  0.00009465  0.66689425  0.50009913  1
  Na  Na11  1  0.00056785  0.66707075  0.74890384  1
  Na  Na12  1  0.50099048  0.00053643  -0.00112823  1
  Na  Na13  1  0.49839427  -0.00069347  0.24972701  1
  Na  Na14  1  0.50037022  0.00063096  0.50011586  1
  Na  Na15  1  0.50190193  0.00089291  0.75028877  1
  Na  Na16  1  0.49939772  0.33218147  0.00031244  1
  Na  Na17  1  0.50100235  0.33359579  0.24981309  1
  Na  Na18  1  0.49976403  0.33272214  0.49977800  1
  Na  Na19  1  0.50040406  0.33281802  0.75068397  1
  Na  Na20  1  0.50110494  0.66707498  -0.00012411  1
  Na  Na21  1  0.49929545  0.66638782  0.25053618  1
  Na  Na22  1  0.49982744  0.66659182  0.50027848  1
  Na  Na23  1  0.50006621  0.66644481  0.74972123  1
  Na  Na24  1  0.24929813  0.00038303  0.12571083  1
  Na  Na25  1  0.24920220  -0.00011551  0.37511253  1
  Na  Na26  1  0.24911403  0.00033247  0.62385334  1
  Na  Na27  1  0.24731265  -0.00036774  0.87572764  1
  Na  Na28  1  0.25171992  0.33336385  0.12513572  1
  Na  Na29  1  0.25131047  0.33322653  0.37473858  1
  Na  Na30  1  0.24902466  0.33263099  0.62495194  1
  Na  Na31  1  0.25125062  0.33332669  0.87409229  1
  Na  Na32  1  0.24941867  0.66679616  0.12630508  1
  Na  Na33  1  0.25126125  0.66697109  0.37420064  1
  Na  Na34  1  0.25016534  0.66665799  0.62397730  1
  Na  Na35  1  0.24806869  0.66649279  0.87579964  1
  Na  Na36  1  0.74884238  0.00012219  0.12544248  1
  Na  Na37  1  0.75012249  0.00019377  0.37571128  1
  Na  Na38  1  0.74748602  -0.00056562  0.62407802  1
  Na  Na39  1  0.74792665  -0.00016084  0.87498790  1
  Na  Na40  1  0.74923264  0.33288115  0.12510244  1
  Na  Na41  1  0.75012010  0.33360137  0.37582490  1
  Na  Na42  1  0.74985208  0.33310502  0.62381862  1
  Na  Na43  1  0.74858943  0.33242748  0.87594606  1
  Na  Na44  1  0.75108869  0.66742631  0.12599934  1
  Na  Na45  1  0.74931606  0.66594187  0.37359008  1
  Na  Na46  1  0.74991013  0.66692150  0.62470618  1
  Na  Na47  1  0.74961859  0.66634043  0.87507746  1
  Na  Na48  1  0.00102457  0.16625725  0.00014689  1
  Na  Na49  1  0.00153017  0.16646955  0.25050242  1
  Na  Na50  1  0.00228224  0.16609424  0.49957868  1
  Na  Na51  1  0.00125404  0.16646519  0.74994920  1
  Na  Na52  1  -0.00026640  0.49942632  0.00009971  1
  Na  Na53  1  -0.00288286  0.50044070  0.25064069  1
  Na  Na54  1  0.00057401  0.49878710  0.49984933  1
  Na  Na55  1  0.00238452  0.49835064  0.74877133  1
  Na  Na56  1  0.00210788  0.83303497  0.00093734  1
  Na  Na57  1  0.00051858  0.83348222  0.24983427  1
  Na  Na58  1  -0.00079647  0.83393253  0.50056463  1
  Na  Na59  1  0.00031471  0.83430490  0.74919554  1
  Na  Na60  1  0.50026769  0.16651465  0.00027446  1
  Na  Na61  1  0.49834924  0.16747090  0.24937343  1
  Na  Na62  1  0.50026672  0.16602801  0.49992921  1
  Na  Na63  1  0.49902665  0.16730865  0.75061199  1
  Na  Na64  1  0.50230405  0.49885025  -0.00029889  1
  Na  Na65  1  0.50008704  0.50048894  0.25063696  1
  Na  Na66  1  0.50212424  0.49879307  0.49902753  1
  Na  Na67  1  0.50159238  0.49961887  0.75025011  1
  Na  Na68  1  0.49957958  0.83426144  -0.00064782  1
  Na  Na69  1  0.49908673  0.83381080  0.24995476  1
  Na  Na70  1  0.49862437  0.83403125  0.50131954  1
  Na  Na71  1  0.50151475  0.83302848  0.74971829  1
  Na  Na72  1  0.25177914  0.16623675  0.12530245  1
  Na  Na73  1  0.25132439  0.16671165  0.37463210  1
  Na  Na74  1  0.25005990  0.16709719  0.62496152  1
  Na  Na75  1  0.25071057  0.16640659  0.87515011  1
  Na  Na76  1  0.25123575  0.49870543  0.12579234  1
  Na  Na77  1  0.25038472  0.49940567  0.37568662  1
  Na  Na78  1  0.24789381  0.50037825  0.62394969  1
  Na  Na79  1  0.24685931  0.50042885  0.87449491  1
  Na  Na80  1  0.24771485  0.83419455  0.12604876  1
  Na  Na81  1  0.25025853  0.83346185  0.37360200  1
  Na  Na82  1  0.24934643  0.83408904  0.62404954  1
  Na  Na83  1  0.24898449  0.83374825  0.87590906  1
  Na  Na84  1  0.74754337  0.16749558  0.12509091  1
  Na  Na85  1  0.74910267  0.16651510  0.37562975  1
  Na  Na86  1  0.74796907  0.16749098  0.62437045  1
  Na  Na87  1  0.74825512  0.16700814  0.87492476  1
  Na  Na88  1  0.74954577  0.49960098  0.12602132  1
  Na  Na89  1  0.74969178  0.49918787  0.37404129  1
  Na  Na90  1  0.74724452  0.50031700  0.62455421  1
  Na  Na91  1  0.74912337  0.49938932  0.87553001  1
  Na  Na92  1  0.75096192  0.83380941  0.12564179  1
  Na  Na93  1  0.75272479  0.83237602  0.37489043  1
  Na  Na94  1  0.75092889  0.83389925  0.62389618  1
  Na  Na95  1  0.74947749  0.83458999  0.87543936  1
  Mn  Mn96  1  0.14080615  0.58314876  0.99826476  1
  Mn  Mn97  1  0.39260609  0.58226965  0.62743915  1
  Mn  Mn98  1  0.14259488  0.58324949  0.49667127  1
  Mn  Mn99  1  0.85749031  0.41658618  0.00196656  1
  Mn  Mn100  1  0.39254078  0.58327812  0.12686278  1
  Mn  Mn101  1  0.64217061  0.91682597  0.24849331  1
  Mn  Mn102  1  0.89259521  0.91779341  0.62738890  1
  Mn  Mn103  1  0.10752004  0.41692366  0.12373867  1
  Mn  Mn104  1  0.60828532  0.75058219  0.87278590  1
  Mn  Mn105  1  0.60689108  0.08322260  0.12304430  1
  Mn  Mn106  1  0.35786855  0.08323885  0.50198575  1
  Mn  Mn107  1  0.85729706  0.08340212  0.00166039  1
  Mn  Mn108  1  0.39133686  0.58289789  0.87736447  1
  Mn  Mn109  1  0.35716119  0.75014414  0.00249953  1
  Mn  Mn110  1  0.85740860  0.08374062  0.75197129  1
  Mn  Mn111  1  0.89208827  0.58276629  0.62685766  1
  Mn  Mn112  1  0.64234897  0.58315901  0.24756063  1
  Mn  Mn113  1  0.89230148  0.58294609  0.87696794  1
  Mn  Mn114  1  0.35759067  0.08263249  0.00186820  1
  Mn  Mn115  1  0.10753499  0.74982511  0.87216978  1
  Mn  Mn116  1  0.10815459  0.74990899  0.62197085  1
  Mn  Mn117  1  0.85817922  0.08385337  0.25244745  1
  Mn  Mn118  1  0.85770685  0.75050270  0.75257760  1
  Mn  Mn119  1  0.14252303  0.24989210  0.74785311  1
  Mn  Mn120  1  0.64188224  0.58334710  0.74739380  1
  Mn  Mn121  1  0.85801515  0.08341662  0.50213250  1
  Mn  Mn122  1  0.35805599  0.41695238  0.50229081  1
  Mn  Mn123  1  0.89152082  0.24974960  0.12747541  1
  Mn  Mn124  1  0.60816188  0.74991507  0.62190707  1
  Mn  Mn125  1  0.60810267  0.75017185  0.12299999  1
  Mn  Mn126  1  0.64228811  0.91537163  0.49674807  1
  Mn  Mn127  1  0.35760002  0.74992738  0.25254234  1
  Mn  Mn128  1  0.89289067  0.91679590  0.12697651  1
  Mn  Mn129  1  0.85775477  0.75026197  0.00214908  1
  Mn  Mn130  1  0.89208313  0.58350768  0.37811757  1
  Mn  Mn131  1  0.85760987  0.41607020  0.75188751  1
  Mn  Mn132  1  0.35743912  0.41695496  0.75177673  1
  Mn  Mn133  1  0.60804377  0.41611989  0.87264843  1
  Mn  Mn134  1  0.14246853  0.24991437  0.99791102  1
  Mn  Mn135  1  0.14243071  0.58299298  0.24792354  1
  Mn  Mn136  1  0.89282813  0.24940718  0.62697284  1
  Mn  Mn137  1  0.64162629  0.25045830  0.49722811  1
  Mn  Mn138  1  0.14256343  0.91659951  0.49676959  1
  Mn  Mn139  1  0.39211885  0.91711345  0.87693071  1
  Mn  Mn140  1  0.35716283  0.75043825  0.75247182  1
  Mn  Mn141  1  0.35785583  0.41730861  0.00201441  1
  Mn  Mn142  1  0.39225555  0.91740647  0.62813891  1
  Mn  Mn143  1  0.14316414  0.25010377  0.24813404  1
  Fe  Fe144  1  0.85832653  0.75012862  0.25247841  1
  Fe  Fe145  1  0.64227815  0.24965434  0.24910190  1
  Fe  Fe146  1  0.60660766  0.08395711  0.62372476  1
  Fe  Fe147  1  0.14280315  0.91692623  0.24862094  1
  Fe  Fe148  1  0.60725126  0.41633501  0.37280729  1
  Fe  Fe149  1  0.89294486  0.91780018  0.87674273  1
  Fe  Fe150  1  0.35723585  0.08327846  0.25199364  1
  Fe  Fe151  1  0.35880745  0.41636578  0.25215753  1
  Fe  Fe152  1  0.64294481  0.91715819  0.74819344  1
  Fe  Fe153  1  0.64192587  0.91666952  0.99815604  1
  Fe  Fe154  1  0.64171560  0.24990347  0.99800723  1
  Fe  Fe155  1  0.35705578  0.08288018  0.75173216  1
  Fe  Fe156  1  0.39183228  0.91678075  0.12642054  1
  Fe  Fe157  1  0.10659725  0.74959568  0.12371923  1
  Fe  Fe158  1  0.35782342  0.74993585  0.50079945  1
  Fe  Fe159  1  0.39366092  0.58352995  0.37697537  1
  Fe  Fe160  1  0.14192587  0.58379504  0.74786957  1
  Fe  Fe161  1  0.64291725  0.58379794  0.99884848  1
  Fe  Fe162  1  0.39242953  0.91646783  0.37632227  1
  Fe  Fe163  1  0.85647943  0.41610532  0.25208848  1
  Fe  Fe164  1  0.89240896  0.24940934  0.87621689  1
  Fe  Fe165  1  0.10730200  0.41572505  0.87332139  1
  Fe  Fe166  1  0.10763082  0.08361658  0.37292703  1
  Fe  Fe167  1  0.85741119  0.74916011  0.50089619  1
  Fe  Fe168  1  0.10856394  0.08415769  0.62328640  1
  Fe  Fe169  1  0.39334366  0.24999167  0.12681191  1
  Fe  Fe170  1  0.60666419  0.08307098  0.37311473  1
  Fe  Fe171  1  0.89383948  0.91748103  0.37593372  1
  Fe  Fe172  1  0.64204014  0.24947002  0.74795617  1
  Fe  Fe173  1  0.10824010  0.08363958  0.12335686  1
  Fe  Fe174  1  0.14239938  0.91669532  0.99840953  1
  Fe  Fe175  1  0.60750567  0.41574151  0.62301660  1
  Fe  Fe176  1  0.14237416  0.91661349  0.74871549  1
  Fe  Fe177  1  0.39358852  0.25004914  0.37667030  1
  Fe  Fe178  1  0.14303003  0.25021016  0.49764830  1
  Fe  Fe179  1  0.60731508  0.08356143  0.87267660  1
  Fe  Fe180  1  0.10758614  0.41580680  0.62224813  1
  Fe  Fe181  1  0.60728407  0.41662430  0.12381523  1
  Fe  Fe182  1  0.10721387  0.08413424  0.87295045  1
  Fe  Fe183  1  0.10740080  0.75010363  0.37342709  1
  Fe  Fe184  1  0.85661114  0.41718997  0.50147558  1
  Fe  Fe185  1  0.89176795  0.58329873  0.12645421  1
  Fe  Fe186  1  0.89285501  0.24934582  0.37664443  1
  Fe  Fe187  1  0.10663489  0.41655078  0.37271929  1
  Fe  Fe188  1  0.39282116  0.25001333  0.62650456  1
  Fe  Fe189  1  0.39331033  0.24993461  0.87656740  1
  Fe  Fe190  1  0.64256362  0.58370637  0.49805879  1
  Fe  Fe191  1  0.60713328  0.75059147  0.37371477  1
  P  P192  1  0.05348253  0.24974507  0.11056429  1
  P  P193  1  0.05374781  0.25041875  0.36130845  1
  P  P194  1  0.05480459  0.24976033  0.60906772  1
  P  P195  1  0.05242367  0.24994273  0.86016478  1
  P  P196  1  0.05131492  0.58377327  0.11077235  1
  P  P197  1  0.05334414  0.58291483  0.36016316  1
  P  P198  1  0.05475867  0.58250580  0.61022062  1
  P  P199  1  0.05353450  0.58217416  0.85899210  1
  P  P200  1  0.05585590  0.91674969  0.11127369  1
  P  P201  1  0.05353873  0.91668511  0.35962795  1
  P  P202  1  0.05549020  0.91775255  0.61092289  1
  P  P203  1  0.05402353  0.91769456  0.86075515  1
  P  P204  1  0.55400891  0.25061920  0.11109484  1
  P  P205  1  0.55292260  0.24971962  0.35949435  1
  P  P206  1  0.55326313  0.24964645  0.61109563  1
  P  P207  1  0.55427049  0.24899921  0.86062682  1
  P  P208  1  0.55415386  0.58260671  0.10974156  1
  P  P209  1  0.55413355  0.58385883  0.36147583  1
  P  P210  1  0.55428011  0.58216072  0.60889775  1
  P  P211  1  0.55419696  0.58358798  0.86096521  1
  P  P212  1  0.55221023  0.91683213  0.10953874  1
  P  P213  1  0.55186358  0.91635464  0.36029754  1
  P  P214  1  0.55472875  0.91800594  0.61109637  1
  P  P215  1  0.55513575  0.91759794  0.86019665  1
  P  P216  1  0.44533237  0.08293130  0.14012722  1
  P  P217  1  0.44629333  0.08338823  0.38839353  1
  P  P218  1  0.44674708  0.08424336  0.64074564  1
  P  P219  1  0.44661290  0.08395882  0.88864053  1
  P  P220  1  0.44751915  0.41620628  0.14042645  1
  P  P221  1  0.44696956  0.41635465  0.38866487  1
  P  P222  1  0.44819839  0.41571724  0.63991992  1
  P  P223  1  0.44665762  0.41570759  0.88982764  1
  P  P224  1  0.44661094  0.75088410  0.14002573  1
  P  P225  1  0.44725492  0.75020945  0.39043563  1
  P  P226  1  0.44575543  0.74984861  0.63918899  1
  P  P227  1  0.44648397  0.75023326  0.89007487  1
  P  P228  1  0.94827606  0.08323591  0.13990706  1
  P  P229  1  0.94825809  0.08323654  0.38970925  1
  P  P230  1  0.94867410  0.08365802  0.64012348  1
  P  P231  1  0.94765884  0.08343759  0.88974411  1
  P  P232  1  0.94528921  0.41697543  0.14097525  1
  P  P233  1  0.94520971  0.41563397  0.38949450  1
  P  P234  1  0.94668808  0.41628986  0.63839072  1
  P  P235  1  0.94770109  0.41525035  0.88952913  1
  P  P236  1  0.94680692  0.74963619  0.14053365  1
  P  P237  1  0.94659667  0.75114228  0.38946056  1
  P  P238  1  0.94537815  0.74999086  0.63869453  1
  P  P239  1  0.94669557  0.75154216  0.88971123  1
  P  P240  1  0.19614110  0.08306765  0.23602487  1
  P  P241  1  0.19525761  0.08467669  0.48503303  1
  P  P242  1  0.19617329  0.08305631  0.73551820  1
  P  P243  1  0.19476236  0.08292114  0.98569747  1
  P  P244  1  0.19763024  0.41625496  0.23638974  1
  P  P245  1  0.19506569  0.41532995  0.48488998  1
  P  P246  1  0.19461259  0.41695825  0.73504627  1
  P  P247  1  0.19594936  0.41615882  0.98436590  1
  P  P248  1  0.19442677  0.75061460  0.23596945  1
  P  P249  1  0.19770975  0.75006989  0.48340329  1
  P  P250  1  0.19626589  0.75037000  0.73469664  1
  P  P251  1  0.19460637  0.75066268  0.98673063  1
  P  P252  1  0.69523826  0.08396683  0.23653911  1
  P  P253  1  0.69443737  0.08338592  0.48530376  1
  P  P254  1  0.69472848  0.08365744  0.73521563  1
  P  P255  1  0.69504493  0.08339437  0.98461914  1
  P  P256  1  0.69539610  0.41529441  0.23595200  1
  P  P257  1  0.69539390  0.41736403  0.48511362  1
  P  P258  1  0.69579327  0.41498914  0.73408523  1
  P  P259  1  0.69485074  0.41674128  0.98689189  1
  P  P260  1  0.69709087  0.75051085  0.23649635  1
  P  P261  1  0.69756073  0.74906483  0.48370303  1
  P  P262  1  0.69678998  0.75138042  0.73454370  1
  P  P263  1  0.69667876  0.75003258  0.98558682  1
  P  P264  1  0.30546551  0.24983689  0.01454954  1
  P  P265  1  0.30630344  0.24992419  0.26432414  1
  P  P266  1  0.30444630  0.25009405  0.51438837  1
  P  P267  1  0.30556064  0.24902916  0.76415373  1
  P  P268  1  0.30203120  0.58329727  0.01570221  1
  P  P269  1  0.30474354  0.58218564  0.26595388  1
  P  P270  1  0.30517813  0.58402713  0.51354079  1
  P  P271  1  0.30126314  0.58318022  0.76484501  1
  P  P272  1  0.30216962  0.91687748  0.01596627  1
  P  P273  1  0.30392412  0.91764601  0.26431636  1
  P  P274  1  0.30506560  0.91595316  0.51344306  1
  P  P275  1  0.30154010  0.91798688  0.76508567  1
  P  P276  1  0.80265209  0.24954610  0.01388304  1
  P  P277  1  0.80239503  0.25048371  0.26592485  1
  P  P278  1  0.80462171  0.25059357  0.51360297  1
  P  P279  1  0.80214565  0.24981961  0.76535976  1
  P  P280  1  0.80261506  0.58313374  0.01584893  1
  P  P281  1  0.80497727  0.58300674  0.26385023  1
  P  P282  1  0.80205717  0.58289571  0.51439318  1
  P  P283  1  0.80282602  0.58271922  0.76500016  1
  P  P284  1  0.80290838  0.91748751  0.01404713  1
  P  P285  1  0.80456958  0.91668104  0.26577125  1
  P  P286  1  0.80527020  0.91618232  0.51329374  1
  P  P287  1  0.80272934  0.91771833  0.76552398  1
  O  O288  1  0.05691423  0.25026477  0.18733592  1
  O  O289  1  0.05820454  0.25049261  0.43791269  1
  O  O290  1  0.05738091  0.24969094  0.68589804  1
  O  O291  1  0.05594980  0.25003031  0.93681008  1
  O  O292  1  0.05535475  0.58310272  0.18743938  1
  O  O293  1  0.05629993  0.58286678  0.43694081  1
  O  O294  1  0.05866560  0.58351091  0.68699791  1
  O  O295  1  0.05578220  0.58318097  0.93586868  1
  O  O296  1  0.05942948  0.91704586  0.18807672  1
  O  O297  1  0.05659857  0.91641863  0.43638947  1
  O  O298  1  0.05941182  0.91702462  0.68771826  1
  O  O299  1  0.05828267  0.91668899  0.93748351  1
  O  O300  1  0.55853739  0.24993145  0.18774726  1
  O  O301  1  0.55600902  0.24980630  0.43629190  1
  O  O302  1  0.55740833  0.24982147  0.68775482  1
  O  O303  1  0.55849443  0.24956143  0.93741127  1
  O  O304  1  0.55683316  0.58353506  0.18659597  1
  O  O305  1  0.55864230  0.58372972  0.43815649  1
  O  O306  1  0.55694623  0.58330585  0.68574776  1
  O  O307  1  0.55880380  0.58376214  0.93770366  1
  O  O308  1  0.55633194  0.91669654  0.18624608  1
  O  O309  1  0.55551948  0.91634172  0.43701203  1
  O  O310  1  0.55893212  0.91683193  0.68782014  1
  O  O311  1  0.55896397  0.91670975  0.93702345  1
  O  O312  1  0.44312072  0.08269945  0.06329011  1
  O  O313  1  0.44174439  0.08308538  0.31174445  1
  O  O314  1  0.44318911  0.08331611  0.56397014  1
  O  O315  1  0.44177262  0.08282938  0.81203080  1
  O  O316  1  0.44399750  0.41665231  0.06370718  1
  O  O317  1  0.44274530  0.41666899  0.31200181  1
  O  O318  1  0.44441614  0.41636574  0.56318025  1
  O  O319  1  0.44344080  0.41675245  0.81306634  1
  O  O320  1  0.44358403  0.75042273  0.06325639  1
  O  O321  1  0.44373583  0.75018485  0.31369714  1
  O  O322  1  0.44130251  0.75004035  0.56244834  1
  O  O323  1  0.44312498  0.75022592  0.81323404  1
  O  O324  1  0.94389929  0.08323384  0.06325954  1
  O  O325  1  0.94456975  0.08350186  0.31301788  1
  O  O326  1  0.94427588  0.08341634  0.56346776  1
  O  O327  1  0.94393946  0.08338162  0.81306673  1
  O  O328  1  0.94257043  0.41626370  0.06412152  1
  O  O329  1  0.94021786  0.41613183  0.31281650  1
  O  O330  1  0.94112437  0.41682935  0.56177781  1
  O  O331  1  0.94428980  0.41566836  0.81279720  1
  O  O332  1  0.94321062  0.75021270  0.06376221  1
  O  O333  1  0.94201444  0.75012601  0.31271705  1
  O  O334  1  0.94078542  0.74954560  0.56188897  1
  O  O335  1  0.94400494  0.75123204  0.81286762  1
  O  O336  1  0.19131898  0.08422795  0.06253582  1
  O  O337  1  0.19124678  0.08381439  0.31277410  1
  O  O338  1  0.19170122  0.08412985  0.56184459  1
  O  O339  1  0.19137962  0.08403230  0.81227046  1
  O  O340  1  0.19300644  0.41584480  0.06122257  1
  O  O341  1  0.19189724  0.41619830  0.31298232  1
  O  O342  1  0.19105050  0.41594803  0.56169996  1
  O  O343  1  0.19063478  0.41569523  0.81184834  1
  O  O344  1  0.19060493  0.74953645  0.06350173  1
  O  O345  1  0.19038746  0.74982354  0.31274012  1
  O  O346  1  0.19374789  0.75008997  0.56012547  1
  O  O347  1  0.19343544  0.75034158  0.81154583  1
  O  O348  1  0.69228502  0.08344085  0.06148489  1
  O  O349  1  0.69066918  0.08303881  0.31328637  1
  O  O350  1  0.69003476  0.08378610  0.56204516  1
  O  O351  1  0.69117534  0.08382614  0.81201762  1
  O  O352  1  0.69137467  0.41620296  0.06368423  1
  O  O353  1  0.69063661  0.41608006  0.31272369  1
  O  O354  1  0.69081492  0.41601898  0.56181024  1
  O  O355  1  0.69314085  0.41554946  0.81095455  1
  O  O356  1  0.69433231  0.75042017  0.06242876  1
  O  O357  1  0.69140145  0.75060607  0.31308530  1
  O  O358  1  0.69377785  0.75030036  0.56042289  1
  O  O359  1  0.69392171  0.75069384  0.81133475  1
  O  O360  1  0.31009327  0.25025296  0.18750159  1
  O  O361  1  0.30977873  0.25008792  0.43768229  1
  O  O362  1  0.30941384  0.24997260  0.68732467  1
  O  O363  1  0.30956136  0.24970955  0.93773987  1
  O  O364  1  0.30750471  0.58275697  0.18913352  1
  O  O365  1  0.31003585  0.58307732  0.43681918  1
  O  O366  1  0.30562843  0.58267319  0.68810585  1
  O  O367  1  0.30507582  0.58323441  0.93889711  1
  O  O368  1  0.30821167  0.91698347  0.18763828  1
  O  O369  1  0.30930375  0.91668966  0.43662726  1
  O  O370  1  0.30540366  0.91778847  0.68833999  1
  O  O371  1  0.30633424  0.91701236  0.93924410  1
  O  O372  1  0.80569229  0.24952755  0.18911366  1
  O  O373  1  0.80924769  0.24938920  0.43690075  1
  O  O374  1  0.80656502  0.24965927  0.68862248  1
  O  O375  1  0.80832884  0.24939891  0.93727893  1
  O  O376  1  0.80873483  0.58348295  0.18708488  1
  O  O377  1  0.80566285  0.58266444  0.43764420  1
  O  O378  1  0.80606607  0.58257949  0.68819215  1
  O  O379  1  0.80637271  0.58281197  0.93909209  1
  O  O380  1  0.80737386  0.91754365  0.18891698  1
  O  O381  1  0.81008752  0.91739310  0.43661187  1
  O  O382  1  0.80672911  0.91803583  0.68873603  1
  O  O383  1  0.80833627  0.91780982  0.93743445  1
  O  O384  1  0.23543569  0.24975714  0.03874894  1
  O  O385  1  0.23621402  0.24975257  0.28858475  1
  O  O386  1  0.23399970  0.25004729  0.53756276  1
  O  O387  1  0.23543272  0.24953314  0.78830661  1
  O  O388  1  0.23249811  0.58279240  0.04126637  1
  O  O389  1  0.23493630  0.58293443  0.29093567  1
  O  O390  1  0.23497698  0.58337135  0.53706929  1
  O  O391  1  0.23111466  0.58339707  0.78899644  1
  O  O392  1  0.23203919  0.91726644  0.04007199  1
  O  O393  1  0.23351406  0.91699568  0.28814004  1
  O  O394  1  0.23497378  0.91691133  0.53732240  1
  O  O395  1  0.23155391  0.91723583  0.78980319  1
  O  O396  1  0.73211482  0.24983604  0.03704322  1
  O  O397  1  0.73237556  0.25007116  0.29070777  1
  O  O398  1  0.73437940  0.25042449  0.53721551  1
  O  O399  1  0.73190280  0.24950710  0.78920839  1
  O  O400  1  0.73266803  0.58351753  0.04064096  1
  O  O401  1  0.73492053  0.58255169  0.28815623  1
  O  O402  1  0.73208325  0.58345257  0.53916419  1
  O  O403  1  0.73313258  0.58270916  0.79005054  1
  O  O404  1  0.73247914  0.91725281  0.03761860  1
  O  O405  1  0.73482466  0.91662497  0.29091971  1
  O  O406  1  0.73503856  0.91646366  0.53692378  1
  O  O407  1  0.73248803  0.91753989  0.78940407  1
  O  O408  1  0.26661533  0.08358624  0.21267180  1
  O  O409  1  0.26529952  0.08363402  0.46077098  1
  O  O410  1  0.26645957  0.08375471  0.71152502  1
  O  O411  1  0.26473203  0.08303359  0.96121742  1
  O  O412  1  0.26810134  0.41610137  0.21319954  1
  O  O413  1  0.26529168  0.41628487  0.46121998  1
  O  O414  1  0.26466199  0.41631092  0.71059495  1
  O  O415  1  0.26561702  0.41670827  0.95918834  1
  O  O416  1  0.26462280  0.75008148  0.21213712  1
  O  O417  1  0.26780112  0.75016470  0.45909069  1
  O  O418  1  0.26578072  0.75042844  0.70894851  1
  O  O419  1  0.26443210  0.75046195  0.96193947  1
  O  O420  1  0.76521952  0.08380807  0.21217299  1
  O  O421  1  0.76469029  0.08336655  0.46172953  1
  O  O422  1  0.76460367  0.08366808  0.71021333  1
  O  O423  1  0.76473108  0.08346227  0.95926156  1
  O  O424  1  0.76580782  0.41618273  0.21247919  1
  O  O425  1  0.76575676  0.41670080  0.46137395  1
  O  O426  1  0.76538414  0.41611879  0.70861001  1
  O  O427  1  0.76463642  0.41625452  0.96171191  1
  O  O428  1  0.76762265  0.75059653  0.21337798  1
  O  O429  1  0.76774698  0.74905671  0.45945147  1
  O  O430  1  0.76636891  0.75094006  0.70904999  1
  O  O431  1  0.76612748  0.75025103  0.95958871  1
  O  O432  1  0.01846487  0.08325187  0.16403764  1
  O  O433  1  0.01843778  0.08329740  0.41411701  1
  O  O434  1  0.01881288  0.08405881  0.66418021  1
  O  O435  1  0.01773404  0.08346342  0.91436608  1
  O  O436  1  0.01497978  0.41634973  0.16630750  1
  O  O437  1  0.01573043  0.41637999  0.41272332  1
  O  O438  1  0.01719726  0.41558188  0.66138450  1
  O  O439  1  0.01760047  0.41584193  0.91462214  1
  O  O440  1  0.01696315  0.75054112  0.16487955  1
  O  O441  1  0.01703368  0.75037593  0.41319217  1
  O  O442  1  0.01550716  0.75053320  0.66240940  1
  O  O443  1  0.01626472  0.75032625  0.91517786  1
  O  O444  1  0.51500456  0.08327241  0.16552425  1
  O  O445  1  0.51655593  0.08345500  0.41258972  1
  O  O446  1  0.51682302  0.08417944  0.66511425  1
  O  O447  1  0.51686530  0.08385156  0.91261477  1
  O  O448  1  0.51764965  0.41689693  0.16496403  1
  O  O449  1  0.51735395  0.41585306  0.41259651  1
  O  O450  1  0.51816690  0.41604261  0.66462099  1
  O  O451  1  0.51633985  0.41521877  0.91486027  1
  O  O452  1  0.51623920  0.75019633  0.16544616  1
  O  O453  1  0.51735061  0.75029322  0.41521578  1
  O  O454  1  0.51590410  0.74981077  0.66297245  1
  O  O455  1  0.51621703  0.75081362  0.91489817  1
  O  O456  1  0.48354819  0.24950910  0.08745584  1
  O  O457  1  0.48287635  0.25022950  0.33486370  1
  O  O458  1  0.48314792  0.24932904  0.58647041  1
  O  O459  1  0.48397630  0.24980404  0.83683277  1
  O  O460  1  0.48452288  0.58292590  0.08438184  1
  O  O461  1  0.48378163  0.58366269  0.33752246  1
  O  O462  1  0.48461282  0.58245337  0.58371674  1
  O  O463  1  0.48424468  0.58316010  0.83657251  1
  O  O464  1  0.48203389  0.91745696  0.08527386  1
  O  O465  1  0.48180566  0.91644924  0.33561802  1
  O  O466  1  0.48466546  0.91772944  0.58699149  1
  O  O467  1  0.48511605  0.91696133  0.83583990  1
  O  O468  1  0.98373424  0.24987684  0.08555197  1
  O  O469  1  0.98342405  0.24986323  0.33720800  1
  O  O470  1  0.98511432  0.24982917  0.58380311  1
  O  O471  1  0.98256656  0.24961900  0.83482549  1
  O  O472  1  0.98132294  0.58311702  0.08591142  1
  O  O473  1  0.98357177  0.58330832  0.33529423  1
  O  O474  1  0.98485327  0.58266325  0.58560564  1
  O  O475  1  0.98400918  0.58273762  0.83317933  1
  O  O476  1  0.98585402  0.91666730  0.08667691  1
  O  O477  1  0.98354911  0.91707475  0.33467158  1
  O  O478  1  0.98553793  0.91735693  0.58655003  1
  O  O479  1  0.98383172  0.91789225  0.83641276  1
  O  O480  1  0.08749716  0.31482820  0.07801103  1
  O  O481  1  0.08678788  0.31567065  0.32780885  1
  O  O482  1  0.08915242  0.31473318  0.57660436  1
  O  O483  1  0.08643991  0.31490441  0.82736213  1
  O  O484  1  0.08477770  0.64908851  0.07816336  1
  O  O485  1  0.08752896  0.64801497  0.32802950  1
  O  O486  1  0.08849737  0.64746551  0.57693146  1
  O  O487  1  0.08828393  0.64703549  0.82648111  1
  O  O488  1  0.08962016  0.98177071  0.07826741  1
  O  O489  1  0.08794474  0.98171441  0.32728187  1
  O  O490  1  0.08904456  0.98306801  0.57841187  1
  O  O491  1  0.08798594  0.98286582  0.82817535  1
  O  O492  1  0.58680510  0.31599251  0.07788209  1
  O  O493  1  0.58731325  0.31458446  0.32697060  1
  O  O494  1  0.58666920  0.31475712  0.57771818  1
  O  O495  1  0.58821155  0.31363489  0.82711650  1
  O  O496  1  0.58874428  0.64747437  0.07726565  1
  O  O497  1  0.58727420  0.64906759  0.32822676  1
  O  O498  1  0.58886960  0.64696372  0.57613052  1
  O  O499  1  0.58759168  0.64866952  0.82766394  1
  O  O500  1  0.58645814  0.98170230  0.07681994  1
  O  O501  1  0.58567414  0.98139930  0.32751050  1
  O  O502  1  0.58795046  0.98346948  0.57858184  1
  O  O503  1  0.58854522  0.98307556  0.82770061  1
  O  O504  1  0.41110473  0.01788544  0.17257369  1
  O  O505  1  0.41291837  0.01844539  0.42187147  1
  O  O506  1  0.41279009  0.01939776  0.67407876  1
  O  O507  1  0.41321335  0.01901753  0.92234091  1
  O  O508  1  0.41392961  0.35094779  0.17308735  1
  O  O509  1  0.41342390  0.35124803  0.42171447  1
  O  O510  1  0.41431008  0.35059066  0.67223544  1
  O  O511  1  0.41245022  0.35050617  0.92178014  1
  O  O512  1  0.41215335  0.68597618  0.17251259  1
  O  O513  1  0.41331313  0.68509731  0.42309225  1
  O  O514  1  0.41238952  0.68465725  0.67219486  1
  O  O515  1  0.41267079  0.68506711  0.92260014  1
  O  O516  1  0.91460562  0.01823657  0.17282948  1
  O  O517  1  0.91475042  0.01798569  0.42240286  1
  O  O518  1  0.91513702  0.01871796  0.67334161  1
  O  O519  1  0.91393870  0.01831915  0.92269257  1
  O  O520  1  0.91059024  0.35210087  0.17347830  1
  O  O521  1  0.91217000  0.35042937  0.42271982  1
  O  O522  1  0.91338286  0.35126662  0.67180715  1
  O  O523  1  0.91381914  0.35008333  0.92208084  1
  O  O524  1  0.91325245  0.68444696  0.17323722  1
  O  O525  1  0.91276590  0.68631672  0.42309080  1
  O  O526  1  0.91228699  0.68478081  0.67194380  1
  O  O527  1  0.91195913  0.68653797  0.92168524  1
  O  O528  1  0.16297162  0.01783182  0.20303733  1
  O  O529  1  0.16098837  0.01996701  0.45189280  1
  O  O530  1  0.16289622  0.01788476  0.70249644  1
  O  O531  1  0.16096873  0.01761843  0.95344123  1
  O  O532  1  0.16446125  0.35132486  0.20270305  1
  O  O533  1  0.16208816  0.34996982  0.45178569  1
  O  O534  1  0.16074727  0.35199149  0.70176764  1
  O  O535  1  0.16214267  0.35101647  0.95152238  1
  O  O536  1  0.16055696  0.68578977  0.20253055  1
  O  O537  1  0.16361310  0.68515860  0.45064532  1
  O  O538  1  0.16206913  0.68522439  0.70240684  1
  O  O539  1  0.16070182  0.68588844  0.95339771  1
  O  O540  1  0.66160452  0.01903374  0.20318461  1
  O  O541  1  0.66080988  0.01842815  0.45201798  1
  O  O542  1  0.66078645  0.01857169  0.70251463  1
  O  O543  1  0.66075018  0.01832173  0.95237100  1
  O  O544  1  0.66242362  0.34994134  0.20293643  1
  O  O545  1  0.66156869  0.35257157  0.45146830  1
  O  O546  1  0.66208154  0.34947358  0.70186952  1
  O  O547  1  0.66078213  0.35186607  0.95386070  1
  O  O548  1  0.66406843  0.68534727  0.20305548  1
  O  O549  1  0.66347062  0.68402558  0.45138572  1
  O  O550  1  0.66244513  0.68634495  0.70211720  1
  O  O551  1  0.66264812  0.68459420  0.95369489  1
  O  O552  1  0.33923253  0.31480932  0.04768785  1
  O  O553  1  0.33996563  0.31485701  0.29765072  1
  O  O554  1  0.33782642  0.31502517  0.54801139  1
  O  O555  1  0.33948585  0.31380951  0.79745572  1
  O  O556  1  0.33605473  0.64845647  0.04804556  1
  O  O557  1  0.33926822  0.64723936  0.29827931  1
  O  O558  1  0.33806454  0.64948901  0.54633684  1
  O  O559  1  0.33499446  0.64822570  0.79763885  1
  O  O560  1  0.33623303  0.98180048  0.04879774  1
  O  O561  1  0.33711420  0.98279253  0.29764139  1
  O  O562  1  0.33871799  0.98090841  0.54677917  1
  O  O563  1  0.33505193  0.98324433  0.79786737  1
  O  O564  1  0.83591140  0.31451212  0.04741911  1
  O  O565  1  0.83632038  0.31573740  0.29812442  1
  O  O566  1  0.83771208  0.31606608  0.54629463  1
  O  O567  1  0.83573072  0.31490859  0.79839306  1
  O  O568  1  0.83700470  0.64810594  0.04831003  1
  O  O569  1  0.83831082  0.64814140  0.29710193  1
  O  O570  1  0.83638340  0.64785857  0.54668547  1
  O  O571  1  0.83686479  0.64786394  0.79730408  1
  O  O572  1  0.83602633  0.98247423  0.04778873  1
  O  O573  1  0.83877862  0.98167899  0.29851279  1
  O  O574  1  0.83849301  0.98112998  0.54724293  1
  O  O575  1  0.83631581  0.98278838  0.79863943  1
  O  O576  1  0.41090784  0.14797891  0.17226023  1
  O  O577  1  0.41313516  0.14873851  0.42155608  1
  O  O578  1  0.41268737  0.14931154  0.67296973  1
  O  O579  1  0.41326752  0.14912912  0.92163893  1
  O  O580  1  0.41323061  0.48095984  0.17339881  1
  O  O581  1  0.41397071  0.48143688  0.42222756  1
  O  O582  1  0.41425014  0.48070479  0.67288133  1
  O  O583  1  0.41295327  0.48081539  0.92277451  1
  O  O584  1  0.41267039  0.81620155  0.17218892  1
  O  O585  1  0.41308570  0.81522914  0.42298104  1
  O  O586  1  0.41243194  0.81501006  0.67243685  1
  O  O587  1  0.41212917  0.81529597  0.92232336  1
  O  O588  1  0.91453477  0.14824787  0.17293149  1
  O  O589  1  0.91436772  0.14818865  0.42263559  1
  O  O590  1  0.91474261  0.14863393  0.67290455  1
  O  O591  1  0.91380597  0.14862412  0.92239295  1
  O  O592  1  0.91116704  0.48216946  0.17299079  1
  O  O593  1  0.91163097  0.48054503  0.42322621  1
  O  O594  1  0.91400590  0.48133425  0.67234233  1
  O  O595  1  0.91349347  0.48027588  0.92217847  1
  O  O596  1  0.91262661  0.81454286  0.17337238  1
  O  O597  1  0.91354502  0.81649911  0.42218405  1
  O  O598  1  0.91183565  0.81510304  0.67164425  1
  O  O599  1  0.91324970  0.81703431  0.92206295  1
  O  O600  1  0.08761399  0.18464001  0.07827617  1
  O  O601  1  0.08754625  0.18548769  0.32819778  1
  O  O602  1  0.08916536  0.18466393  0.57688159  1
  O  O603  1  0.08676648  0.18489633  0.82764329  1
  O  O604  1  0.08543864  0.51881767  0.07803847  1
  O  O605  1  0.08705474  0.51757580  0.32760552  1
  O  O606  1  0.08846414  0.51722420  0.57779629  1
  O  O607  1  0.08774844  0.51680449  0.82740781  1
  O  O608  1  0.08944153  0.85149163  0.07854379  1
  O  O609  1  0.08744660  0.85161093  0.32699457  1
  O  O610  1  0.08917005  0.85288939  0.57744055  1
  O  O611  1  0.08755894  0.85280744  0.82704383  1
  O  O612  1  0.58778465  0.18592257  0.07743004  1
  O  O613  1  0.58657907  0.18457794  0.32677234  1
  O  O614  1  0.58696620  0.18466937  0.57798887  1
  O  O615  1  0.58736149  0.18381139  0.82735512  1
  O  O616  1  0.58835976  0.51732431  0.07797897  1
  O  O617  1  0.58745504  0.51872272  0.32822174  1
  O  O618  1  0.58841019  0.51680705  0.57712035  1
  O  O619  1  0.58800964  0.51847116  0.82816849  1
  O  O620  1  0.58596982  0.85177485  0.07664489  1
  O  O621  1  0.58564351  0.85120064  0.32763131  1
  O  O622  1  0.58837622  0.85319578  0.57734068  1
  O  O623  1  0.58939224  0.85302404  0.82687053  1
  O  O624  1  0.33919655  0.18483519  0.04759387  1
  O  O625  1  0.33984108  0.18468143  0.29724354  1
  O  O626  1  0.33779212  0.18507872  0.54785391  1
  O  O627  1  0.33888650  0.18371900  0.79699617  1
  O  O628  1  0.33665487  0.51834876  0.04783052  1
  O  O629  1  0.33882658  0.51708920  0.29828155  1
  O  O630  1  0.33847568  0.51901183  0.54722779  1
  O  O631  1  0.33479591  0.51803229  0.79785722  1
  O  O632  1  0.33586138  0.85190505  0.04906151  1
  O  O633  1  0.33769733  0.85276399  0.29772821  1
  O  O634  1  0.33802192  0.85056507  0.54630201  1
  O  O635  1  0.33565458  0.85307916  0.79779904  1
  O  O636  1  0.83543641  0.18442435  0.04774428  1
  O  O637  1  0.83691245  0.18577202  0.29884737  1
  O  O638  1  0.83786479  0.18567722  0.54738399  1
  O  O639  1  0.83611541  0.18493970  0.79848236  1
  O  O640  1  0.83650714  0.51808711  0.04862959  1
  O  O641  1  0.83845763  0.51777065  0.29663368  1
  O  O642  1  0.83555509  0.51756796  0.54716867  1
  O  O643  1  0.83675161  0.51758101  0.79752206  1
  O  O644  1  0.83636012  0.85243504  0.04733013  1
  O  O645  1  0.83914052  0.85165757  0.29770501  1
  O  O646  1  0.83833151  0.85065495  0.54584365  1
  O  O647  1  0.83671464  0.85282939  0.79836174  1
  O  O648  1  0.16272118  0.14788957  0.20222730  1
  O  O649  1  0.16215143  0.15004157  0.45206636  1
  O  O650  1  0.16245318  0.14795448  0.70196469  1
  O  O651  1  0.16098851  0.14765838  0.95202013  1
  O  O652  1  0.16448038  0.48135446  0.20284361  1
  O  O653  1  0.16088315  0.47996096  0.45152391  1
  O  O654  1  0.16112255  0.48219249  0.70238583  1
  O  O655  1  0.16104764  0.48094658  0.95232544  1
  O  O656  1  0.16117393  0.81594720  0.20332745  1
  O  O657  1  0.16364977  0.81503460  0.45064825  1
  O  O658  1  0.16218288  0.81568206  0.70264649  1
  O  O659  1  0.16121587  0.81616094  0.95419093  1
  O  O660  1  0.66173712  0.14931465  0.20392419  1
  O  O661  1  0.66082880  0.14835350  0.45196344  1
  O  O662  1  0.66078984  0.14878524  0.70232858  1
  O  O663  1  0.66071583  0.14845176  0.95223474  1
  O  O664  1  0.66154534  0.48003024  0.20247701  1
  O  O665  1  0.66232548  0.48266766  0.45210121  1
  O  O666  1  0.66063697  0.47955900  0.70178264  1
  O  O667  1  0.66155816  0.48230148  0.95441657  1
  O  O668  1  0.66390778  0.81546578  0.20284701  1
  O  O669  1  0.66374138  0.81400090  0.45034868  1
  O  O670  1  0.66291119  0.81667572  0.70234779  1
  O  O671  1  0.66217780  0.81503235  0.95344378  1
