# generated using pymatgen
data_Na2MnFe(PO4)2
_symmetry_space_group_name_H-M   'P 1'
_cell_length_a   21.08980895
_cell_length_b   18.94301000
_cell_length_c   20.04794016
_cell_angle_alpha   90.00003286
_cell_angle_beta   90.00263680
_cell_angle_gamma   89.99788293
_symmetry_Int_Tables_number   1
_chemical_formula_structural   Na2MnFe(PO4)2
_chemical_formula_sum   'Na96 Mn48 Fe48 P96 O384'
_cell_volume   8009.24153146
_cell_formula_units_Z   48
loop_
 _symmetry_equiv_pos_site_id
 _symmetry_equiv_pos_as_xyz
  1  'x, y, z'
loop_
 _atom_site_type_symbol
 _atom_site_label
 _atom_site_symmetry_multiplicity
 _atom_site_fract_x
 _atom_site_fract_y
 _atom_site_fract_z
 _atom_site_occupancy
  Na  Na0  1  0.00057534  0.00036888  -0.00028993  1
  Na  Na1  1  0.00347310  0.00124276  0.24882359  1
  Na  Na2  1  0.00008824  -0.00000273  0.50042115  1
  Na  Na3  1  -0.00150081  0.00028343  0.75083064  1
  Na  Na4  1  -0.00327775  0.33220105  -0.00030407  1
  Na  Na5  1  -0.00091378  0.33358324  0.24933764  1
  Na  Na6  1  0.00105848  0.33377652  0.50100552  1
  Na  Na7  1  0.00067741  0.33418921  0.74905601  1
  Na  Na8  1  -0.00164438  0.66580456  -0.00018748  1
  Na  Na9  1  0.00234336  0.66709296  0.24996941  1
  Na  Na10  1  0.00197713  0.66647399  0.49962207  1
  Na  Na11  1  -0.00180666  0.66532614  0.75102140  1
  Na  Na12  1  0.50020398  -0.00000022  -0.00125011  1
  Na  Na13  1  0.50044695  0.00075150  0.24979246  1
  Na  Na14  1  0.49843194  -0.00013564  0.50097950  1
  Na  Na15  1  0.49734187  -0.00107512  0.75045221  1
  Na  Na16  1  0.50096702  0.33355188  -0.00103439  1
  Na  Na17  1  0.49803101  0.33302968  0.25066395  1
  Na  Na18  1  0.49747331  0.33311414  0.50054156  1
  Na  Na19  1  0.50134745  0.33454774  0.75010108  1
  Na  Na20  1  0.49995459  0.66619373  0.00133611  1
  Na  Na21  1  0.49998889  0.66683041  0.24966987  1
  Na  Na22  1  0.50145862  0.66674910  0.49841839  1
  Na  Na23  1  0.50068425  0.66606173  0.75107723  1
  Na  Na24  1  0.24741210  -0.00060111  0.12519212  1
  Na  Na25  1  0.24841798  -0.00071502  0.37370900  1
  Na  Na26  1  0.25302596  0.00130590  0.62557255  1
  Na  Na27  1  0.24957083  -0.00013662  0.87499461  1
  Na  Na28  1  0.25204767  0.33459148  0.12560144  1
  Na  Na29  1  0.25085593  0.33383947  0.37504031  1
  Na  Na30  1  0.25039248  0.33394377  0.62477808  1
  Na  Na31  1  0.24983177  0.33341939  0.87459397  1
  Na  Na32  1  0.24883738  0.66692969  0.12534713  1
  Na  Na33  1  0.24771738  0.66574930  0.37510613  1
  Na  Na34  1  0.24881920  0.66556351  0.62518479  1
  Na  Na35  1  0.24948853  0.66612619  0.87477631  1
  Na  Na36  1  0.74992016  -0.00010811  0.12644159  1
  Na  Na37  1  0.74996039  0.00018651  0.37436880  1
  Na  Na38  1  0.75124744  0.00088532  0.62444398  1
  Na  Na39  1  0.75110965  0.00074172  0.87497198  1
  Na  Na40  1  0.75112368  0.33375855  0.12490557  1
  Na  Na41  1  0.75067735  0.33408534  0.37514612  1
  Na  Na42  1  0.74862273  0.33325706  0.62518896  1
  Na  Na43  1  0.74912514  0.33308933  0.87498719  1
  Na  Na44  1  0.75098921  0.66605775  0.12435821  1
  Na  Na45  1  0.74912809  0.66552605  0.37591403  1
  Na  Na46  1  0.75142368  0.66676145  0.62492755  1
  Na  Na47  1  0.75189059  0.66668499  0.87445967  1
  Na  Na48  1  -0.00233518  0.16692661  -0.00091399  1
  Na  Na49  1  0.00151437  0.16578702  0.24948959  1
  Na  Na50  1  0.00055151  0.16667855  0.50142114  1
  Na  Na51  1  -0.00198073  0.16723794  0.74939338  1
  Na  Na52  1  -0.00125683  0.50082688  0.00041427  1
  Na  Na53  1  0.00146331  0.49989343  0.24954468  1
  Na  Na54  1  0.00154450  0.49997271  0.50043931  1
  Na  Na55  1  -0.00015216  0.50040383  0.75016302  1
  Na  Na56  1  0.00040189  0.83235975  0.00006887  1
  Na  Na57  1  0.00138393  0.83249345  0.24899394  1
  Na  Na58  1  0.00179166  0.83233668  0.49940036  1
  Na  Na59  1  -0.00159993  0.83368064  0.75114138  1
  Na  Na60  1  0.50035058  0.16695047  -0.00129311  1
  Na  Na61  1  0.49928647  0.16694069  0.24973785  1
  Na  Na62  1  0.49878572  0.16724506  0.50166859  1
  Na  Na63  1  0.49978026  0.16715868  0.75032836  1
  Na  Na64  1  0.50273389  0.49926497  0.00004528  1
  Na  Na65  1  0.50032930  0.50029658  0.25040469  1
  Na  Na66  1  0.49984422  0.49971528  0.49924998  1
  Na  Na67  1  0.49983818  0.50027199  0.75021396  1
  Na  Na68  1  0.49865586  0.83343104  0.00035404  1
  Na  Na69  1  0.49705628  0.83413469  0.24949761  1
  Na  Na70  1  0.49901273  0.83295656  0.49915554  1
  Na  Na71  1  0.50015057  0.83271157  0.75124967  1
  Na  Na72  1  0.24970916  0.16649108  0.12539361  1
  Na  Na73  1  0.25030779  0.16661942  0.37355510  1
  Na  Na74  1  0.25203343  0.16650052  0.62510278  1
  Na  Na75  1  0.25044770  0.16685496  0.87544444  1
  Na  Na76  1  0.24897103  0.50043115  0.12531164  1
  Na  Na77  1  0.24939674  0.49979558  0.37544342  1
  Na  Na78  1  0.24997332  0.49976177  0.62532264  1
  Na  Na79  1  0.24839129  0.50054715  0.87404924  1
  Na  Na80  1  0.24944887  0.83275793  0.12552457  1
  Na  Na81  1  0.24870738  0.83336431  0.37447022  1
  Na  Na82  1  0.25059986  0.83293538  0.62528821  1
  Na  Na83  1  0.25031826  0.83319369  0.87482952  1
  Na  Na84  1  0.75080163  0.16665908  0.12563489  1
  Na  Na85  1  0.74984818  0.16708399  0.37403265  1
  Na  Na86  1  0.75190253  0.16614116  0.62429067  1
  Na  Na87  1  0.75067875  0.16698592  0.87568018  1
  Na  Na88  1  0.75049660  0.50076139  0.12465423  1
  Na  Na89  1  0.74974309  0.50062944  0.37514428  1
  Na  Na90  1  0.74971953  0.49988978  0.62595696  1
  Na  Na91  1  0.75057247  0.50018487  0.87406324  1
  Na  Na92  1  0.75101186  0.83251832  0.12535229  1
  Na  Na93  1  0.75070015  0.83216922  0.37620894  1
  Na  Na94  1  0.75008041  0.83298126  0.62410748  1
  Na  Na95  1  0.75067760  0.83260942  0.87489016  1
  Mn  Mn96  1  0.10691201  0.41596232  0.87321745  1
  Mn  Mn97  1  0.10756393  0.74980321  0.62359526  1
  Mn  Mn98  1  0.14264659  0.91675738  0.49809132  1
  Mn  Mn99  1  0.60841031  0.74959886  0.87365805  1
  Mn  Mn100  1  0.89348049  0.58305253  0.37732325  1
  Mn  Mn101  1  0.89143969  0.91662408  0.87833244  1
  Mn  Mn102  1  0.39218421  0.58306697  0.87755264  1
  Mn  Mn103  1  0.35721565  0.08281685  0.00275297  1
  Mn  Mn104  1  0.60857995  0.08357955  0.87259738  1
  Mn  Mn105  1  0.89360074  0.91697855  0.37675760  1
  Mn  Mn106  1  0.60714264  0.08327144  0.62273304  1
  Mn  Mn107  1  0.89230887  0.25081431  0.62726926  1
  Mn  Mn108  1  0.85755423  0.41638074  0.75220853  1
  Mn  Mn109  1  0.39199131  0.58307789  0.12734833  1
  Mn  Mn110  1  0.60749055  0.75061232  0.12306236  1
  Mn  Mn111  1  0.39112701  0.91743329  0.37691562  1
  Mn  Mn112  1  0.14251383  0.91709964  0.74748689  1
  Mn  Mn113  1  0.60782580  0.75087649  0.37196365  1
  Mn  Mn114  1  0.35836910  0.74930217  0.75204858  1
  Mn  Mn115  1  0.39182941  0.58358755  0.37701130  1
  Mn  Mn116  1  0.64276286  0.58337530  0.74706729  1
  Mn  Mn117  1  0.85843540  0.74953359  0.50224446  1
  Mn  Mn118  1  0.64207471  0.25019348  0.49821773  1
  Mn  Mn119  1  0.39174266  0.24950526  0.37731437  1
  Mn  Mn120  1  0.60793149  0.41617809  0.12301583  1
  Mn  Mn121  1  0.60761656  0.41600087  0.37316225  1
  Mn  Mn122  1  0.35743321  0.74960647  0.50273869  1
  Mn  Mn123  1  0.89309451  0.24999382  0.37748796  1
  Mn  Mn124  1  0.39199367  0.91612248  0.87800734  1
  Mn  Mn125  1  0.14151392  0.25042875  0.99760801  1
  Mn  Mn126  1  0.85860324  0.08236322  0.25278538  1
  Mn  Mn127  1  0.64246885  0.91712956  0.74712002  1
  Mn  Mn128  1  0.64169210  0.91692994  0.49783610  1
  Mn  Mn129  1  0.35822971  0.41752121  0.00211885  1
  Mn  Mn130  1  0.85833190  0.41760992  0.25268198  1
  Mn  Mn131  1  0.14325501  0.24993393  0.49764926  1
  Mn  Mn132  1  0.64201789  0.25073515  0.24751469  1
  Mn  Mn133  1  0.35708947  0.08296774  0.25186360  1
  Mn  Mn134  1  0.14208914  0.25044589  0.24712370  1
  Mn  Mn135  1  0.89175950  0.91580554  0.62705867  1
  Mn  Mn136  1  0.10734580  0.41625808  0.12203730  1
  Mn  Mn137  1  0.10825713  0.08338669  0.62293871  1
  Mn  Mn138  1  0.39268016  0.25059645  0.87695038  1
  Mn  Mn139  1  0.10671569  0.08415420  0.87249633  1
  Mn  Mn140  1  0.64200456  0.91550163  0.24775260  1
  Mn  Mn141  1  0.10711853  0.74969931  0.87298982  1
  Mn  Mn142  1  0.89282478  0.91633180  0.12721663  1
  Mn  Mn143  1  0.60761949  0.08333318  0.12256123  1
  Fe  Fe144  1  0.39262465  0.24974730  0.12565179  1
  Fe  Fe145  1  0.10846341  0.08352478  0.37396645  1
  Fe  Fe146  1  0.10803866  0.41624094  0.37348480  1
  Fe  Fe147  1  0.85730095  0.75049502  0.75138794  1
  Fe  Fe148  1  0.85809501  0.08373281  0.50087768  1
  Fe  Fe149  1  0.39262054  0.91591546  0.62672988  1
  Fe  Fe150  1  0.89150623  0.25067951  0.87652311  1
  Fe  Fe151  1  0.10790459  0.41695920  0.62324503  1
  Fe  Fe152  1  0.14264682  0.25035844  0.74848852  1
  Fe  Fe153  1  0.89325801  0.58308830  0.62608959  1
  Fe  Fe154  1  0.39277516  0.58344562  0.62621720  1
  Fe  Fe155  1  0.60755709  0.74926264  0.62378452  1
  Fe  Fe156  1  0.14231501  0.91587971  0.24756847  1
  Fe  Fe157  1  0.64280233  0.58287403  0.49919343  1
  Fe  Fe158  1  0.85713191  0.75016454  0.00232706  1
  Fe  Fe159  1  0.89293365  0.58341056  0.12697260  1
  Fe  Fe160  1  0.60842396  0.41684319  0.87311171  1
  Fe  Fe161  1  0.89206582  0.25009259  0.12639405  1
  Fe  Fe162  1  0.14275054  0.91610410  0.99827442  1
  Fe  Fe163  1  0.85665444  0.08324693  0.00220523  1
  Fe  Fe164  1  0.10680517  0.08352124  0.12217532  1
  Fe  Fe165  1  0.39171310  0.91727293  0.12630801  1
  Fe  Fe166  1  0.14205077  0.58369120  0.99835048  1
  Fe  Fe167  1  0.64328207  0.25017578  0.99861893  1
  Fe  Fe168  1  0.14272118  0.58321127  0.24791339  1
  Fe  Fe169  1  0.85811701  0.74969796  0.25175014  1
  Fe  Fe170  1  0.64326706  0.58361930  0.24832829  1
  Fe  Fe171  1  0.14278007  0.58309491  0.49872775  1
  Fe  Fe172  1  0.60634037  0.41746286  0.62298646  1
  Fe  Fe173  1  0.35740292  0.08422723  0.75172529  1
  Fe  Fe174  1  0.35694762  0.41768794  0.25156101  1
  Fe  Fe175  1  0.64303126  0.24955643  0.74823428  1
  Fe  Fe176  1  0.35687117  0.41690036  0.50251297  1
  Fe  Fe177  1  0.14223693  0.58266655  0.74798108  1
  Fe  Fe178  1  0.35795660  0.08365778  0.50158672  1
  Fe  Fe179  1  0.35698162  0.41662481  0.75154793  1
  Fe  Fe180  1  0.85723988  0.08327297  0.75136430  1
  Fe  Fe181  1  0.85793864  0.41685158  0.50206774  1
  Fe  Fe182  1  0.64392984  0.58343922  0.99856900  1
  Fe  Fe183  1  0.60737960  0.08335884  0.37438481  1
  Fe  Fe184  1  0.35648591  0.74981373  0.00208975  1
  Fe  Fe185  1  0.10713073  0.74994691  0.12220357  1
  Fe  Fe186  1  0.64259608  0.91638166  0.99919073  1
  Fe  Fe187  1  0.89256177  0.58263898  0.87708433  1
  Fe  Fe188  1  0.35556597  0.74934246  0.25127811  1
  Fe  Fe189  1  0.10809176  0.75013510  0.37262926  1
  Fe  Fe190  1  0.85658158  0.41672317  0.00131346  1
  Fe  Fe191  1  0.39257113  0.25068994  0.62779684  1
  P  P192  1  0.05148653  0.24958151  0.10943880  1
  P  P193  1  0.05407181  0.25034143  0.36019989  1
  P  P194  1  0.05520499  0.25079461  0.61136859  1
  P  P195  1  0.05156702  0.25012867  0.85906210  1
  P  P196  1  0.05405286  0.58411163  0.11049602  1
  P  P197  1  0.05609314  0.58271202  0.36068427  1
  P  P198  1  0.05443621  0.58259731  0.61082517  1
  P  P199  1  0.05369428  0.58294635  0.86085730  1
  P  P200  1  0.05531311  0.91612644  0.11013680  1
  P  P201  1  0.05485175  0.91682452  0.35917218  1
  P  P202  1  0.05297185  0.91662571  0.61015690  1
  P  P203  1  0.05406212  0.91664891  0.86117160  1
  P  P204  1  0.55254480  0.25010703  0.10909201  1
  P  P205  1  0.55322996  0.24911692  0.36045319  1
  P  P206  1  0.55305119  0.25114667  0.61180191  1
  P  P207  1  0.55613570  0.25091306  0.86033466  1
  P  P208  1  0.55524001  0.58347579  0.11065397  1
  P  P209  1  0.55521027  0.58313160  0.36023452  1
  P  P210  1  0.55264785  0.58297027  0.60960208  1
  P  P211  1  0.55545815  0.58274691  0.86142420  1
  P  P212  1  0.55201512  0.91658636  0.10926408  1
  P  P213  1  0.55274564  0.91778878  0.35984734  1
  P  P214  1  0.55184456  0.91575248  0.61038318  1
  P  P215  1  0.55499053  0.91640360  0.86114643  1
  P  P216  1  0.44619659  0.08329796  0.13941935  1
  P  P217  1  0.44709959  0.08344487  0.39083215  1
  P  P218  1  0.44459821  0.08358800  0.63985802  1
  P  P219  1  0.44549620  0.08381940  0.88899635  1
  P  P220  1  0.44617328  0.41606347  0.14055738  1
  P  P221  1  0.44431507  0.41703694  0.38978410  1
  P  P222  1  0.44540371  0.41741288  0.63943220  1
  P  P223  1  0.44734065  0.41687382  0.88888275  1
  P  P224  1  0.44399558  0.75073192  0.13951991  1
  P  P225  1  0.44481721  0.74991631  0.38844780  1
  P  P226  1  0.44817179  0.74896281  0.63982870  1
  P  P227  1  0.44603124  0.74919721  0.89159593  1
  P  P228  1  0.94620611  0.08360136  0.13842693  1
  P  P229  1  0.94877423  0.08331450  0.39047866  1
  P  P230  1  0.94492314  0.08337079  0.63962950  1
  P  P231  1  0.94375076  0.08433475  0.88942564  1
  P  P232  1  0.94483732  0.41710211  0.13830349  1
  P  P233  1  0.94820188  0.41698239  0.39085600  1
  P  P234  1  0.94688493  0.41780103  0.63887943  1
  P  P235  1  0.94535048  0.41663834  0.89032418  1
  P  P236  1  0.94603052  0.74898988  0.13918485  1
  P  P237  1  0.94787696  0.74972690  0.38857810  1
  P  P238  1  0.94628342  0.74853882  0.64069266  1
  P  P239  1  0.94428439  0.74902915  0.88976685  1
  P  P240  1  0.19406376  0.08274541  0.23514841  1
  P  P241  1  0.19838362  0.08351343  0.48457761  1
  P  P242  1  0.19778583  0.08457705  0.73539761  1
  P  P243  1  0.19481522  0.08280233  0.98589659  1
  P  P244  1  0.19630325  0.41740052  0.23605225  1
  P  P245  1  0.19624086  0.41728766  0.48597609  1
  P  P246  1  0.19645171  0.41641619  0.73474968  1
  P  P247  1  0.19666326  0.41753514  0.98476198  1
  P  P248  1  0.19485216  0.74961971  0.23544216  1
  P  P249  1  0.19578771  0.74914804  0.48480282  1
  P  P250  1  0.19666950  0.74907490  0.73534439  1
  P  P251  1  0.19607850  0.74992842  0.98613266  1
  P  P252  1  0.69555154  0.08331104  0.23617627  1
  P  P253  1  0.69753621  0.08377030  0.48439690  1
  P  P254  1  0.69796675  0.08440463  0.73478153  1
  P  P255  1  0.69768346  0.08325234  0.98575989  1
  P  P256  1  0.69697806  0.41784098  0.23507226  1
  P  P257  1  0.69669557  0.41766742  0.48660518  1
  P  P258  1  0.69475910  0.41579834  0.73540741  1
  P  P259  1  0.69728159  0.41691614  0.98486256  1
  P  P260  1  0.69818251  0.74883643  0.23493726  1
  P  P261  1  0.69520153  0.74863657  0.48647319  1
  P  P262  1  0.69753092  0.74988800  0.73435292  1
  P  P263  1  0.69811241  0.74977964  0.98561444  1
  P  P264  1  0.30351441  0.25034311  0.01558191  1
  P  P265  1  0.30461035  0.25079321  0.26338430  1
  P  P266  1  0.30452251  0.25009407  0.51550597  1
  P  P267  1  0.30370551  0.25091148  0.76377456  1
  P  P268  1  0.30166197  0.58399724  0.01501474  1
  P  P269  1  0.30188171  0.58367816  0.26480245  1
  P  P270  1  0.30260495  0.58265976  0.51549040  1
  P  P271  1  0.30355855  0.58216748  0.76354306  1
  P  P272  1  0.30219943  0.91579583  0.01567349  1
  P  P273  1  0.30259983  0.91575122  0.26321105  1
  P  P274  1  0.30386536  0.91733507  0.51551601  1
  P  P275  1  0.30513455  0.91715538  0.76405650  1
  P  P276  1  0.80382832  0.25037098  0.01423725  1
  P  P277  1  0.80487085  0.25019683  0.26418508  1
  P  P278  1  0.80384739  0.25049705  0.51460953  1
  P  P279  1  0.80275932  0.24977054  0.76526150  1
  P  P280  1  0.80466719  0.58294108  0.01390735  1
  P  P281  1  0.80419385  0.58451550  0.26417770  1
  P  P282  1  0.80356035  0.58225064  0.51560808  1
  P  P283  1  0.80564209  0.58391906  0.76390067  1
  P  P284  1  0.80213124  0.91672569  0.01548839  1
  P  P285  1  0.80381314  0.91502205  0.26532184  1
  P  P286  1  0.80351790  0.91740856  0.51429616  1
  P  P287  1  0.80351297  0.91653734  0.76480036  1
  O  O288  1  0.05584221  0.25037773  0.18608403  1
  O  O289  1  0.05690434  0.25041147  0.43698620  1
  O  O290  1  0.05928471  0.25013015  0.68810104  1
  O  O291  1  0.05556649  0.24991038  0.93574742  1
  O  O292  1  0.05901592  0.58340519  0.18716873  1
  O  O293  1  0.05961778  0.58284127  0.43749892  1
  O  O294  1  0.05867764  0.58292053  0.68759088  1
  O  O295  1  0.05861521  0.58329437  0.93754747  1
  O  O296  1  0.05900510  0.91593126  0.18692120  1
  O  O297  1  0.05715953  0.91658786  0.43599752  1
  O  O298  1  0.05602797  0.91708774  0.68696528  1
  O  O299  1  0.05872463  0.91630051  0.93789331  1
  O  O300  1  0.55621731  0.25031447  0.18582504  1
  O  O301  1  0.55620775  0.25022877  0.43726248  1
  O  O302  1  0.55824645  0.25019916  0.68838051  1
  O  O303  1  0.56061383  0.25000987  0.93710255  1
  O  O304  1  0.55945601  0.58374157  0.18739153  1
  O  O305  1  0.55948289  0.58284629  0.43696282  1
  O  O306  1  0.55628411  0.58297729  0.68632447  1
  O  O307  1  0.56020922  0.58339365  0.93814811  1
  O  O308  1  0.55616713  0.91624386  0.18594911  1
  O  O309  1  0.55591563  0.91664734  0.43662919  1
  O  O310  1  0.55567758  0.91653742  0.68711705  1
  O  O311  1  0.55994835  0.91651531  0.93788736  1
  O  O312  1  0.44360961  0.08308026  0.06263730  1
  O  O313  1  0.44292784  0.08343780  0.31413136  1
  O  O314  1  0.44103807  0.08380018  0.56306121  1
  O  O315  1  0.44084591  0.08401202  0.81227139  1
  O  O316  1  0.44375199  0.41732202  0.06370814  1
  O  O317  1  0.43983417  0.41761773  0.31302944  1
  O  O318  1  0.44079851  0.41722298  0.56270834  1
  O  O319  1  0.44179918  0.41711778  0.81230223  1
  O  O320  1  0.43983787  0.74960410  0.06276190  1
  O  O321  1  0.43966829  0.74943349  0.31175983  1
  O  O322  1  0.44454424  0.74889152  0.56312673  1
  O  O323  1  0.44286869  0.74902251  0.81479768  1
  O  O324  1  0.94069320  0.08283614  0.06178328  1
  O  O325  1  0.94498359  0.08319973  0.31372847  1
  O  O326  1  0.94075450  0.08344943  0.56286046  1
  O  O327  1  0.93974408  0.08347451  0.81262194  1
  O  O328  1  0.94045424  0.41708944  0.06162442  1
  O  O329  1  0.94410344  0.41740905  0.31410624  1
  O  O330  1  0.94205156  0.41710662  0.56226114  1
  O  O331  1  0.94324169  0.41666889  0.81346793  1
  O  O332  1  0.94068527  0.74974638  0.06249222  1
  O  O333  1  0.94287602  0.74947813  0.31195869  1
  O  O334  1  0.94411305  0.74925130  0.56382838  1
  O  O335  1  0.94039256  0.75017536  0.81303929  1
  O  O336  1  0.19051176  0.08392656  0.06267012  1
  O  O337  1  0.19055097  0.08374533  0.31197115  1
  O  O338  1  0.19452215  0.08366828  0.56126935  1
  O  O339  1  0.19353699  0.08408413  0.81207510  1
  O  O340  1  0.19346276  0.41669812  0.06154724  1
  O  O341  1  0.19194250  0.41623596  0.31270493  1
  O  O342  1  0.19155962  0.41676324  0.56263556  1
  O  O343  1  0.19266146  0.41637295  0.81141940  1
  O  O344  1  0.19164891  0.74974653  0.06283288  1
  O  O345  1  0.19097522  0.74994495  0.31219464  1
  O  O346  1  0.19296439  0.74989820  0.56156230  1
  O  O347  1  0.19337269  0.74962167  0.81209369  1
  O  O348  1  0.69419068  0.08334812  0.06246249  1
  O  O349  1  0.69098383  0.08354734  0.31284998  1
  O  O350  1  0.69323092  0.08367196  0.56111427  1
  O  O351  1  0.69441277  0.08381844  0.81149210  1
  O  O352  1  0.69403082  0.41691117  0.06156835  1
  O  O353  1  0.69374153  0.41684688  0.31183006  1
  O  O354  1  0.69128519  0.41696819  0.56323949  1
  O  O355  1  0.69137836  0.41692831  0.81217741  1
  O  O356  1  0.69420048  0.74967335  0.06223577  1
  O  O357  1  0.69437185  0.74959432  0.31165220  1
  O  O358  1  0.69068945  0.74954247  0.56319344  1
  O  O359  1  0.69373692  0.74952224  0.81103942  1
  O  O360  1  0.30884101  0.24999915  0.18671098  1
  O  O361  1  0.30664542  0.24987158  0.43865932  1
  O  O362  1  0.30847236  0.25096482  0.68710704  1
  O  O363  1  0.30683644  0.25031324  0.93877212  1
  O  O364  1  0.30553185  0.58356683  0.18814776  1
  O  O365  1  0.30614680  0.58332261  0.43883756  1
  O  O366  1  0.30876936  0.58312993  0.68696842  1
  O  O367  1  0.30555115  0.58324211  0.93832266  1
  O  O368  1  0.30736374  0.91687527  0.18662586  1
  O  O369  1  0.30592519  0.91648916  0.43865202  1
  O  O370  1  0.30952924  0.91596679  0.68729742  1
  O  O371  1  0.30594025  0.91665524  0.93892750  1
  O  O372  1  0.80923851  0.25001834  0.18738261  1
  O  O373  1  0.80680278  0.25081390  0.43783512  1
  O  O374  1  0.80650366  0.25078062  0.68856950  1
  O  O375  1  0.80783061  0.25045880  0.93753369  1
  O  O376  1  0.80892806  0.58381582  0.18749744  1
  O  O377  1  0.80738137  0.58262063  0.43887851  1
  O  O378  1  0.80960742  0.58277073  0.68720848  1
  O  O379  1  0.80867794  0.58289863  0.93717942  1
  O  O380  1  0.80714025  0.91597115  0.18856766  1
  O  O381  1  0.80693827  0.91666187  0.43757529  1
  O  O382  1  0.80612208  0.91641369  0.68803855  1
  O  O383  1  0.80537370  0.91670088  0.93877231  1
  O  O384  1  0.23374972  0.25064983  0.04046545  1
  O  O385  1  0.23465203  0.25029262  0.28775798  1
  O  O386  1  0.23491932  0.25032571  0.54095855  1
  O  O387  1  0.23342783  0.25083767  0.78779967  1
  O  O388  1  0.23165259  0.58374134  0.03964638  1
  O  O389  1  0.23188635  0.58337826  0.28945684  1
  O  O390  1  0.23246859  0.58286397  0.53985333  1
  O  O391  1  0.23308463  0.58244857  0.78697299  1
  O  O392  1  0.23211568  0.91604232  0.03996860  1
  O  O393  1  0.23226105  0.91583280  0.28690698  1
  O  O394  1  0.23437363  0.91700543  0.54131831  1
  O  O395  1  0.23512547  0.91685033  0.78827704  1
  O  O396  1  0.73347819  0.25030559  0.03843240  1
  O  O397  1  0.73486176  0.25062876  0.28818493  1
  O  O398  1  0.73424277  0.25007328  0.54003570  1
  O  O399  1  0.73274484  0.25021393  0.78973178  1
  O  O400  1  0.73427799  0.58321033  0.03781054  1
  O  O401  1  0.73404182  0.58378915  0.28824477  1
  O  O402  1  0.73351208  0.58306536  0.54014788  1
  O  O403  1  0.73553530  0.58322577  0.78789700  1
  O  O404  1  0.73225639  0.91642836  0.04072325  1
  O  O405  1  0.73417944  0.91541393  0.29041886  1
  O  O406  1  0.73382849  0.91701278  0.53951325  1
  O  O407  1  0.73400717  0.91656480  0.79048942  1
  O  O408  1  0.26412983  0.08313772  0.21101293  1
  O  O409  1  0.26838419  0.08334165  0.45992114  1
  O  O410  1  0.26792346  0.08427826  0.71126373  1
  O  O411  1  0.26481912  0.08306953  0.96176120  1
  O  O412  1  0.26653151  0.41773851  0.21202172  1
  O  O413  1  0.26669314  0.41666332  0.46255560  1
  O  O414  1  0.26657963  0.41663652  0.71034263  1
  O  O415  1  0.26623903  0.41720635  0.95940306  1
  O  O416  1  0.26513155  0.74965080  0.21142479  1
  O  O417  1  0.26545923  0.74964773  0.45958871  1
  O  O418  1  0.26632834  0.74896858  0.71020447  1
  O  O419  1  0.26626039  0.74993867  0.96184162  1
  O  O420  1  0.76568693  0.08311441  0.21233997  1
  O  O421  1  0.76771831  0.08390178  0.46020328  1
  O  O422  1  0.76799222  0.08387399  0.71026885  1
  O  O423  1  0.76772892  0.08369053  0.96104437  1
  O  O424  1  0.76662272  0.41755264  0.21000534  1
  O  O425  1  0.76705522  0.41741540  0.46290104  1
  O  O426  1  0.76487736  0.41645645  0.71129855  1
  O  O427  1  0.76737342  0.41685870  0.96012348  1
  O  O428  1  0.76807570  0.74925838  0.21012813  1
  O  O429  1  0.76534129  0.74874627  0.46247764  1
  O  O430  1  0.76767610  0.74993594  0.71017517  1
  O  O431  1  0.76824211  0.74951626  0.96113005  1
  O  O432  1  0.01675997  0.08331078  0.16140412  1
  O  O433  1  0.01885625  0.08342222  0.41497787  1
  O  O434  1  0.01498323  0.08383785  0.66374298  1
  O  O435  1  0.01383883  0.08357016  0.91339120  1
  O  O436  1  0.01488186  0.41713757  0.16255672  1
  O  O437  1  0.01837127  0.41687490  0.41486444  1
  O  O438  1  0.01714129  0.41749779  0.66277534  1
  O  O439  1  0.01481660  0.41653953  0.91615723  1
  O  O440  1  0.01664654  0.74963007  0.16197638  1
  O  O441  1  0.01831087  0.74946141  0.41199163  1
  O  O442  1  0.01566864  0.74932857  0.66670297  1
  O  O443  1  0.01433119  0.74928777  0.91393441  1
  O  O444  1  0.51570067  0.08339749  0.16506818  1
  O  O445  1  0.51702382  0.08344454  0.41557905  1
  O  O446  1  0.51462550  0.08336358  0.66446094  1
  O  O447  1  0.51564583  0.08376670  0.91265946  1
  O  O448  1  0.51576496  0.41669755  0.16603146  1
  O  O449  1  0.51447783  0.41634316  0.41348732  1
  O  O450  1  0.51583749  0.41748910  0.66305675  1
  O  O451  1  0.51772669  0.41650432  0.91227938  1
  O  O452  1  0.51411545  0.75043260  0.16358314  1
  O  O453  1  0.51501386  0.75002312  0.41185497  1
  O  O454  1  0.51808303  0.74903598  0.66506359  1
  O  O455  1  0.51582197  0.74953986  0.91630117  1
  O  O456  1  0.48254000  0.25014977  0.08447283  1
  O  O457  1  0.48359734  0.24975510  0.33531365  1
  O  O458  1  0.48256217  0.25085219  0.58849430  1
  O  O459  1  0.48596513  0.25064428  0.83659780  1
  O  O460  1  0.48503706  0.58283158  0.08685180  1
  O  O461  1  0.48503222  0.58346437  0.33641497  1
  O  O462  1  0.48260788  0.58277402  0.58484067  1
  O  O463  1  0.48537059  0.58324566  0.83746975  1
  O  O464  1  0.48183938  0.91673192  0.08516845  1
  O  O465  1  0.48310570  0.91747747  0.33464312  1
  O  O466  1  0.48177618  0.91624846  0.58583944  1
  O  O467  1  0.48478881  0.91606266  0.83777138  1
  O  O468  1  0.98132598  0.24970189  0.08534073  1
  O  O469  1  0.98458784  0.25005616  0.33443374  1
  O  O470  1  0.98521073  0.25037632  0.58719287  1
  O  O471  1  0.98140908  0.25079449  0.83492796  1
  O  O472  1  0.98356179  0.58368701  0.08723597  1
  O  O473  1  0.98613492  0.58310383  0.33603961  1
  O  O474  1  0.98424686  0.58311851  0.58665388  1
  O  O475  1  0.98317892  0.58269600  0.83777650  1
  O  O476  1  0.98528266  0.91611845  0.08573598  1
  O  O477  1  0.98539628  0.91695343  0.33313061  1
  O  O478  1  0.98347528  0.91605057  0.58472453  1
  O  O479  1  0.98386212  0.91706344  0.83766421  1
  O  O480  1  0.08492497  0.31472030  0.07634747  1
  O  O481  1  0.08792969  0.31569567  0.32781933  1
  O  O482  1  0.08850203  0.31609407  0.57862180  1
  O  O483  1  0.08596009  0.31498749  0.82659153  1
  O  O484  1  0.08706870  0.64931544  0.07711736  1
  O  O485  1  0.09007321  0.64758062  0.32766957  1
  O  O486  1  0.08824293  0.64741547  0.57756999  1
  O  O487  1  0.08686925  0.64781632  0.82718713  1
  O  O488  1  0.08902018  0.98114930  0.07731809  1
  O  O489  1  0.08939307  0.98191176  0.32736737  1
  O  O490  1  0.08698213  0.98169741  0.57768215  1
  O  O491  1  0.08755881  0.98162900  0.82798977  1
  O  O492  1  0.58670839  0.31504154  0.07643095  1
  O  O493  1  0.58751116  0.31399426  0.32769623  1
  O  O494  1  0.58595551  0.31640116  0.57842541  1
  O  O495  1  0.58957856  0.31602817  0.82750581  1
  O  O496  1  0.58848017  0.64862841  0.07738781  1
  O  O497  1  0.58899086  0.64798420  0.32694946  1
  O  O498  1  0.58674654  0.64788912  0.57698862  1
  O  O499  1  0.58895517  0.64769842  0.82800601  1
  O  O500  1  0.58611263  0.98145921  0.07649387  1
  O  O501  1  0.58677565  0.98309795  0.32817052  1
  O  O502  1  0.58571283  0.98083996  0.57760609  1
  O  O503  1  0.58796319  0.98158552  0.82766682  1
  O  O504  1  0.41198681  0.01815459  0.17178222  1
  O  O505  1  0.41287936  0.01856911  0.42346092  1
  O  O506  1  0.41071942  0.01851942  0.67243924  1
  O  O507  1  0.41205537  0.01878808  0.92215909  1
  O  O508  1  0.41212703  0.35067370  0.17213108  1
  O  O509  1  0.41041743  0.35221254  0.42279168  1
  O  O510  1  0.41206130  0.35244585  0.67307890  1
  O  O511  1  0.41396549  0.35194308  0.92217681  1
  O  O512  1  0.41029941  0.68580447  0.17298683  1
  O  O513  1  0.41174908  0.68496276  0.42219465  1
  O  O514  1  0.41440384  0.68372629  0.67246192  1
  O  O515  1  0.41192803  0.68421835  0.92413446  1
  O  O516  1  0.91351099  0.01845023  0.17233002  1
  O  O517  1  0.91479377  0.01834804  0.42310288  1
  O  O518  1  0.91146723  0.01829562  0.67275410  1
  O  O519  1  0.90979358  0.01971045  0.92310866  1
  O  O520  1  0.91148160  0.35197593  0.17130437  1
  O  O521  1  0.91427966  0.35199966  0.42352491  1
  O  O522  1  0.91338322  0.35289727  0.67242470  1
  O  O523  1  0.91070981  0.35161960  0.92220577  1
  O  O524  1  0.91324787  0.68377478  0.17268159  1
  O  O525  1  0.91457780  0.68489312  0.42227111  1
  O  O526  1  0.91222489  0.68319682  0.67240565  1
  O  O527  1  0.91090819  0.68363488  0.92224344  1
  O  O528  1  0.16053220  0.01745860  0.20269465  1
  O  O529  1  0.16413332  0.01863054  0.45202340  1
  O  O530  1  0.16419412  0.01955003  0.70227354  1
  O  O531  1  0.16151750  0.01737799  0.95344844  1
  O  O532  1  0.16309889  0.35256564  0.20209806  1
  O  O533  1  0.16277821  0.35248195  0.45221021  1
  O  O534  1  0.16268503  0.35142051  0.70184773  1
  O  O535  1  0.16238957  0.35254105  0.95223801  1
  O  O536  1  0.16145054  0.68442915  0.20247449  1
  O  O537  1  0.16181642  0.68381467  0.45285089  1
  O  O538  1  0.16247134  0.68395135  0.70328425  1
  O  O539  1  0.16258517  0.68483091  0.95304618  1
  O  O540  1  0.66207107  0.01816373  0.20316599  1
  O  O541  1  0.66353136  0.01881690  0.45163947  1
  O  O542  1  0.66396496  0.01949137  0.70193023  1
  O  O543  1  0.66416852  0.01803231  0.95310295  1
  O  O544  1  0.66285292  0.35292070  0.20222462  1
  O  O545  1  0.66336004  0.35270537  0.45296334  1
  O  O546  1  0.66134765  0.35053731  0.70282864  1
  O  O547  1  0.66330174  0.35184450  0.95235511  1
  O  O548  1  0.66432030  0.68380431  0.20243849  1
  O  O549  1  0.66196168  0.68328112  0.45386921  1
  O  O550  1  0.66373048  0.68491787  0.70132919  1
  O  O551  1  0.66453635  0.68472235  0.95260076  1
  O  O552  1  0.33807283  0.31518963  0.04784574  1
  O  O553  1  0.33785863  0.31607185  0.29617396  1
  O  O554  1  0.33890797  0.31517729  0.54770148  1
  O  O555  1  0.33699014  0.31619569  0.79686210  1
  O  O556  1  0.33537007  0.64901789  0.04767955  1
  O  O557  1  0.33531770  0.64894954  0.29751795  1
  O  O558  1  0.33655138  0.64751078  0.54863461  1
  O  O559  1  0.33691398  0.64690254  0.79741905  1
  O  O560  1  0.33610794  0.98068724  0.04880478  1
  O  O561  1  0.33574729  0.98075980  0.29696458  1
  O  O562  1  0.33828537  0.98247500  0.54711607  1
  O  O563  1  0.33838287  0.98254462  0.79666547  1
  O  O564  1  0.83722935  0.31554786  0.04725268  1
  O  O565  1  0.83861072  0.31519571  0.29709257  1
  O  O566  1  0.83770768  0.31565076  0.54730627  1
  O  O567  1  0.83679167  0.31468905  0.79831426  1
  O  O568  1  0.83831974  0.64780005  0.04728435  1
  O  O569  1  0.83739717  0.64970962  0.29730079  1
  O  O570  1  0.83810670  0.64706510  0.54813492  1
  O  O571  1  0.83890140  0.64920504  0.79663582  1
  O  O572  1  0.83600926  0.98183816  0.04799638  1
  O  O573  1  0.83806322  0.98006826  0.29778335  1
  O  O574  1  0.83738089  0.98266091  0.54635316  1
  O  O575  1  0.83768882  0.98166360  0.79697093  1
  O  O576  1  0.41201771  0.14848280  0.17146791  1
  O  O577  1  0.41307165  0.14835012  0.42368686  1
  O  O578  1  0.41105437  0.14884191  0.67285646  1
  O  O579  1  0.41214062  0.14882238  0.92212893  1
  O  O580  1  0.41142444  0.48082095  0.17326427  1
  O  O581  1  0.41113816  0.48209355  0.42326617  1
  O  O582  1  0.41208779  0.48253741  0.67263388  1
  O  O583  1  0.41436965  0.48183882  0.92277994  1
  O  O584  1  0.41035545  0.81600806  0.17194144  1
  O  O585  1  0.41148409  0.81499464  0.42156410  1
  O  O586  1  0.41411071  0.81396586  0.67238929  1
  O  O587  1  0.41150087  0.81406712  0.92391392  1
  O  O588  1  0.91322126  0.14862603  0.17180593  1
  O  O589  1  0.91472357  0.14821735  0.42324350  1
  O  O590  1  0.91089171  0.14822620  0.67265188  1
  O  O591  1  0.91062135  0.14987106  0.92188437  1
  O  O592  1  0.91173670  0.48245706  0.17152996  1
  O  O593  1  0.91441186  0.48192254  0.42384234  1
  O  O594  1  0.91357226  0.48280911  0.67202840  1
  O  O595  1  0.91098910  0.48167069  0.92251885  1
  O  O596  1  0.91267473  0.81377917  0.17297167  1
  O  O597  1  0.91482448  0.81480919  0.42195761  1
  O  O598  1  0.91124071  0.81320878  0.67300882  1
  O  O599  1  0.91055113  0.81379011  0.92348931  1
  O  O600  1  0.08512699  0.18462836  0.07662559  1
  O  O601  1  0.08842013  0.18527011  0.32818356  1
  O  O602  1  0.08889823  0.18594946  0.57806361  1
  O  O603  1  0.08520263  0.18512439  0.82603263  1
  O  O604  1  0.08751968  0.51934767  0.07676458  1
  O  O605  1  0.08947522  0.51736198  0.32788187  1
  O  O606  1  0.08799133  0.51758527  0.57769808  1
  O  O607  1  0.08699501  0.51794706  0.82747795  1
  O  O608  1  0.08888949  0.85091394  0.07722729  1
  O  O609  1  0.08910500  0.85166995  0.32682518  1
  O  O610  1  0.08743521  0.85163397  0.57817791  1
  O  O611  1  0.08711608  0.85149787  0.82788724  1
  O  O612  1  0.58663587  0.18517339  0.07641397  1
  O  O613  1  0.58695903  0.18375777  0.32849865  1
  O  O614  1  0.58627646  0.18622098  0.57810188  1
  O  O615  1  0.58969568  0.18596026  0.82678239  1
  O  O616  1  0.58926856  0.51871139  0.07759356  1
  O  O617  1  0.58863554  0.51804491  0.32711540  1
  O  O618  1  0.58670559  0.51788984  0.57686257  1
  O  O619  1  0.58868255  0.51760968  0.82829136  1
  O  O620  1  0.58592716  0.85159653  0.07635612  1
  O  O621  1  0.58680890  0.85283509  0.32686810  1
  O  O622  1  0.58544743  0.85061337  0.57789145  1
  O  O623  1  0.58834720  0.85130528  0.82809778  1
  O  O624  1  0.33750650  0.18525688  0.04813061  1
  O  O625  1  0.33820091  0.18574634  0.29664624  1
  O  O626  1  0.33878988  0.18507813  0.54772145  1
  O  O627  1  0.33719188  0.18597626  0.79703343  1
  O  O628  1  0.33565411  0.51907787  0.04790197  1
  O  O629  1  0.33594556  0.51884048  0.29756708  1
  O  O630  1  0.33648862  0.51766786  0.54815967  1
  O  O631  1  0.33650745  0.51680374  0.79677811  1
  O  O632  1  0.33606624  0.85072875  0.04806340  1
  O  O633  1  0.33579556  0.85062446  0.29624766  1
  O  O634  1  0.33847808  0.85242332  0.54799036  1
  O  O635  1  0.33868048  0.85211755  0.79733398  1
  O  O636  1  0.83736771  0.18539484  0.04754188  1
  O  O637  1  0.83825689  0.18504946  0.29721298  1
  O  O638  1  0.83828341  0.18539817  0.54645507  1
  O  O639  1  0.83660595  0.18472573  0.79770528  1
  O  O640  1  0.83779472  0.51780605  0.04722532  1
  O  O641  1  0.83787466  0.51967887  0.29767057  1
  O  O642  1  0.83729807  0.51720842  0.54846167  1
  O  O643  1  0.83949027  0.51916979  0.79748941  1
  O  O644  1  0.83648222  0.85170065  0.04771442  1
  O  O645  1  0.83784076  0.84970011  0.29722371  1
  O  O646  1  0.83764659  0.85229039  0.54676889  1
  O  O647  1  0.83776581  0.85143576  0.79705122  1
  O  O648  1  0.16014809  0.14751743  0.20170971  1
  O  O649  1  0.16450182  0.14848993  0.45167738  1
  O  O650  1  0.16431815  0.14968511  0.70262855  1
  O  O651  1  0.16125889  0.14778133  0.95253474  1
  O  O652  1  0.16260967  0.48249698  0.20332666  1
  O  O653  1  0.16309859  0.48243383  0.45286935  1
  O  O654  1  0.16243152  0.48141623  0.70195302  1
  O  O655  1  0.16253827  0.48273707  0.95285092  1
  O  O656  1  0.16128421  0.81444373  0.20200684  1
  O  O657  1  0.16129483  0.81391848  0.45205038  1
  O  O658  1  0.16280067  0.81417468  0.70276919  1
  O  O659  1  0.16265266  0.81505014  0.95307526  1
  O  O660  1  0.66227748  0.14835660  0.20274269  1
  O  O661  1  0.66357576  0.14874933  0.45167970  1
  O  O662  1  0.66433008  0.14955946  0.70221294  1
  O  O663  1  0.66379233  0.14829159  0.95308529  1
  O  O664  1  0.66310740  0.48309537  0.20298991  1
  O  O665  1  0.66347735  0.48286035  0.45354470  1
  O  O666  1  0.66073347  0.48048183  0.70200570  1
  O  O667  1  0.66345114  0.48194318  0.95205111  1
  O  O668  1  0.66396689  0.81376683  0.20214994  1
  O  O669  1  0.66176402  0.81363264  0.45299146  1
  O  O670  1  0.66351139  0.81477261  0.70159847  1
  O  O671  1  0.66456889  0.81499819  0.95298975  1
