# generated using pymatgen
data_Na2MnFe(PO4)2
_symmetry_space_group_name_H-M   'P 1'
_cell_length_a   21.08698293
_cell_length_b   18.93973996
_cell_length_c   20.04603229
_cell_angle_alpha   90.00030797
_cell_angle_beta   89.99670087
_cell_angle_gamma   89.99962509
_symmetry_Int_Tables_number   1
_chemical_formula_structural   Na2MnFe(PO4)2
_chemical_formula_sum   'Na96 Mn48 Fe48 P96 O384'
_cell_volume   8006.02391927
_cell_formula_units_Z   48
loop_
 _symmetry_equiv_pos_site_id
 _symmetry_equiv_pos_as_xyz
  1  'x, y, z'
loop_
 _atom_site_type_symbol
 _atom_site_label
 _atom_site_symmetry_multiplicity
 _atom_site_fract_x
 _atom_site_fract_y
 _atom_site_fract_z
 _atom_site_occupancy
  Na  Na0  1  -0.00063326  0.00010375  -0.00010733  1
  Na  Na1  1  -0.00127373  0.00005641  0.24937932  1
  Na  Na2  1  0.00008222  0.00047265  0.49924961  1
  Na  Na3  1  0.00070428  0.00050072  0.75111199  1
  Na  Na4  1  -0.00061888  0.33309520  0.00010963  1
  Na  Na5  1  0.00150973  0.33402348  0.24852078  1
  Na  Na6  1  0.00049942  0.33369440  0.49964614  1
  Na  Na7  1  -0.00048158  0.33377756  0.75144052  1
  Na  Na8  1  0.00053162  0.66649611  -0.00018744  1
  Na  Na9  1  0.00244471  0.66708438  0.24921536  1
  Na  Na10  1  0.00203170  0.66591331  0.50092359  1
  Na  Na11  1  -0.00027760  0.66562419  0.75035655  1
  Na  Na12  1  0.50135189  0.00050089  -0.00045911  1
  Na  Na13  1  0.50002921  0.00045643  0.25003219  1
  Na  Na14  1  0.49984638  -0.00031614  0.50019104  1
  Na  Na15  1  0.50230407  0.00042345  0.75017828  1
  Na  Na16  1  0.50034433  0.33311256  0.00057884  1
  Na  Na17  1  0.50004306  0.33363441  0.24949367  1
  Na  Na18  1  0.49970129  0.33405354  0.49986143  1
  Na  Na19  1  0.49930184  0.33291705  0.75016287  1
  Na  Na20  1  0.50052355  0.66649603  -0.00026057  1
  Na  Na21  1  0.49597528  0.66466225  0.24952212  1
  Na  Na22  1  0.49961439  0.66667259  0.50032404  1
  Na  Na23  1  0.50151785  0.66611896  0.75042622  1
  Na  Na24  1  0.24847070  -0.00023483  0.12496478  1
  Na  Na25  1  0.25030523  0.00035811  0.37488765  1
  Na  Na26  1  0.24889316  -0.00038201  0.62511277  1
  Na  Na27  1  0.24769258  -0.00038526  0.87501839  1
  Na  Na28  1  0.25162162  0.33353832  0.12501427  1
  Na  Na29  1  0.25079956  0.33365892  0.37511982  1
  Na  Na30  1  0.24977499  0.33381855  0.62520930  1
  Na  Na31  1  0.24852576  0.33260833  0.87490113  1
  Na  Na32  1  0.25000786  0.66633159  0.12564844  1
  Na  Na33  1  0.25118538  0.66632714  0.37404901  1
  Na  Na34  1  0.24870108  0.66529704  0.62455248  1
  Na  Na35  1  0.24861450  0.66606075  0.87524577  1
  Na  Na36  1  0.75170135  0.00100299  0.12483517  1
  Na  Na37  1  0.75127398  0.00064523  0.37506989  1
  Na  Na38  1  0.74938250  0.00028496  0.62543268  1
  Na  Na39  1  0.74836164  -0.00039227  0.87503760  1
  Na  Na40  1  0.74908350  0.33338444  0.12625538  1
  Na  Na41  1  0.74731353  0.33254573  0.37441493  1
  Na  Na42  1  0.75071242  0.33453223  0.62433868  1
  Na  Na43  1  0.75094416  0.33418525  0.87518907  1
  Na  Na44  1  0.75000130  0.66563684  0.12511551  1
  Na  Na45  1  0.75162838  0.66713647  0.37597957  1
  Na  Na46  1  0.74853712  0.66543877  0.62386604  1
  Na  Na47  1  0.75084756  0.66657774  0.87495239  1
  Na  Na48  1  0.00003965  0.16667556  0.00069380  1
  Na  Na49  1  0.00112512  0.16655098  0.24884131  1
  Na  Na50  1  0.00017667  0.16691241  0.49857214  1
  Na  Na51  1  -0.00118399  0.16767887  0.75155271  1
  Na  Na52  1  0.00010465  0.49962566  -0.00012133  1
  Na  Na53  1  -0.00015177  0.50031654  0.24901561  1
  Na  Na54  1  0.00228268  0.49920199  0.50075874  1
  Na  Na55  1  0.00080464  0.49949471  0.75040417  1
  Na  Na56  1  -0.00051645  0.83358963  -0.00060978  1
  Na  Na57  1  0.00141156  0.83257018  0.24905701  1
  Na  Na58  1  0.00030937  0.83374509  0.50067572  1
  Na  Na59  1  -0.00003978  0.83369930  0.75094879  1
  Na  Na60  1  0.50145262  0.16717838  0.00042784  1
  Na  Na61  1  0.49984976  0.16747725  0.24964926  1
  Na  Na62  1  0.50003567  0.16701358  0.50014895  1
  Na  Na63  1  0.50173128  0.16604782  0.75061296  1
  Na  Na64  1  0.50048919  0.49993862  -0.00081585  1
  Na  Na65  1  0.49903618  0.49925701  0.24971029  1
  Na  Na66  1  0.49844304  0.50033815  0.50028621  1
  Na  Na67  1  0.50174828  0.49954767  0.75023601  1
  Na  Na68  1  0.49896848  0.83398099  -0.00016290  1
  Na  Na69  1  0.49780971  0.83338546  0.25003180  1
  Na  Na70  1  0.49910522  0.83340194  0.49961397  1
  Na  Na71  1  0.50167681  0.83270148  0.75021415  1
  Na  Na72  1  0.24879052  0.16824894  0.12434469  1
  Na  Na73  1  0.25022645  0.16711956  0.37501562  1
  Na  Na74  1  0.24912231  0.16731895  0.62411591  1
  Na  Na75  1  0.25027354  0.16632365  0.87595494  1
  Na  Na76  1  0.25061471  0.49952623  0.12563726  1
  Na  Na77  1  0.25164191  0.49951145  0.37479631  1
  Na  Na78  1  0.24820407  0.50022768  0.62517070  1
  Na  Na79  1  0.24717363  0.50058531  0.87392716  1
  Na  Na80  1  0.25076214  0.83265564  0.12563556  1
  Na  Na81  1  0.24939856  0.83362012  0.37427203  1
  Na  Na82  1  0.25051771  0.83311210  0.62538168  1
  Na  Na83  1  0.24797834  0.83445265  0.87534519  1
  Na  Na84  1  0.74915581  0.16713029  0.12479525  1
  Na  Na85  1  0.75043538  0.16647419  0.37541486  1
  Na  Na86  1  0.74905243  0.16705206  0.62561218  1
  Na  Na87  1  0.74974343  0.16684375  0.87456879  1
  Na  Na88  1  0.74926591  0.49989193  0.12582673  1
  Na  Na89  1  0.74965956  0.49950686  0.37535075  1
  Na  Na90  1  0.74950984  0.50032406  0.62335913  1
  Na  Na91  1  0.74991953  0.49988286  0.87608753  1
  Na  Na92  1  0.75255210  0.83251074  0.12542439  1
  Na  Na93  1  0.74968727  0.83413860  0.37473172  1
  Na  Na94  1  0.74960032  0.83327132  0.62479954  1
  Na  Na95  1  0.75001981  0.83342001  0.87456625  1
  Mn  Mn96  1  0.85819534  0.41649840  0.50149194  1
  Mn  Mn97  1  0.35746361  0.74955478  0.50277682  1
  Mn  Mn98  1  0.60719443  0.74983218  0.12310825  1
  Mn  Mn99  1  0.64189058  0.24999212  0.49791603  1
  Mn  Mn100  1  0.10796864  0.75034205  0.62254668  1
  Mn  Mn101  1  0.35783480  0.08353281  0.50276721  1
  Mn  Mn102  1  0.35787741  0.08324247  0.75206209  1
  Mn  Mn103  1  0.89179529  0.91619652  0.87737255  1
  Mn  Mn104  1  0.85715623  0.08355190  0.75184406  1
  Mn  Mn105  1  0.60891620  0.75054591  0.87313152  1
  Mn  Mn106  1  0.64157045  0.58346889  0.49719194  1
  Mn  Mn107  1  0.35718376  0.74988124  0.00197638  1
  Mn  Mn108  1  0.89161398  0.25057364  0.87825181  1
  Mn  Mn109  1  0.85915737  0.74992870  0.25270892  1
  Mn  Mn110  1  0.35781753  0.08368641  0.25123933  1
  Mn  Mn111  1  0.89235789  0.58355850  0.12727848  1
  Mn  Mn112  1  0.14195071  0.25072422  0.49751577  1
  Mn  Mn113  1  0.85868902  0.75011944  0.50225942  1
  Mn  Mn114  1  0.10818015  0.41644160  0.12203945  1
  Mn  Mn115  1  0.35778933  0.08308994  0.00239347  1
  Mn  Mn116  1  0.60778555  0.08393646  0.37219426  1
  Mn  Mn117  1  0.10745891  0.08389288  0.87307707  1
  Mn  Mn118  1  0.39220317  0.58269479  0.87708231  1
  Mn  Mn119  1  0.89246112  0.25135293  0.37629471  1
  Mn  Mn120  1  0.35717592  0.41666206  0.75209809  1
  Mn  Mn121  1  0.10791608  0.08360084  0.37194610  1
  Mn  Mn122  1  0.89302097  0.58288228  0.62747630  1
  Mn  Mn123  1  0.64151522  0.58350635  0.24818438  1
  Mn  Mn124  1  0.39238250  0.91737128  0.87705734  1
  Mn  Mn125  1  0.64239348  0.91682638  0.24707730  1
  Mn  Mn126  1  0.39185368  0.91698176  0.37751817  1
  Mn  Mn127  1  0.64212278  0.91668712  0.49814909  1
  Mn  Mn128  1  0.64270405  0.91640226  0.99884038  1
  Mn  Mn129  1  0.35773888  0.75013588  0.75225676  1
  Mn  Mn130  1  0.64243453  0.25101337  0.74734726  1
  Mn  Mn131  1  0.14168522  0.24968091  0.74759661  1
  Mn  Mn132  1  0.39246649  0.24970556  0.62776617  1
  Mn  Mn133  1  0.14328497  0.58251648  0.24788406  1
  Mn  Mn134  1  0.35731549  0.41691389  0.00143191  1
  Mn  Mn135  1  0.14213896  0.91732806  0.24697054  1
  Mn  Mn136  1  0.85714211  0.74921305  0.75150415  1
  Mn  Mn137  1  0.10726283  0.74933520  0.87281597  1
  Mn  Mn138  1  0.14204880  0.91575401  0.49804022  1
  Mn  Mn139  1  0.85844648  0.08353541  0.50285676  1
  Mn  Mn140  1  0.89275238  0.91553748  0.37729578  1
  Mn  Mn141  1  0.85711060  0.41628590  0.25263878  1
  Mn  Mn142  1  0.60702619  0.74918745  0.37198939  1
  Mn  Mn143  1  0.60880539  0.41621807  0.87267738  1
  Fe  Fe144  1  0.85683561  0.41648321  0.00220001  1
  Fe  Fe145  1  0.39268671  0.25030499  0.37626986  1
  Fe  Fe146  1  0.89279969  0.24987846  0.62631845  1
  Fe  Fe147  1  0.10794907  0.75066695  0.12257917  1
  Fe  Fe148  1  0.89286551  0.91736447  0.62703294  1
  Fe  Fe149  1  0.39303886  0.24966426  0.87680550  1
  Fe  Fe150  1  0.10839388  0.41697679  0.37298496  1
  Fe  Fe151  1  0.14346700  0.25028564  0.24788909  1
  Fe  Fe152  1  0.35707830  0.41687575  0.50220999  1
  Fe  Fe153  1  0.64241740  0.91585522  0.74727039  1
  Fe  Fe154  1  0.89249162  0.24936677  0.12686146  1
  Fe  Fe155  1  0.14273590  0.25042366  0.99854835  1
  Fe  Fe156  1  0.14222351  0.91674259  0.74749882  1
  Fe  Fe157  1  0.85713225  0.08404124  0.25080536  1
  Fe  Fe158  1  0.60693353  0.74980875  0.62310966  1
  Fe  Fe159  1  0.10657984  0.08312983  0.12307042  1
  Fe  Fe160  1  0.10699732  0.41540252  0.62325662  1
  Fe  Fe161  1  0.10632107  0.41682290  0.87374058  1
  Fe  Fe162  1  0.60660717  0.41671746  0.12354238  1
  Fe  Fe163  1  0.39189533  0.91705627  0.12609494  1
  Fe  Fe164  1  0.39222132  0.58312148  0.12568736  1
  Fe  Fe165  1  0.60788262  0.08360793  0.87376560  1
  Fe  Fe166  1  0.10672139  0.08407910  0.62379670  1
  Fe  Fe167  1  0.60767265  0.08344221  0.12356123  1
  Fe  Fe168  1  0.10793327  0.74927139  0.37317309  1
  Fe  Fe169  1  0.14192825  0.58365522  0.74819139  1
  Fe  Fe170  1  0.85669197  0.08368174  0.00230813  1
  Fe  Fe171  1  0.89320762  0.91711269  0.12610195  1
  Fe  Fe172  1  0.64292586  0.58315041  0.99890895  1
  Fe  Fe173  1  0.14229123  0.58297394  0.99826998  1
  Fe  Fe174  1  0.60576690  0.41681792  0.37358937  1
  Fe  Fe175  1  0.39307953  0.91634552  0.62730741  1
  Fe  Fe176  1  0.85763146  0.74964652  0.00207759  1
  Fe  Fe177  1  0.89222909  0.58297647  0.87677762  1
  Fe  Fe178  1  0.35808904  0.41648063  0.25180416  1
  Fe  Fe179  1  0.64294178  0.25042703  0.99895956  1
  Fe  Fe180  1  0.14207904  0.91668689  0.99885811  1
  Fe  Fe181  1  0.64179408  0.24959778  0.24800535  1
  Fe  Fe182  1  0.39316735  0.24997900  0.12666179  1
  Fe  Fe183  1  0.39218037  0.58251089  0.37742416  1
  Fe  Fe184  1  0.60723408  0.08309858  0.62318148  1
  Fe  Fe185  1  0.64314683  0.58342763  0.74815925  1
  Fe  Fe186  1  0.89411351  0.58310819  0.37621983  1
  Fe  Fe187  1  0.85758513  0.41735274  0.75120160  1
  Fe  Fe188  1  0.35689462  0.74974984  0.25131441  1
  Fe  Fe189  1  0.39287547  0.58364850  0.62715251  1
  Fe  Fe190  1  0.14331170  0.58290940  0.49772205  1
  Fe  Fe191  1  0.60735263  0.41699835  0.62326127  1
  P  P192  1  0.05408610  0.24931075  0.11053349  1
  P  P193  1  0.05445270  0.25142940  0.35846631  1
  P  P194  1  0.05206682  0.24990361  0.61030818  1
  P  P195  1  0.05418490  0.25102086  0.86188982  1
  P  P196  1  0.05447559  0.58370895  0.10933483  1
  P  P197  1  0.05455252  0.58287024  0.36092787  1
  P  P198  1  0.05588000  0.58204079  0.61079218  1
  P  P199  1  0.05362021  0.58228295  0.86091415  1
  P  P200  1  0.05284963  0.91717095  0.10944667  1
  P  P201  1  0.05374792  0.91567700  0.35958334  1
  P  P202  1  0.05312983  0.91813524  0.61138455  1
  P  P203  1  0.05488905  0.91665465  0.86074259  1
  P  P204  1  0.55430623  0.25029031  0.11092819  1
  P  P205  1  0.55255132  0.25113970  0.35951388  1
  P  P206  1  0.55348820  0.25038800  0.61023182  1
  P  P207  1  0.55422807  0.24953926  0.86146361  1
  P  P208  1  0.55234867  0.58233483  0.10966345  1
  P  P209  1  0.55108129  0.58223813  0.35997743  1
  P  P210  1  0.55372598  0.58324550  0.61128135  1
  P  P211  1  0.55584257  0.58320320  0.86054254  1
  P  P212  1  0.55171701  0.91704310  0.11019334  1
  P  P213  1  0.55319738  0.91660881  0.35965610  1
  P  P214  1  0.55343312  0.91606443  0.61121830  1
  P  P215  1  0.55479695  0.91751424  0.85973955  1
  P  P216  1  0.44795069  0.08364549  0.13937559  1
  P  P217  1  0.44641187  0.08466381  0.38989405  1
  P  P218  1  0.44808125  0.08250595  0.64030709  1
  P  P219  1  0.44805344  0.08420340  0.89004284  1
  P  P220  1  0.44658728  0.41653005  0.13959430  1
  P  P221  1  0.44505854  0.41617247  0.38925135  1
  P  P222  1  0.44661718  0.41776649  0.63905892  1
  P  P223  1  0.44693927  0.41565371  0.88979972  1
  P  P224  1  0.44526462  0.74985670  0.13989060  1
  P  P225  1  0.44471829  0.74887015  0.38893554  1
  P  P226  1  0.44751070  0.74958061  0.64013206  1
  P  P227  1  0.44704358  0.74987410  0.89000291  1
  P  P228  1  0.94545222  0.08370253  0.13868580  1
  P  P229  1  0.94547685  0.08397994  0.38816625  1
  P  P230  1  0.94773271  0.08390918  0.64027809  1
  P  P231  1  0.94526869  0.08344589  0.89109591  1
  P  P232  1  0.94512073  0.41566107  0.13861828  1
  P  P233  1  0.94864130  0.41764869  0.38939257  1
  P  P234  1  0.94736856  0.41574610  0.64047351  1
  P  P235  1  0.94524041  0.41787203  0.88973628  1
  P  P236  1  0.94713642  0.75063233  0.13841827  1
  P  P237  1  0.94898962  0.74847294  0.39015133  1
  P  P238  1  0.94717117  0.75060416  0.64042102  1
  P  P239  1  0.94535364  0.74865152  0.89031792  1
  P  P240  1  0.19598739  0.08468805  0.23386130  1
  P  P241  1  0.19525965  0.08341557  0.48591343  1
  P  P242  1  0.19579270  0.08315414  0.73428660  1
  P  P243  1  0.19497762  0.08349303  0.98665359  1
  P  P244  1  0.19734878  0.41579610  0.23602539  1
  P  P245  1  0.19608264  0.41736518  0.48552616  1
  P  P246  1  0.19413215  0.41709971  0.73560532  1
  P  P247  1  0.19572655  0.41655280  0.98440174  1
  P  P248  1  0.19596876  0.74961944  0.23540593  1
  P  P249  1  0.19627086  0.74872752  0.48414768  1
  P  P250  1  0.19615121  0.74995766  0.73509070  1
  P  P251  1  0.19496265  0.74998334  0.98636332  1
  P  P252  1  0.69704545  0.08407231  0.23427312  1
  P  P253  1  0.69567474  0.08330079  0.48591649  1
  P  P254  1  0.69442809  0.08280106  0.73570275  1
  P  P255  1  0.69587189  0.08431807  0.98610134  1
  P  P256  1  0.69376249  0.41614482  0.23598847  1
  P  P257  1  0.69450152  0.41669971  0.48487448  1
  P  P258  1  0.69769359  0.41790860  0.73419868  1
  P  P259  1  0.69625958  0.41638971  0.98713391  1
  P  P260  1  0.69734920  0.74966589  0.23479076  1
  P  P261  1  0.69554214  0.75020677  0.48552164  1
  P  P262  1  0.69590898  0.74943766  0.73414540  1
  P  P263  1  0.69827503  0.74936018  0.98570658  1
  P  P264  1  0.30407717  0.25012598  0.01432832  1
  P  P265  1  0.30459056  0.25061554  0.26411559  1
  P  P266  1  0.30451747  0.25127623  0.51390631  1
  P  P267  1  0.30377174  0.24977270  0.76597438  1
  P  P268  1  0.30200321  0.58290436  0.01521361  1
  P  P269  1  0.30601610  0.58290499  0.26393926  1
  P  P270  1  0.30415684  0.58208481  0.51466158  1
  P  P271  1  0.30283516  0.58333373  0.76388304  1
  P  P272  1  0.30215603  0.91688656  0.01545752  1
  P  P273  1  0.30449113  0.91643582  0.26357289  1
  P  P274  1  0.30386645  0.91657233  0.51616814  1
  P  P275  1  0.30299037  0.91686733  0.76419996  1
  P  P276  1  0.80270820  0.25023631  0.01583194  1
  P  P277  1  0.80276913  0.24923048  0.26370635  1
  P  P278  1  0.80397358  0.25036186  0.51564042  1
  P  P279  1  0.80471250  0.25129836  0.76369331  1
  P  P280  1  0.80354888  0.58291838  0.01409650  1
  P  P281  1  0.80399755  0.58305411  0.26630140  1
  P  P282  1  0.80502741  0.58305231  0.51367851  1
  P  P283  1  0.80296351  0.58222863  0.76517693  1
  P  P284  1  0.80419673  0.91671057  0.01545531  1
  P  P285  1  0.80514335  0.91788722  0.26362612  1
  P  P286  1  0.80434914  0.91673589  0.51611233  1
  P  P287  1  0.80302870  0.91673074  0.76367989  1
  O  O288  1  0.05916158  0.25045433  0.18713623  1
  O  O289  1  0.05710067  0.25077346  0.43532216  1
  O  O290  1  0.05517218  0.25008265  0.68701408  1
  O  O291  1  0.05851992  0.25023366  0.93857506  1
  O  O292  1  0.05791917  0.58281152  0.18611084  1
  O  O293  1  0.05872861  0.58259568  0.43762188  1
  O  O294  1  0.05926452  0.58322498  0.68763357  1
  O  O295  1  0.05829282  0.58302730  0.93757192  1
  O  O296  1  0.05626622  0.91707632  0.18617044  1
  O  O297  1  0.05657853  0.91654480  0.43638277  1
  O  O298  1  0.05779583  0.91706627  0.68809485  1
  O  O299  1  0.05902624  0.91672235  0.93748712  1
  O  O300  1  0.55846730  0.24996741  0.18763216  1
  O  O301  1  0.55611088  0.25027524  0.43619600  1
  O  O302  1  0.55632176  0.25062124  0.68704720  1
  O  O303  1  0.55900041  0.25052791  0.93813289  1
  O  O304  1  0.55556443  0.58296170  0.18634257  1
  O  O305  1  0.55502888  0.58314660  0.43665756  1
  O  O306  1  0.55856927  0.58289039  0.68793072  1
  O  O307  1  0.56040674  0.58318165  0.93731847  1
  O  O308  1  0.55545931  0.91650270  0.18685074  1
  O  O309  1  0.55648865  0.91648131  0.43643866  1
  O  O310  1  0.55810591  0.91600106  0.68791900  1
  O  O311  1  0.55781133  0.91647680  0.93653362  1
  O  O312  1  0.44439948  0.08366744  0.06270960  1
  O  O313  1  0.44329198  0.08407497  0.31314888  1
  O  O314  1  0.44406645  0.08300579  0.56363628  1
  O  O315  1  0.44426986  0.08349927  0.81340005  1
  O  O316  1  0.44318896  0.41653158  0.06292041  1
  O  O317  1  0.44116329  0.41614801  0.31248445  1
  O  O318  1  0.44178730  0.41733519  0.56240775  1
  O  O319  1  0.44350559  0.41652433  0.81306434  1
  O  O320  1  0.44289113  0.74997582  0.06305038  1
  O  O321  1  0.44053806  0.74949251  0.31220802  1
  O  O322  1  0.44374450  0.74967908  0.56342047  1
  O  O323  1  0.44383253  0.74957276  0.81324713  1
  O  O324  1  0.94076690  0.08412789  0.06201277  1
  O  O325  1  0.94117924  0.08424466  0.31142701  1
  O  O326  1  0.94488209  0.08362165  0.56350469  1
  O  O327  1  0.94193927  0.08354258  0.81433532  1
  O  O328  1  0.94058216  0.41612099  0.06188883  1
  O  O329  1  0.94433102  0.41696460  0.31271895  1
  O  O330  1  0.94383998  0.41669226  0.56377177  1
  O  O331  1  0.94089795  0.41731978  0.81306245  1
  O  O332  1  0.94177813  0.74965188  0.06179996  1
  O  O333  1  0.94552192  0.74910224  0.31337978  1
  O  O334  1  0.94450926  0.74994605  0.56364001  1
  O  O335  1  0.94227348  0.74930150  0.81355785  1
  O  O336  1  0.19087149  0.08366009  0.06335646  1
  O  O337  1  0.19345990  0.08372798  0.31069826  1
  O  O338  1  0.19054946  0.08372329  0.56261044  1
  O  O339  1  0.19280757  0.08398153  0.81110832  1
  O  O340  1  0.19387513  0.41636493  0.06129491  1
  O  O341  1  0.19265197  0.41657365  0.31265835  1
  O  O342  1  0.19114060  0.41607285  0.56217685  1
  O  O343  1  0.18991740  0.41638485  0.81231934  1
  O  O344  1  0.19169002  0.75012266  0.06320567  1
  O  O345  1  0.19132716  0.74965047  0.31209071  1
  O  O346  1  0.19328345  0.74970118  0.56094620  1
  O  O347  1  0.19322501  0.74992315  0.81189029  1
  O  O348  1  0.69093092  0.08343069  0.06279340  1
  O  O349  1  0.69367519  0.08351490  0.31103594  1
  O  O350  1  0.69066717  0.08335722  0.56266936  1
  O  O351  1  0.69099125  0.08357035  0.81254246  1
  O  O352  1  0.69130850  0.41655368  0.06374944  1
  O  O353  1  0.68934708  0.41686524  0.31271835  1
  O  O354  1  0.69012485  0.41710079  0.56164331  1
  O  O355  1  0.69436471  0.41673752  0.81098259  1
  O  O356  1  0.69415433  0.74975450  0.06234768  1
  O  O357  1  0.69353776  0.74971123  0.31155503  1
  O  O358  1  0.69056075  0.74974534  0.56224614  1
  O  O359  1  0.69392597  0.74987189  0.81097875  1
  O  O360  1  0.30953282  0.25006409  0.18736673  1
  O  O361  1  0.30861281  0.25043659  0.43718521  1
  O  O362  1  0.30714030  0.24990873  0.68913569  1
  O  O363  1  0.30912468  0.24971550  0.93769638  1
  O  O364  1  0.30960113  0.58258879  0.18714352  1
  O  O365  1  0.30877389  0.58266784  0.43791581  1
  O  O366  1  0.30831138  0.58318553  0.68725510  1
  O  O367  1  0.30577374  0.58285681  0.93848206  1
  O  O368  1  0.30875365  0.91729099  0.18681679  1
  O  O369  1  0.30691480  0.91681750  0.43932118  1
  O  O370  1  0.30900433  0.91678485  0.68760489  1
  O  O371  1  0.30606207  0.91735072  0.93873384  1
  O  O372  1  0.80790672  0.25001801  0.18711192  1
  O  O373  1  0.80707682  0.25050997  0.43881770  1
  O  O374  1  0.80890380  0.25045693  0.68700287  1
  O  O375  1  0.80591609  0.25030048  0.93902285  1
  O  O376  1  0.80730147  0.58290240  0.18947683  1
  O  O377  1  0.81021596  0.58294808  0.43704272  1
  O  O378  1  0.80669351  0.58270066  0.68844678  1
  O  O379  1  0.80790208  0.58290839  0.93744647  1
  O  O380  1  0.80967459  0.91681320  0.18690216  1
  O  O381  1  0.80763386  0.91662830  0.43926170  1
  O  O382  1  0.80858743  0.91718428  0.68707396  1
  O  O383  1  0.80614579  0.91674368  0.93859496  1
  O  O384  1  0.23355084  0.25078245  0.03757728  1
  O  O385  1  0.23422936  0.25010081  0.28773743  1
  O  O386  1  0.23451671  0.25109254  0.53829715  1
  O  O387  1  0.23389619  0.24949020  0.79034836  1
  O  O388  1  0.23198495  0.58273786  0.03976275  1
  O  O389  1  0.23596598  0.58276561  0.28829606  1
  O  O390  1  0.23373887  0.58244863  0.53804530  1
  O  O391  1  0.23233757  0.58332076  0.78705928  1
  O  O392  1  0.23202463  0.91644120  0.03974886  1
  O  O393  1  0.23446827  0.91707529  0.28780375  1
  O  O394  1  0.23399891  0.91614243  0.54068909  1
  O  O395  1  0.23246726  0.91712504  0.78713311  1
  O  O396  1  0.73261364  0.25040043  0.04038585  1
  O  O397  1  0.73240087  0.24952878  0.28739160  1
  O  O398  1  0.73422602  0.25063391  0.54048374  1
  O  O399  1  0.73473782  0.25079095  0.78816182  1
  O  O400  1  0.73330608  0.58272105  0.03848598  1
  O  O401  1  0.73415304  0.58324497  0.29092410  1
  O  O402  1  0.73475048  0.58294269  0.53693622  1
  O  O403  1  0.73291519  0.58310810  0.78968858  1
  O  O404  1  0.73462660  0.91667170  0.04123932  1
  O  O405  1  0.73516401  0.91748905  0.28794764  1
  O  O406  1  0.73454759  0.91673050  0.54072275  1
  O  O407  1  0.73259140  0.91625536  0.78693846  1
  O  O408  1  0.26561932  0.08412305  0.20857471  1
  O  O409  1  0.26530669  0.08351920  0.46188125  1
  O  O410  1  0.26551152  0.08369941  0.70919228  1
  O  O411  1  0.26491207  0.08319987  0.96201177  1
  O  O412  1  0.26768965  0.41652022  0.21230329  1
  O  O413  1  0.26646200  0.41715932  0.46198453  1
  O  O414  1  0.26425497  0.41663320  0.71154059  1
  O  O415  1  0.26516188  0.41661920  0.95843721  1
  O  O416  1  0.26638887  0.74927157  0.21200013  1
  O  O417  1  0.26595412  0.74966291  0.45913285  1
  O  O418  1  0.26568447  0.74943048  0.70947929  1
  O  O419  1  0.26466227  0.75007528  0.96106277  1
  O  O420  1  0.76704603  0.08406324  0.20960712  1
  O  O421  1  0.76578039  0.08344566  0.46228337  1
  O  O422  1  0.76442723  0.08365781  0.71128595  1
  O  O423  1  0.76634775  0.08350344  0.96261533  1
  O  O424  1  0.76397958  0.41679896  0.21230135  1
  O  O425  1  0.76466055  0.41622444  0.46108018  1
  O  O426  1  0.76766361  0.41761279  0.70939841  1
  O  O427  1  0.76660138  0.41636470  0.96322779  1
  O  O428  1  0.76720152  0.74911359  0.21031427  1
  O  O429  1  0.76573063  0.75043006  0.46194339  1
  O  O430  1  0.76543567  0.74915972  0.70834681  1
  O  O431  1  0.76829613  0.75001248  0.96102773  1
  O  O432  1  0.01592101  0.08352826  0.16225529  1
  O  O433  1  0.01552848  0.08392579  0.41219738  1
  O  O434  1  0.01738392  0.08420151  0.66605194  1
  O  O435  1  0.01515101  0.08349591  0.91548145  1
  O  O436  1  0.01536581  0.41658360  0.16223080  1
  O  O437  1  0.01866118  0.41674178  0.41386261  1
  O  O438  1  0.01743931  0.41630909  0.66501384  1
  O  O439  1  0.01557037  0.41695491  0.91356857  1
  O  O440  1  0.01764220  0.75040867  0.16172933  1
  O  O441  1  0.01883676  0.74918076  0.41520780  1
  O  O442  1  0.01672559  0.75001350  0.66594144  1
  O  O443  1  0.01519065  0.74955041  0.91497612  1
  O  O444  1  0.51795244  0.08400662  0.16427340  1
  O  O445  1  0.51607586  0.08400759  0.41505248  1
  O  O446  1  0.51820068  0.08295701  0.66458587  1
  O  O447  1  0.51808431  0.08381135  0.91465761  1
  O  O448  1  0.51669809  0.41623424  0.16417387  1
  O  O449  1  0.51533092  0.41672865  0.41339809  1
  O  O450  1  0.51694574  0.41692565  0.66297239  1
  O  O451  1  0.51665926  0.41633906  0.91470467  1
  O  O452  1  0.51484258  0.74929780  0.16562376  1
  O  O453  1  0.51460794  0.74963946  0.41345599  1
  O  O454  1  0.51753198  0.74927324  0.66474358  1
  O  O455  1  0.51674578  0.75031000  0.91505242  1
  O  O456  1  0.48385073  0.25034717  0.08716821  1
  O  O457  1  0.48251329  0.25079511  0.33493680  1
  O  O458  1  0.48389267  0.25042067  0.58484334  1
  O  O459  1  0.48407419  0.24955447  0.83728197  1
  O  O460  1  0.48220520  0.58299120  0.08495916  1
  O  O461  1  0.48101866  0.58166935  0.33566588  1
  O  O462  1  0.48343055  0.58363011  0.58727915  1
  O  O463  1  0.48566153  0.58274363  0.83686921  1
  O  O464  1  0.48173012  0.91703969  0.08527505  1
  O  O465  1  0.48339928  0.91689015  0.33498943  1
  O  O466  1  0.48315833  0.91632898  0.58715065  1
  O  O467  1  0.48501614  0.91674149  0.83474475  1
  O  O468  1  0.98357866  0.24951261  0.08718135  1
  O  O469  1  0.98478640  0.25083397  0.33324034  1
  O  O470  1  0.98235057  0.25020343  0.58473028  1
  O  O471  1  0.98408655  0.25086443  0.83798745  1
  O  O472  1  0.98458731  0.58293986  0.08488091  1
  O  O473  1  0.98460107  0.58306794  0.33595676  1
  O  O474  1  0.98585675  0.58255070  0.58658804  1
  O  O475  1  0.98328946  0.58273895  0.83712127  1
  O  O476  1  0.98275258  0.91721863  0.08487640  1
  O  O477  1  0.98418957  0.91588788  0.33412033  1
  O  O478  1  0.98295500  0.91742386  0.58719521  1
  O  O479  1  0.98466731  0.91676524  0.83706451  1
  O  O480  1  0.08754396  0.31415314  0.07670108  1
  O  O481  1  0.08861319  0.31667718  0.32646097  1
  O  O482  1  0.08637624  0.31496967  0.57782259  1
  O  O483  1  0.08745817  0.31618911  0.82894389  1
  O  O484  1  0.08818212  0.64892868  0.07699975  1
  O  O485  1  0.08830726  0.64797751  0.32812435  1
  O  O486  1  0.09003117  0.64660937  0.57735284  1
  O  O487  1  0.08730204  0.64710550  0.82728827  1
  O  O488  1  0.08670265  0.98229655  0.07689110  1
  O  O489  1  0.08785862  0.98070486  0.32693749  1
  O  O490  1  0.08615086  0.98345634  0.57849111  1
  O  O491  1  0.08851800  0.98159011  0.82761692  1
  O  O492  1  0.58760443  0.31550917  0.07777115  1
  O  O493  1  0.58628662  0.31631606  0.32708212  1
  O  O494  1  0.58752233  0.31551750  0.57794327  1
  O  O495  1  0.58761032  0.31446408  0.82773970  1
  O  O496  1  0.58683278  0.64705834  0.07682778  1
  O  O497  1  0.58442231  0.64729749  0.32667216  1
  O  O498  1  0.58718891  0.64833809  0.57805590  1
  O  O499  1  0.58920135  0.64830285  0.82742261  1
  O  O500  1  0.58587884  0.98208072  0.07791051  1
  O  O501  1  0.58725990  0.98174521  0.32733833  1
  O  O502  1  0.58694305  0.98118745  0.57818752  1
  O  O503  1  0.58854895  0.98294743  0.82785092  1
  O  O504  1  0.41405729  0.01859410  0.17196099  1
  O  O505  1  0.41199329  0.01985931  0.42253688  1
  O  O506  1  0.41452168  0.01743728  0.67317906  1
  O  O507  1  0.41408585  0.01917897  0.92285495  1
  O  O508  1  0.41263107  0.35153169  0.17248539  1
  O  O509  1  0.41191054  0.35092112  0.42235311  1
  O  O510  1  0.41283665  0.35291484  0.67230897  1
  O  O511  1  0.41327632  0.35034462  0.92207902  1
  O  O512  1  0.41058695  0.68476485  0.17167996  1
  O  O513  1  0.41164173  0.68335101  0.42176883  1
  O  O514  1  0.41355390  0.68446955  0.67271042  1
  O  O515  1  0.41314812  0.68469930  0.92240986  1
  O  O516  1  0.91212488  0.01858312  0.17174882  1
  O  O517  1  0.91211402  0.01887091  0.42130447  1
  O  O518  1  0.91358080  0.01890522  0.67289538  1
  O  O519  1  0.91118242  0.01843109  0.92348176  1
  O  O520  1  0.91224416  0.35025717  0.17174145  1
  O  O521  1  0.91440990  0.35276522  0.42216986  1
  O  O522  1  0.91360988  0.35059020  0.67293613  1
  O  O523  1  0.91125468  0.35320771  0.92332396  1
  O  O524  1  0.91418525  0.68564677  0.17234768  1
  O  O525  1  0.91529111  0.68329020  0.42256265  1
  O  O526  1  0.91284799  0.68544167  0.67256527  1
  O  O527  1  0.91182743  0.68326452  0.92271294  1
  O  O528  1  0.16113316  0.02001169  0.20132637  1
  O  O529  1  0.16195278  0.01821410  0.45285170  1
  O  O530  1  0.16162076  0.01802382  0.70219925  1
  O  O531  1  0.16131719  0.01835701  0.95387881  1
  O  O532  1  0.16434174  0.35064129  0.20263818  1
  O  O533  1  0.16250599  0.35273081  0.45154884  1
  O  O534  1  0.16051429  0.35212689  0.70207750  1
  O  O535  1  0.16112378  0.35152604  0.95247070  1
  O  O536  1  0.16242574  0.68473431  0.20215133  1
  O  O537  1  0.16281113  0.68311584  0.45204123  1
  O  O538  1  0.16164061  0.68504809  0.70295388  1
  O  O539  1  0.16129216  0.68461372  0.95385388  1
  O  O540  1  0.66309866  0.01918623  0.20117215  1
  O  O541  1  0.66242134  0.01826803  0.45262860  1
  O  O542  1  0.66113743  0.01744763  0.70296878  1
  O  O543  1  0.66204417  0.01961929  0.95260242  1
  O  O544  1  0.66061465  0.35085361  0.20295804  1
  O  O545  1  0.66061018  0.35180652  0.45195080  1
  O  O546  1  0.66335666  0.35314827  0.70127157  1
  O  O547  1  0.66329482  0.35116096  0.95361586  1
  O  O548  1  0.66306070  0.68467735  0.20243150  1
  O  O549  1  0.66225568  0.68510649  0.45209311  1
  O  O550  1  0.66151196  0.68421817  0.70227882  1
  O  O551  1  0.66468812  0.68424601  0.95300173  1
  O  O552  1  0.33766935  0.31504457  0.04755931  1
  O  O553  1  0.33782031  0.31576758  0.29731582  1
  O  O554  1  0.33788034  0.31659106  0.54666958  1
  O  O555  1  0.33775849  0.31483909  0.79852207  1
  O  O556  1  0.33602796  0.64781422  0.04792871  1
  O  O557  1  0.33935975  0.64815535  0.29679370  1
  O  O558  1  0.33759253  0.64700928  0.54826521  1
  O  O559  1  0.33595454  0.64825341  0.79751596  1
  O  O560  1  0.33594014  0.98182432  0.04857337  1
  O  O561  1  0.33811166  0.98140250  0.29676878  1
  O  O562  1  0.33787793  0.98152072  0.54888844  1
  O  O563  1  0.33601532  0.98193228  0.79789854  1
  O  O564  1  0.83692310  0.31503379  0.04854522  1
  O  O565  1  0.83596143  0.31425235  0.29750417  1
  O  O566  1  0.83842785  0.31523791  0.54800885  1
  O  O567  1  0.83789024  0.31674214  0.79643481  1
  O  O568  1  0.83686929  0.64811600  0.04726642  1
  O  O569  1  0.83858736  0.64789974  0.29859901  1
  O  O570  1  0.83819108  0.64801566  0.54727431  1
  O  O571  1  0.83741695  0.64694292  0.79803466  1
  O  O572  1  0.83850482  0.98186825  0.04752058  1
  O  O573  1  0.83832569  0.98340037  0.29603329  1
  O  O574  1  0.83842909  0.98179191  0.54869288  1
  O  O575  1  0.83590629  0.98173899  0.79750840  1
  O  O576  1  0.41392946  0.14872534  0.17192151  1
  O  O577  1  0.41273503  0.15012352  0.42202982  1
  O  O578  1  0.41438802  0.14761357  0.67314274  1
  O  O579  1  0.41431892  0.14929816  0.92270294  1
  O  O580  1  0.41280492  0.48161588  0.17229677  1
  O  O581  1  0.41112680  0.48094692  0.42252605  1
  O  O582  1  0.41366913  0.48304718  0.67238110  1
  O  O583  1  0.41261386  0.48053945  0.92246343  1
  O  O584  1  0.41104140  0.81499211  0.17213299  1
  O  O585  1  0.41073571  0.81363751  0.42211748  1
  O  O586  1  0.41388440  0.81475833  0.67290781  1
  O  O587  1  0.41264579  0.81491282  0.92201960  1
  O  O588  1  0.91219328  0.14874637  0.17236939  1
  O  O589  1  0.91211420  0.14906200  0.42135602  1
  O  O590  1  0.91341857  0.14909410  0.67230007  1
  O  O591  1  0.91118958  0.14840869  0.92382814  1
  O  O592  1  0.91145682  0.48047564  0.17191484  1
  O  O593  1  0.91535278  0.48281104  0.42234805  1
  O  O594  1  0.91327575  0.48060158  0.67366565  1
  O  O595  1  0.91213085  0.48311283  0.92286883  1
  O  O596  1  0.91416455  0.81587161  0.17155171  1
  O  O597  1  0.91463727  0.81340479  0.42265130  1
  O  O598  1  0.91314011  0.81576582  0.67252864  1
  O  O599  1  0.91086929  0.81341455  0.92298674  1
  O  O600  1  0.08736008  0.18416430  0.07745318  1
  O  O601  1  0.08912115  0.18665594  0.32601985  1
  O  O602  1  0.08609055  0.18487055  0.57777814  1
  O  O603  1  0.08749450  0.18607995  0.82834388  1
  O  O604  1  0.08880542  0.51886675  0.07654405  1
  O  O605  1  0.08813212  0.51780076  0.32764637  1
  O  O606  1  0.08929811  0.51662223  0.57834938  1
  O  O607  1  0.08697655  0.51712745  0.82794669  1
  O  O608  1  0.08689375  0.85224651  0.07671410  1
  O  O609  1  0.08786706  0.85042322  0.32771834  1
  O  O610  1  0.08690757  0.85327478  0.57793854  1
  O  O611  1  0.08830186  0.85158991  0.82756008  1
  O  O612  1  0.58789927  0.18543447  0.07756001  1
  O  O613  1  0.58680076  0.18639887  0.32637498  1
  O  O614  1  0.58751062  0.18510003  0.57814745  1
  O  O615  1  0.58787319  0.18446821  0.82876799  1
  O  O616  1  0.58606072  0.51704260  0.07722239  1
  O  O617  1  0.58512036  0.51728619  0.32761292  1
  O  O618  1  0.58678049  0.51809760  0.57776455  1
  O  O619  1  0.58967890  0.51839725  0.82724921  1
  O  O620  1  0.58551868  0.85191168  0.07741018  1
  O  O621  1  0.58702583  0.85160659  0.32693261  1
  O  O622  1  0.58649020  0.85078886  0.57802733  1
  O  O623  1  0.58948815  0.85284602  0.82695789  1
  O  O624  1  0.33707233  0.18513753  0.04815954  1
  O  O625  1  0.33818317  0.18577120  0.29760676  1
  O  O626  1  0.33807647  0.18637990  0.54734901  1
  O  O627  1  0.33808416  0.18487222  0.79852666  1
  O  O628  1  0.33615802  0.51799128  0.04791594  1
  O  O629  1  0.33961557  0.51787537  0.29709475  1
  O  O630  1  0.33748375  0.51704896  0.54792325  1
  O  O631  1  0.33582476  0.51826652  0.79752346  1
  O  O632  1  0.33639331  0.85201655  0.04797620  1
  O  O633  1  0.33750800  0.85093521  0.29622382  1
  O  O634  1  0.33814711  0.85157389  0.54857584  1
  O  O635  1  0.33578934  0.85175568  0.79789846  1
  O  O636  1  0.83654678  0.18505895  0.04838560  1
  O  O637  1  0.83608589  0.18414427  0.29669487  1
  O  O638  1  0.83803185  0.18538829  0.54833030  1
  O  O639  1  0.83841905  0.18648235  0.79711764  1
  O  O640  1  0.83695141  0.51793406  0.04741562  1
  O  O641  1  0.83809403  0.51798892  0.29880933  1
  O  O642  1  0.83819496  0.51795386  0.54713122  1
  O  O643  1  0.83657279  0.51705499  0.79796836  1
  O  O644  1  0.83883197  0.85178508  0.04753191  1
  O  O645  1  0.83877341  0.85288270  0.29705502  1
  O  O646  1  0.83866291  0.85186257  0.54861045  1
  O  O647  1  0.83639000  0.85163961  0.79687074  1
  O  O648  1  0.16191443  0.14994227  0.20195566  1
  O  O649  1  0.16181349  0.14849555  0.45269275  1
  O  O650  1  0.16132345  0.14799224  0.70157555  1
  O  O651  1  0.16167482  0.14883425  0.95367359  1
  O  O652  1  0.16358898  0.48050384  0.20252240  1
  O  O653  1  0.16294937  0.48265053  0.45232393  1
  O  O654  1  0.16072446  0.48218706  0.70270059  1
  O  O655  1  0.16112935  0.48162887  0.95251505  1
  O  O656  1  0.16271830  0.81463342  0.20185480  1
  O  O657  1  0.16143709  0.81332255  0.45156294  1
  O  O658  1  0.16230370  0.81527774  0.70274490  1
  O  O659  1  0.16102167  0.81503244  0.95383897  1
  O  O660  1  0.66277842  0.14903090  0.20188860  1
  O  O661  1  0.66234033  0.14842426  0.45267075  1
  O  O662  1  0.66033126  0.14757635  0.70258287  1
  O  O663  1  0.66309873  0.14981343  0.95304382  1
  O  O664  1  0.65999926  0.48089805  0.20238744  1
  O  O665  1  0.66089975  0.48159474  0.45151272  1
  O  O666  1  0.66366719  0.48308830  0.70199736  1
  O  O667  1  0.66302659  0.48135296  0.95365711  1
  O  O668  1  0.66372051  0.81479836  0.20198725  1
  O  O669  1  0.66214449  0.81527314  0.45250628  1
  O  O670  1  0.66149721  0.81440730  0.70182207  1
  O  O671  1  0.66434586  0.81442335  0.95295624  1
