# generated using pymatgen
data_Na2MnFe(PO4)2
_symmetry_space_group_name_H-M   'P 1'
_cell_length_a   21.09388559
_cell_length_b   18.94676244
_cell_length_c   20.05128429
_cell_angle_alpha   90.00017985
_cell_angle_beta   90.00818564
_cell_angle_gamma   89.99803242
_symmetry_Int_Tables_number   1
_chemical_formula_structural   Na2MnFe(PO4)2
_chemical_formula_sum   'Na96 Mn48 Fe48 P96 O384'
_cell_volume   8013.71302102
_cell_formula_units_Z   48
loop_
 _symmetry_equiv_pos_site_id
 _symmetry_equiv_pos_as_xyz
  1  'x, y, z'
loop_
 _atom_site_type_symbol
 _atom_site_label
 _atom_site_symmetry_multiplicity
 _atom_site_fract_x
 _atom_site_fract_y
 _atom_site_fract_z
 _atom_site_occupancy
  Na  Na0  1  -0.00045703  -0.00054737  -0.00013731  1
  Na  Na1  1  -0.00129959  -0.00107178  0.25076846  1
  Na  Na2  1  -0.00193724  -0.00076414  0.49929952  1
  Na  Na3  1  -0.00258208  -0.00073009  0.75026048  1
  Na  Na4  1  0.00002981  0.33295152  0.00051033  1
  Na  Na5  1  0.00128543  0.33405666  0.25008145  1
  Na  Na6  1  -0.00116138  0.33263867  0.50092683  1
  Na  Na7  1  0.00182624  0.33428309  0.74872640  1
  Na  Na8  1  -0.00051760  0.66568547  -0.00077198  1
  Na  Na9  1  0.00124767  0.66737122  0.24992425  1
  Na  Na10  1  -0.00064999  0.66651292  0.50084760  1
  Na  Na11  1  0.00016739  0.66665081  0.74981859  1
  Na  Na12  1  0.50028395  -0.00042795  -0.00072109  1
  Na  Na13  1  0.49721446  -0.00165485  0.25133013  1
  Na  Na14  1  0.49985915  -0.00030776  0.50009080  1
  Na  Na15  1  0.49991266  -0.00066525  0.74911675  1
  Na  Na16  1  0.49934977  0.33357115  0.00017025  1
  Na  Na17  1  0.50176422  0.33453318  0.24948176  1
  Na  Na18  1  0.49914383  0.33320756  0.50035447  1
  Na  Na19  1  0.49894720  0.33346788  0.74962487  1
  Na  Na20  1  0.49935921  0.66721976  0.00001222  1
  Na  Na21  1  0.49866111  0.66707971  0.24993367  1
  Na  Na22  1  0.49691243  0.66573868  0.50010369  1
  Na  Na23  1  0.50059885  0.66779945  0.74924490  1
  Na  Na24  1  0.25079452  -0.00093684  0.12468782  1
  Na  Na25  1  0.25147093  0.00004114  0.37465497  1
  Na  Na26  1  0.25101775  -0.00033266  0.62500221  1
  Na  Na27  1  0.25204273  -0.00000674  0.87533768  1
  Na  Na28  1  0.25090388  0.33365341  0.12487359  1
  Na  Na29  1  0.25108624  0.33332137  0.37534375  1
  Na  Na30  1  0.25203002  0.33368452  0.62519334  1
  Na  Na31  1  0.25147434  0.33402061  0.87459325  1
  Na  Na32  1  0.25232824  0.66818628  0.12622809  1
  Na  Na33  1  0.25054292  0.66670627  0.37452712  1
  Na  Na34  1  0.25227778  0.66808494  0.62454177  1
  Na  Na35  1  0.24967261  0.66604529  0.87481368  1
  Na  Na36  1  0.75091787  -0.00059297  0.12505346  1
  Na  Na37  1  0.75329929  -0.00001033  0.37482281  1
  Na  Na38  1  0.75169949  -0.00020855  0.62538320  1
  Na  Na39  1  0.74969539  -0.00060603  0.87467482  1
  Na  Na40  1  0.74628025  0.33274921  0.12540688  1
  Na  Na41  1  0.74869957  0.33380257  0.37469012  1
  Na  Na42  1  0.74905643  0.33350180  0.62496619  1
  Na  Na43  1  0.74821923  0.33340835  0.87588886  1
  Na  Na44  1  0.75036203  0.66690908  0.12410720  1
  Na  Na45  1  0.74921983  0.66584288  0.37462126  1
  Na  Na46  1  0.75208921  0.66765190  0.62626539  1
  Na  Na47  1  0.74878120  0.66590745  0.87516068  1
  Na  Na48  1  0.00009940  0.16637512  -0.00000462  1
  Na  Na49  1  0.00004604  0.16672318  0.24995217  1
  Na  Na50  1  -0.00094968  0.16641466  0.50034344  1
  Na  Na51  1  -0.00039734  0.16634923  0.74906496  1
  Na  Na52  1  0.00026460  0.50067552  -0.00051377  1
  Na  Na53  1  -0.00079791  0.50095480  0.25059102  1
  Na  Na54  1  -0.00215694  0.50102017  0.50099536  1
  Na  Na55  1  -0.00033334  0.50090867  0.74988529  1
  Na  Na56  1  -0.00007796  0.83386107  0.00048407  1
  Na  Na57  1  0.00012513  0.83421915  0.24988877  1
  Na  Na58  1  0.00006147  0.83374467  0.50002330  1
  Na  Na59  1  -0.00149507  0.83453677  0.74956353  1
  Na  Na60  1  0.50136706  0.16557742  0.00011923  1
  Na  Na61  1  0.49969235  0.16604180  0.25069556  1
  Na  Na62  1  0.49689804  0.16732055  0.50028695  1
  Na  Na63  1  0.50034530  0.16579049  0.74905544  1
  Na  Na64  1  0.49846240  0.50052294  -0.00025855  1
  Na  Na65  1  0.50018839  0.49955586  0.24991895  1
  Na  Na66  1  0.49965259  0.49987895  0.50003090  1
  Na  Na67  1  0.49847260  0.50050980  0.74965513  1
  Na  Na68  1  0.49908459  0.83358513  -0.00048337  1
  Na  Na69  1  0.49752533  0.83421280  0.25012796  1
  Na  Na70  1  0.49963819  0.83332855  0.50035100  1
  Na  Na71  1  0.50009056  0.83337462  0.74919906  1
  Na  Na72  1  0.25025020  0.16606372  0.12463366  1
  Na  Na73  1  0.25095086  0.16622876  0.37572309  1
  Na  Na74  1  0.25216085  0.16541397  0.62484694  1
  Na  Na75  1  0.24878931  0.16727885  0.87490768  1
  Na  Na76  1  0.25198960  0.49973296  0.12552339  1
  Na  Na77  1  0.25268504  0.49935810  0.37438079  1
  Na  Na78  1  0.25250852  0.49974821  0.62511378  1
  Na  Na79  1  0.25104535  0.50053530  0.87450370  1
  Na  Na80  1  0.25162826  0.83350010  0.12566014  1
  Na  Na81  1  0.24984224  0.83379371  0.37437149  1
  Na  Na82  1  0.25058442  0.83354530  0.62491876  1
  Na  Na83  1  0.25314463  0.83254059  0.87543348  1
  Na  Na84  1  0.74974611  0.16568756  0.12448015  1
  Na  Na85  1  0.75021648  0.16627029  0.37559896  1
  Na  Na86  1  0.75123516  0.16534071  0.62546684  1
  Na  Na87  1  0.74767147  0.16684467  0.87548377  1
  Na  Na88  1  0.74932380  0.50024100  0.12498519  1
  Na  Na89  1  0.74910841  0.50032271  0.37427447  1
  Na  Na90  1  0.75151751  0.49988723  0.62532315  1
  Na  Na91  1  0.75009440  0.50037289  0.87589244  1
  Na  Na92  1  0.74942725  0.83398978  0.12494174  1
  Na  Na93  1  0.75242671  0.83297170  0.37425962  1
  Na  Na94  1  0.75021246  0.83378660  0.62583366  1
  Na  Na95  1  0.74835687  0.83430270  0.87448375  1
  Mn  Mn96  1  0.10843163  0.74979753  0.12262790  1
  Mn  Mn97  1  0.64256239  0.58417324  0.49844461  1
  Mn  Mn98  1  0.60652171  0.75011203  0.12301488  1
  Mn  Mn99  1  0.10825500  0.41695937  0.62239730  1
  Mn  Mn100  1  0.64246208  0.91667034  0.24829755  1
  Mn  Mn101  1  0.60758825  0.08340137  0.62240988  1
  Mn  Mn102  1  0.64121797  0.24910153  0.99753692  1
  Mn  Mn103  1  0.14273058  0.91673380  0.74834583  1
  Mn  Mn104  1  0.10752018  0.08279301  0.62334493  1
  Mn  Mn105  1  0.85761449  0.41642024  0.00255556  1
  Mn  Mn106  1  0.10830352  0.75039859  0.87315727  1
  Mn  Mn107  1  0.64152432  0.58418135  0.99784459  1
  Mn  Mn108  1  0.85817288  0.74989584  0.25216591  1
  Mn  Mn109  1  0.39227573  0.24961866  0.37680662  1
  Mn  Mn110  1  0.39211696  0.91651198  0.62702621  1
  Mn  Mn111  1  0.10756553  0.08305389  0.87241924  1
  Mn  Mn112  1  0.14235863  0.25039334  0.99724808  1
  Mn  Mn113  1  0.60762483  0.74970443  0.62217603  1
  Mn  Mn114  1  0.14303025  0.58302701  0.24773710  1
  Mn  Mn115  1  0.85699325  0.08335498  0.00209652  1
  Mn  Mn116  1  0.10785283  0.08306183  0.37281564  1
  Mn  Mn117  1  0.10853299  0.41674431  0.87289877  1
  Mn  Mn118  1  0.10861835  0.41735375  0.12317959  1
  Mn  Mn119  1  0.14304053  0.58352976  0.49817524  1
  Mn  Mn120  1  0.39188668  0.58422920  0.87723535  1
  Mn  Mn121  1  0.39266834  0.58355277  0.37717921  1
  Mn  Mn122  1  0.14321475  0.24979830  0.49775855  1
  Mn  Mn123  1  0.89160713  0.25009587  0.62796048  1
  Mn  Mn124  1  0.85726307  0.75016573  0.75314099  1
  Mn  Mn125  1  0.60774515  0.08308980  0.37306031  1
  Mn  Mn126  1  0.85737322  0.41588349  0.75286827  1
  Mn  Mn127  1  0.10787240  0.75063669  0.62312521  1
  Mn  Mn128  1  0.60772875  0.74985027  0.37330331  1
  Mn  Mn129  1  0.89172261  0.58392140  0.37714350  1
  Mn  Mn130  1  0.85730038  0.75015047  0.00178939  1
  Mn  Mn131  1  0.89182606  0.25037351  0.12805318  1
  Mn  Mn132  1  0.60750892  0.08265202  0.12388933  1
  Mn  Mn133  1  0.85669422  0.41603413  0.25197829  1
  Mn  Mn134  1  0.89195063  0.25040487  0.87671651  1
  Mn  Mn135  1  0.39217228  0.24965483  0.12787791  1
  Mn  Mn136  1  0.89176504  0.25019503  0.37691349  1
  Mn  Mn137  1  0.10786666  0.08311098  0.12351800  1
  Mn  Mn138  1  0.64202685  0.24937453  0.49773241  1
  Mn  Mn139  1  0.60685280  0.41701487  0.87238418  1
  Mn  Mn140  1  0.35839400  0.08325489  0.00228520  1
  Mn  Mn141  1  0.39238746  0.24915700  0.87699886  1
  Mn  Mn142  1  0.60686708  0.41687136  0.62301907  1
  Mn  Mn143  1  0.10828174  0.41721124  0.37361734  1
  Fe  Fe144  1  0.60751371  0.41677237  0.37342558  1
  Fe  Fe145  1  0.14334884  0.91612427  0.99814585  1
  Fe  Fe146  1  0.60722163  0.08243329  0.87221536  1
  Fe  Fe147  1  0.35796815  0.41595141  0.25190657  1
  Fe  Fe148  1  0.64213625  0.24969072  0.24854810  1
  Fe  Fe149  1  0.35721981  0.08291164  0.50191786  1
  Fe  Fe150  1  0.35779568  0.74961166  0.00153884  1
  Fe  Fe151  1  0.14328227  0.58319372  0.74811072  1
  Fe  Fe152  1  0.85825497  0.74991597  0.50169656  1
  Fe  Fe153  1  0.89255123  0.58371663  0.62750371  1
  Fe  Fe154  1  0.64265856  0.58308489  0.74808063  1
  Fe  Fe155  1  0.64191882  0.25009575  0.74808018  1
  Fe  Fe156  1  0.35721544  0.08336730  0.25170173  1
  Fe  Fe157  1  0.89281229  0.58358731  0.12650401  1
  Fe  Fe158  1  0.89305320  0.58360991  0.87677059  1
  Fe  Fe159  1  0.89277798  0.91613715  0.12649854  1
  Fe  Fe160  1  0.89351564  0.91609479  0.37712376  1
  Fe  Fe161  1  0.85624872  0.08368357  0.75217494  1
  Fe  Fe162  1  0.35757683  0.08314099  0.75218199  1
  Fe  Fe163  1  0.14342846  0.58393248  0.99891161  1
  Fe  Fe164  1  0.35703710  0.75054537  0.25258519  1
  Fe  Fe165  1  0.85747220  0.08338832  0.50196370  1
  Fe  Fe166  1  0.14342663  0.25003026  0.74831187  1
  Fe  Fe167  1  0.64414097  0.91631948  0.49818996  1
  Fe  Fe168  1  0.89191486  0.91620706  0.87738370  1
  Fe  Fe169  1  0.14347393  0.91724391  0.24835681  1
  Fe  Fe170  1  0.35685579  0.41663365  0.75168337  1
  Fe  Fe171  1  0.89242318  0.91613468  0.62667634  1
  Fe  Fe172  1  0.39224020  0.58365137  0.12670705  1
  Fe  Fe173  1  0.39199035  0.91646741  0.37767157  1
  Fe  Fe174  1  0.10764406  0.75006633  0.37407502  1
  Fe  Fe175  1  0.64171580  0.91636682  0.99818342  1
  Fe  Fe176  1  0.85697524  0.41684483  0.50128642  1
  Fe  Fe177  1  0.64295033  0.91671996  0.74804252  1
  Fe  Fe178  1  0.35861713  0.41661937  0.50173878  1
  Fe  Fe179  1  0.85759510  0.08395654  0.25141818  1
  Fe  Fe180  1  0.39222744  0.91656543  0.12676600  1
  Fe  Fe181  1  0.35748145  0.41727474  0.00197993  1
  Fe  Fe182  1  0.60666340  0.75037996  0.87317206  1
  Fe  Fe183  1  0.39371491  0.91675812  0.87642480  1
  Fe  Fe184  1  0.39220400  0.58321186  0.62721849  1
  Fe  Fe185  1  0.14265075  0.91673676  0.49830581  1
  Fe  Fe186  1  0.60595868  0.41732637  0.12337403  1
  Fe  Fe187  1  0.64197335  0.58340681  0.24750388  1
  Fe  Fe188  1  0.14310340  0.24960734  0.24907174  1
  Fe  Fe189  1  0.35764494  0.75017462  0.75202475  1
  Fe  Fe190  1  0.35674440  0.75019169  0.50140347  1
  Fe  Fe191  1  0.39218781  0.25012823  0.62754495  1
  P  P192  1  0.05473225  0.24991480  0.11122910  1
  P  P193  1  0.05395006  0.25004540  0.35965277  1
  P  P194  1  0.05473709  0.24951054  0.61092165  1
  P  P195  1  0.05393280  0.25004674  0.85856103  1
  P  P196  1  0.05323900  0.58350843  0.10929541  1
  P  P197  1  0.05362191  0.58436499  0.36046925  1
  P  P198  1  0.05368727  0.58377620  0.61125834  1
  P  P199  1  0.05477887  0.58372232  0.86032741  1
  P  P200  1  0.05440771  0.91680393  0.11065445  1
  P  P201  1  0.05472540  0.91584466  0.36079296  1
  P  P202  1  0.05264393  0.91706210  0.60949679  1
  P  P203  1  0.05287812  0.91637769  0.86093280  1
  P  P204  1  0.55421921  0.25034425  0.11146848  1
  P  P205  1  0.55381686  0.25036323  0.35973331  1
  P  P206  1  0.55269300  0.24994424  0.61093781  1
  P  P207  1  0.55356193  0.24909219  0.85895297  1
  P  P208  1  0.55238209  0.58312039  0.11109873  1
  P  P209  1  0.55414882  0.58299341  0.35962235  1
  P  P210  1  0.55254468  0.58329750  0.61092899  1
  P  P211  1  0.55334563  0.58454509  0.85914524  1
  P  P212  1  0.55213900  0.91650410  0.10979598  1
  P  P213  1  0.55312182  0.91629931  0.36151228  1
  P  P214  1  0.55538103  0.91660276  0.60995311  1
  P  P215  1  0.55409023  0.91623310  0.86017044  1
  P  P216  1  0.44607420  0.08210095  0.14090673  1
  P  P217  1  0.44456642  0.08234430  0.38971283  1
  P  P218  1  0.44450124  0.08350852  0.63936759  1
  P  P219  1  0.44707886  0.08230818  0.88841852  1
  P  P220  1  0.44538669  0.41754547  0.13933324  1
  P  P221  1  0.44658329  0.41638158  0.38931967  1
  P  P222  1  0.44417698  0.41675154  0.63944707  1
  P  P223  1  0.44434263  0.41680064  0.88940017  1
  P  P224  1  0.44398553  0.75022429  0.13923104  1
  P  P225  1  0.44470236  0.75101480  0.38974565  1
  P  P226  1  0.44447580  0.74958122  0.63922453  1
  P  P227  1  0.44598571  0.75099187  0.88900491  1
  P  P228  1  0.94586139  0.08231043  0.14055365  1
  P  P229  1  0.94482954  0.08275214  0.38925347  1
  P  P230  1  0.94406751  0.08219559  0.63957864  1
  P  P231  1  0.94484064  0.08287902  0.88884884  1
  P  P232  1  0.94680334  0.41796722  0.14032250  1
  P  P233  1  0.94606678  0.41673622  0.39085538  1
  P  P234  1  0.94511584  0.41757183  0.63912708  1
  P  P235  1  0.94695774  0.41739157  0.88995286  1
  P  P236  1  0.94675733  0.74977802  0.13954526  1
  P  P237  1  0.94756757  0.75078365  0.39041989  1
  P  P238  1  0.94506746  0.75028500  0.63911208  1
  P  P239  1  0.94655202  0.75004453  0.88986389  1
  P  P240  1  0.19801928  0.08295704  0.23546807  1
  P  P241  1  0.19779993  0.08226563  0.48542541  1
  P  P242  1  0.19814301  0.08346314  0.73522831  1
  P  P243  1  0.19667580  0.08192418  0.98509399  1
  P  P244  1  0.19842769  0.41582530  0.23553910  1
  P  P245  1  0.19916905  0.41701580  0.48531536  1
  P  P246  1  0.19769354  0.41687817  0.73511465  1
  P  P247  1  0.19847221  0.41817170  0.98523424  1
  P  P248  1  0.19661222  0.75112879  0.23669463  1
  P  P249  1  0.19717783  0.75079098  0.48464556  1
  P  P250  1  0.19814630  0.74968626  0.73532183  1
  P  P251  1  0.19834969  0.75018608  0.98562414  1
  P  P252  1  0.69793226  0.08336028  0.23547937  1
  P  P253  1  0.69805533  0.08179399  0.48541409  1
  P  P254  1  0.69575873  0.08284892  0.73611364  1
  P  P255  1  0.69492760  0.08153487  0.98440481  1
  P  P256  1  0.69359687  0.41690871  0.23563510  1
  P  P257  1  0.69686467  0.41724701  0.48490374  1
  P  P258  1  0.69585253  0.41717158  0.73529738  1
  P  P259  1  0.69452998  0.41720557  0.98624835  1
  P  P260  1  0.69636853  0.74949320  0.23483665  1
  P  P261  1  0.69864566  0.75092417  0.48534586  1
  P  P262  1  0.69469014  0.74989609  0.73655959  1
  P  P263  1  0.69512777  0.75106266  0.98434047  1
  P  P264  1  0.30370650  0.25050343  0.01486090  1
  P  P265  1  0.30257297  0.24957080  0.26489303  1
  P  P266  1  0.30483047  0.24982646  0.51553568  1
  P  P267  1  0.30377619  0.24970429  0.76377819  1
  P  P268  1  0.30327020  0.58394965  0.01547646  1
  P  P269  1  0.30538847  0.58340931  0.26368188  1
  P  P270  1  0.30470429  0.58367003  0.51516609  1
  P  P271  1  0.30378483  0.58372052  0.76361113  1
  P  P272  1  0.30479094  0.91573661  0.01415957  1
  P  P273  1  0.30458463  0.91687384  0.26431785  1
  P  P274  1  0.30329014  0.91628864  0.51368746  1
  P  P275  1  0.30466421  0.91658406  0.76552325  1
  P  P276  1  0.80266256  0.24998029  0.01534472  1
  P  P277  1  0.80142256  0.24945439  0.26491669  1
  P  P278  1  0.80317229  0.25021724  0.51501111  1
  P  P279  1  0.80110907  0.24934383  0.76533506  1
  P  P280  1  0.80479469  0.58351370  0.01458019  1
  P  P281  1  0.80278362  0.58317599  0.26348372  1
  P  P282  1  0.80414051  0.58366978  0.51557482  1
  P  P283  1  0.80374236  0.58328684  0.76504490  1
  P  P284  1  0.80321831  0.91635066  0.01434913  1
  P  P285  1  0.80593464  0.91727962  0.26426168  1
  P  P286  1  0.80489018  0.91614518  0.51427191  1
  P  P287  1  0.80393448  0.91726793  0.76440829  1
  O  O288  1  0.05992212  0.24989769  0.18794396  1
  O  O289  1  0.05720605  0.24972556  0.43646574  1
  O  O290  1  0.06007375  0.24962708  0.68760790  1
  O  O291  1  0.05702254  0.24996276  0.93542843  1
  O  O292  1  0.05760736  0.58359915  0.18599268  1
  O  O293  1  0.05687304  0.58358777  0.43722030  1
  O  O294  1  0.05940307  0.58355227  0.68788832  1
  O  O295  1  0.06022500  0.58363629  0.93696708  1
  O  O296  1  0.05973184  0.91691903  0.18733979  1
  O  O297  1  0.05949694  0.91682879  0.43749033  1
  O  O298  1  0.05683991  0.91723103  0.68619452  1
  O  O299  1  0.05862842  0.91620452  0.93751116  1
  O  O300  1  0.55834194  0.24933209  0.18820193  1
  O  O301  1  0.55638197  0.24945638  0.43658710  1
  O  O302  1  0.55823746  0.24970602  0.68753361  1
  O  O303  1  0.55612709  0.24976485  0.93580834  1
  O  O304  1  0.55713421  0.58378077  0.18772151  1
  O  O305  1  0.55698200  0.58373850  0.43644691  1
  O  O306  1  0.55791224  0.58350494  0.68748223  1
  O  O307  1  0.55605012  0.58377791  0.93595989  1
  O  O308  1  0.55624885  0.91635081  0.18649462  1
  O  O309  1  0.55900949  0.91627748  0.43805968  1
  O  O310  1  0.55977248  0.91667233  0.68669335  1
  O  O311  1  0.55790799  0.91637258  0.93687219  1
  O  O312  1  0.44364361  0.08305926  0.06407405  1
  O  O313  1  0.44033085  0.08301035  0.31297278  1
  O  O314  1  0.44025447  0.08260540  0.56258910  1
  O  O315  1  0.44201242  0.08306843  0.81179387  1
  O  O316  1  0.44078792  0.41694884  0.06259410  1
  O  O317  1  0.44157728  0.41611617  0.31263987  1
  O  O318  1  0.44104169  0.41675812  0.56256552  1
  O  O319  1  0.43988317  0.41682315  0.81263011  1
  O  O320  1  0.44073737  0.74997138  0.06236833  1
  O  O321  1  0.44068396  0.75073802  0.31296219  1
  O  O322  1  0.44013930  0.75036636  0.56249878  1
  O  O323  1  0.44143115  0.75004633  0.81232062  1
  O  O324  1  0.94292859  0.08313562  0.06375483  1
  O  O325  1  0.94092882  0.08395889  0.31253506  1
  O  O326  1  0.94022862  0.08324930  0.56274884  1
  O  O327  1  0.94030877  0.08360159  0.81210426  1
  O  O328  1  0.94370670  0.41690426  0.06358138  1
  O  O329  1  0.94263303  0.41662510  0.31409133  1
  O  O330  1  0.94043186  0.41661480  0.56245906  1
  O  O331  1  0.94376526  0.41663169  0.81317266  1
  O  O332  1  0.94354948  0.74993662  0.06286344  1
  O  O333  1  0.94401069  0.75013256  0.31372901  1
  O  O334  1  0.94151151  0.75015608  0.56237875  1
  O  O335  1  0.94364423  0.75033677  0.81308657  1
  O  O336  1  0.19359997  0.08213477  0.06181944  1
  O  O337  1  0.19447559  0.08286310  0.31213137  1
  O  O338  1  0.19381554  0.08236923  0.56203585  1
  O  O339  1  0.19406485  0.08291434  0.81188543  1
  O  O340  1  0.19484938  0.41753054  0.06190097  1
  O  O341  1  0.19453565  0.41666755  0.31218355  1
  O  O342  1  0.19491995  0.41722745  0.56195472  1
  O  O343  1  0.19426603  0.41708524  0.81180048  1
  O  O344  1  0.19492970  0.75054460  0.06231437  1
  O  O345  1  0.19167873  0.75031841  0.31326453  1
  O  O346  1  0.19358596  0.75052060  0.56136112  1
  O  O347  1  0.19435330  0.75011628  0.81198493  1
  O  O348  1  0.69219971  0.08194621  0.06118628  1
  O  O349  1  0.69427255  0.08255457  0.31215063  1
  O  O350  1  0.69409629  0.08239084  0.56206700  1
  O  O351  1  0.69113038  0.08266473  0.81277926  1
  O  O352  1  0.68985978  0.41761431  0.06296841  1
  O  O353  1  0.69029576  0.41719378  0.31246814  1
  O  O354  1  0.69279838  0.41735464  0.56159264  1
  O  O355  1  0.69292943  0.41733724  0.81205681  1
  O  O356  1  0.69207991  0.75045061  0.06110546  1
  O  O357  1  0.69346630  0.74994563  0.31159814  1
  O  O358  1  0.69453454  0.75034478  0.56202098  1
  O  O359  1  0.69063160  0.74993361  0.81323313  1
  O  O360  1  0.30590297  0.24960298  0.18822750  1
  O  O361  1  0.30728799  0.25004283  0.43872257  1
  O  O362  1  0.30805503  0.24944818  0.68712087  1
  O  O363  1  0.30676001  0.24968411  0.93809935  1
  O  O364  1  0.30884005  0.58349392  0.18695324  1
  O  O365  1  0.30724703  0.58333271  0.43835280  1
  O  O366  1  0.30814513  0.58398987  0.68698926  1
  O  O367  1  0.30635353  0.58406324  0.93870356  1
  O  O368  1  0.30862144  0.91670324  0.18761935  1
  O  O369  1  0.30747228  0.91641191  0.43702926  1
  O  O370  1  0.30692485  0.91657991  0.68872270  1
  O  O371  1  0.30979885  0.91663780  0.93754112  1
  O  O372  1  0.80507113  0.25015205  0.18824298  1
  O  O373  1  0.80588305  0.25040414  0.43828181  1
  O  O374  1  0.80526612  0.24993918  0.68866969  1
  O  O375  1  0.80614615  0.25032650  0.93862363  1
  O  O376  1  0.80808802  0.58355938  0.18690638  1
  O  O377  1  0.80636419  0.58365754  0.43871800  1
  O  O378  1  0.80885279  0.58361487  0.68838142  1
  O  O379  1  0.80938150  0.58345866  0.93786207  1
  O  O380  1  0.80963916  0.91608910  0.18748101  1
  O  O381  1  0.80928220  0.91577920  0.43755809  1
  O  O382  1  0.80858124  0.91627065  0.68777613  1
  O  O383  1  0.80803802  0.91612504  0.93763445  1
  O  O384  1  0.23407991  0.24999760  0.04001042  1
  O  O385  1  0.23280582  0.24962268  0.29026555  1
  O  O386  1  0.23519548  0.24960255  0.54093987  1
  O  O387  1  0.23362876  0.25024089  0.78815535  1
  O  O388  1  0.23340314  0.58421427  0.04069302  1
  O  O389  1  0.23561003  0.58317042  0.28860515  1
  O  O390  1  0.23509451  0.58397130  0.54064467  1
  O  O391  1  0.23362235  0.58332523  0.78788051  1
  O  O392  1  0.23445684  0.91610526  0.03788876  1
  O  O393  1  0.23425888  0.91684065  0.28829962  1
  O  O394  1  0.23316440  0.91633281  0.53814973  1
  O  O395  1  0.23507735  0.91639907  0.79108390  1
  O  O396  1  0.73284274  0.24929289  0.03988511  1
  O  O397  1  0.73150898  0.24981223  0.28979690  1
  O  O398  1  0.73354296  0.24954429  0.54054889  1
  O  O399  1  0.73101947  0.24990487  0.78960313  1
  O  O400  1  0.73455516  0.58391376  0.03806756  1
  O  O401  1  0.73243476  0.58292804  0.28697062  1
  O  O402  1  0.73454841  0.58403849  0.54127795  1
  O  O403  1  0.73328843  0.58331257  0.78824841  1
  O  O404  1  0.73284300  0.91646296  0.03785139  1
  O  O405  1  0.73591938  0.91649245  0.28859858  1
  O  O406  1  0.73468308  0.91656331  0.53858498  1
  O  O407  1  0.73341917  0.91673347  0.78766490  1
  O  O408  1  0.26796400  0.08267846  0.21052441  1
  O  O409  1  0.26794562  0.08299832  0.46115914  1
  O  O410  1  0.26826420  0.08256930  0.71100798  1
  O  O411  1  0.26641893  0.08303743  0.96010850  1
  O  O412  1  0.26855760  0.41628860  0.21116362  1
  O  O413  1  0.26934491  0.41662736  0.46122800  1
  O  O414  1  0.26780762  0.41678389  0.71067384  1
  O  O415  1  0.26845410  0.41764227  0.96044757  1
  O  O416  1  0.26703659  0.75104550  0.21325633  1
  O  O417  1  0.26725917  0.75019915  0.46021702  1
  O  O418  1  0.26819881  0.75063160  0.71089437  1
  O  O419  1  0.26830377  0.74970324  0.96073217  1
  O  O420  1  0.76777575  0.08300975  0.21045460  1
  O  O421  1  0.76816507  0.08257074  0.46118081  1
  O  O422  1  0.76606338  0.08268855  0.71229594  1
  O  O423  1  0.76460140  0.08281277  0.95933413  1
  O  O424  1  0.76351549  0.41670405  0.21097139  1
  O  O425  1  0.76699933  0.41721919  0.46065220  1
  O  O426  1  0.76546698  0.41676097  0.71005251  1
  O  O427  1  0.76456257  0.41703862  0.96232744  1
  O  O428  1  0.76596012  0.75013044  0.20952026  1
  O  O429  1  0.76865399  0.74998071  0.46081114  1
  O  O430  1  0.76475394  0.75038482  0.71246604  1
  O  O431  1  0.76479051  0.75025690  0.95925105  1
  O  O432  1  0.01554482  0.08259963  0.16576979  1
  O  O433  1  0.01486218  0.08293123  0.41360217  1
  O  O434  1  0.01409733  0.08275064  0.66380782  1
  O  O435  1  0.01483523  0.08284350  0.91307103  1
  O  O436  1  0.01644803  0.41792396  0.16558983  1
  O  O437  1  0.01579446  0.41683983  0.41595617  1
  O  O438  1  0.01524952  0.41767153  0.66298584  1
  O  O439  1  0.01661607  0.41691461  0.91513482  1
  O  O440  1  0.01642819  0.75030040  0.16477607  1
  O  O441  1  0.01755629  0.75031770  0.41515871  1
  O  O442  1  0.01490268  0.75058694  0.66397769  1
  O  O443  1  0.01608000  0.74993178  0.91537395  1
  O  O444  1  0.51556065  0.08214437  0.16660793  1
  O  O445  1  0.51459701  0.08325925  0.41391959  1
  O  O446  1  0.51465424  0.08269170  0.66305125  1
  O  O447  1  0.51736885  0.08233849  0.91209175  1
  O  O448  1  0.51572531  0.41706988  0.16295362  1
  O  O449  1  0.51694607  0.41651084  0.41291222  1
  O  O450  1  0.51405916  0.41692329  0.66411619  1
  O  O451  1  0.51441954  0.41698831  0.91316994  1
  O  O452  1  0.51385886  0.75054938  0.16404192  1
  O  O453  1  0.51466276  0.74986661  0.41410322  1
  O  O454  1  0.51462742  0.75051216  0.66290598  1
  O  O455  1  0.51624455  0.75041881  0.91282915  1
  O  O456  1  0.48433892  0.24995536  0.08686065  1
  O  O457  1  0.48417200  0.25019569  0.33440609  1
  O  O458  1  0.48227194  0.25022337  0.58781777  1
  O  O459  1  0.48390806  0.24939388  0.83375373  1
  O  O460  1  0.48214221  0.58377661  0.08705639  1
  O  O461  1  0.48437883  0.58359808  0.33471443  1
  O  O462  1  0.48218167  0.58294248  0.58754269  1
  O  O463  1  0.48354754  0.58427058  0.83425065  1
  O  O464  1  0.48198214  0.91642742  0.08567394  1
  O  O465  1  0.48262058  0.91627885  0.33851784  1
  O  O466  1  0.48509073  0.91643533  0.58662747  1
  O  O467  1  0.48386769  0.91629672  0.83577068  1
  O  O468  1  0.98456256  0.24974324  0.08763858  1
  O  O469  1  0.98415970  0.25023338  0.33487247  1
  O  O470  1  0.98445008  0.24929801  0.58776675  1
  O  O471  1  0.98423039  0.25035848  0.83355037  1
  O  O472  1  0.98310803  0.58340484  0.08531196  1
  O  O473  1  0.98391880  0.58438330  0.33538090  1
  O  O474  1  0.98320387  0.58385922  0.58831962  1
  O  O475  1  0.98424891  0.58393787  0.83719875  1
  O  O476  1  0.98379055  0.91653474  0.08773942  1
  O  O477  1  0.98424157  0.91641709  0.33751212  1
  O  O478  1  0.98244996  0.91651520  0.58559505  1
  O  O479  1  0.98242617  0.91650525  0.83774502  1
  O  O480  1  0.08792172  0.31511006  0.07797512  1
  O  O481  1  0.08834643  0.31498385  0.32739566  1
  O  O482  1  0.08778278  0.31466909  0.57755667  1
  O  O483  1  0.08852312  0.31497204  0.82642061  1
  O  O484  1  0.08697443  0.64854497  0.07631013  1
  O  O485  1  0.08773213  0.64951964  0.32835006  1
  O  O486  1  0.08666348  0.64896308  0.57796876  1
  O  O487  1  0.08812923  0.64871405  0.82687938  1
  O  O488  1  0.08741991  0.98173300  0.07697014  1
  O  O489  1  0.08818868  0.98063577  0.32698093  1
  O  O490  1  0.08607625  0.98208847  0.57632320  1
  O  O491  1  0.08597133  0.98128922  0.82716975  1
  O  O492  1  0.58749206  0.31567456  0.07883790  1
  O  O493  1  0.58802867  0.31546062  0.32791689  1
  O  O494  1  0.58592817  0.31492848  0.57761256  1
  O  O495  1  0.58778096  0.31411667  0.82648595  1
  O  O496  1  0.58592822  0.64802884  0.07771466  1
  O  O497  1  0.58855034  0.64777044  0.32690543  1
  O  O498  1  0.58548448  0.64836269  0.57718782  1
  O  O499  1  0.58739527  0.64967535  0.82706480  1
  O  O500  1  0.58597785  0.98147962  0.07703381  1
  O  O501  1  0.58599637  0.98140057  0.32777921  1
  O  O502  1  0.58869174  0.98157062  0.57662189  1
  O  O503  1  0.58772900  0.98111488  0.82676317  1
  O  O504  1  0.41167238  0.01695376  0.17258072  1
  O  O505  1  0.41127492  0.01711027  0.42270150  1
  O  O506  1  0.41074581  0.01867654  0.67269253  1
  O  O507  1  0.41382541  0.01717501  0.92150189  1
  O  O508  1  0.41207930  0.35260321  0.17304479  1
  O  O509  1  0.41316479  0.35150079  0.42271109  1
  O  O510  1  0.41051539  0.35162247  0.67225299  1
  O  O511  1  0.41095212  0.35183874  0.92261389  1
  O  O512  1  0.41031166  0.68522764  0.17215777  1
  O  O513  1  0.41044335  0.68623697  0.42253244  1
  O  O514  1  0.41144542  0.68432521  0.67237147  1
  O  O515  1  0.41220793  0.68631689  0.92272221  1
  O  O516  1  0.91184560  0.01705915  0.17245830  1
  O  O517  1  0.91135933  0.01728961  0.42162907  1
  O  O518  1  0.91071594  0.01675475  0.67196702  1
  O  O519  1  0.91126237  0.01768720  0.92158747  1
  O  O520  1  0.91268084  0.35299790  0.17310847  1
  O  O521  1  0.91184268  0.35176208  0.42335794  1
  O  O522  1  0.91196324  0.35245030  0.67273222  1
  O  O523  1  0.91263227  0.35251243  0.92251019  1
  O  O524  1  0.91304564  0.68444001  0.17202053  1
  O  O525  1  0.91312414  0.68614031  0.42327762  1
  O  O526  1  0.91135972  0.68527940  0.67209085  1
  O  O527  1  0.91229459  0.68483317  0.92172066  1
  O  O528  1  0.16413547  0.01784722  0.20284757  1
  O  O529  1  0.16444973  0.01721483  0.45236885  1
  O  O530  1  0.16413006  0.01849683  0.70241471  1
  O  O531  1  0.16331861  0.01646354  0.95260145  1
  O  O532  1  0.16485175  0.35069739  0.20298696  1
  O  O533  1  0.16524875  0.35206811  0.45273716  1
  O  O534  1  0.16400342  0.35179920  0.70244897  1
  O  O535  1  0.16440981  0.35329409  0.95239675  1
  O  O536  1  0.16361258  0.68613791  0.20288514  1
  O  O537  1  0.16311056  0.68587924  0.45186216  1
  O  O538  1  0.16475833  0.68454727  0.70249255  1
  O  O539  1  0.16429397  0.68513281  0.95332635  1
  O  O540  1  0.66399590  0.01834782  0.20264336  1
  O  O541  1  0.66477384  0.01662791  0.45245505  1
  O  O542  1  0.66258875  0.01776152  0.70276819  1
  O  O543  1  0.66143785  0.01611696  0.95203850  1
  O  O544  1  0.65962547  0.35175500  0.20325339  1
  O  O545  1  0.66289170  0.35221141  0.45228773  1
  O  O546  1  0.66150378  0.35212686  0.70306629  1
  O  O547  1  0.66091343  0.35212593  0.95339209  1
  O  O548  1  0.66233065  0.68437028  0.20251199  1
  O  O549  1  0.66422988  0.68613531  0.45276158  1
  O  O550  1  0.66160995  0.68456639  0.70333050  1
  O  O551  1  0.66036175  0.68642255  0.95178616  1
  O  O552  1  0.33756102  0.31575064  0.04695403  1
  O  O553  1  0.33683965  0.31453721  0.29733669  1
  O  O554  1  0.33907748  0.31488101  0.54775542  1
  O  O555  1  0.33746222  0.31475205  0.79653293  1
  O  O556  1  0.33766502  0.64886069  0.04782946  1
  O  O557  1  0.33884824  0.64867910  0.29641869  1
  O  O558  1  0.33900419  0.64883061  0.54715726  1
  O  O559  1  0.33692596  0.64888332  0.79699861  1
  O  O560  1  0.33838073  0.98051875  0.04787408  1
  O  O561  1  0.33804660  0.98188207  0.29745022  1
  O  O562  1  0.33699691  0.98113828  0.54685118  1
  O  O563  1  0.33904274  0.98162034  0.79773672  1
  O  O564  1  0.83620082  0.31504836  0.04827069  1
  O  O565  1  0.83534737  0.31441080  0.29774142  1
  O  O566  1  0.83685228  0.31552128  0.54743304  1
  O  O567  1  0.83501716  0.31426895  0.79825124  1
  O  O568  1  0.83840944  0.64849516  0.04772382  1
  O  O569  1  0.83592954  0.64820271  0.29715536  1
  O  O570  1  0.83872402  0.64865148  0.54767566  1
  O  O571  1  0.83706424  0.64827144  0.79854845  1
  O  O572  1  0.83685193  0.98123934  0.04746676  1
  O  O573  1  0.83932781  0.98258890  0.29675219  1
  O  O574  1  0.83852792  0.98122383  0.54719788  1
  O  O575  1  0.83701366  0.98242880  0.79751019  1
  O  O576  1  0.41161238  0.14696020  0.17349270  1
  O  O577  1  0.41048061  0.14715576  0.42268148  1
  O  O578  1  0.41140327  0.14876761  0.67238187  1
  O  O579  1  0.41394667  0.14719063  0.92221938  1
  O  O580  1  0.41227137  0.48265977  0.17243132  1
  O  O581  1  0.41321328  0.48137890  0.42261848  1
  O  O582  1  0.41024550  0.48173540  0.67220861  1
  O  O583  1  0.41080077  0.48187019  0.92248309  1
  O  O584  1  0.41011142  0.81537085  0.17182564  1
  O  O585  1  0.41132474  0.81609503  0.42286153  1
  O  O586  1  0.41070013  0.81438940  0.67264042  1
  O  O587  1  0.41280441  0.81618777  0.92197419  1
  O  O588  1  0.91140793  0.14709366  0.17340091  1
  O  O589  1  0.91092336  0.14740952  0.42278262  1
  O  O590  1  0.90986488  0.14679755  0.67303437  1
  O  O591  1  0.91158145  0.14801758  0.92209146  1
  O  O592  1  0.91261552  0.48321042  0.17218892  1
  O  O593  1  0.91171516  0.48175459  0.42308980  1
  O  O594  1  0.91162127  0.48268984  0.67197959  1
  O  O595  1  0.91310787  0.48279725  0.92184689  1
  O  O596  1  0.91252756  0.81474530  0.17196133  1
  O  O597  1  0.91377024  0.81599761  0.42287756  1
  O  O598  1  0.91122931  0.81546119  0.67170901  1
  O  O599  1  0.91228623  0.81500951  0.92227848  1
  O  O600  1  0.08797858  0.18483522  0.07795806  1
  O  O601  1  0.08799695  0.18498271  0.32705301  1
  O  O602  1  0.08786478  0.18439634  0.57764031  1
  O  O603  1  0.08812372  0.18501499  0.82613052  1
  O  O604  1  0.08730544  0.51868356  0.07641432  1
  O  O605  1  0.08757621  0.51929378  0.32778406  1
  O  O606  1  0.08678124  0.51894353  0.57739454  1
  O  O607  1  0.08788786  0.51869912  0.82667673  1
  O  O608  1  0.08775389  0.85188565  0.07705770  1
  O  O609  1  0.08774620  0.85059143  0.32773647  1
  O  O610  1  0.08682090  0.85219977  0.57678529  1
  O  O611  1  0.08589712  0.85133536  0.82727717  1
  O  O612  1  0.58783951  0.18526388  0.07845461  1
  O  O613  1  0.58815606  0.18541035  0.32722065  1
  O  O614  1  0.58558339  0.18487030  0.57721496  1
  O  O615  1  0.58774286  0.18399117  0.82686676  1
  O  O616  1  0.58543480  0.51800192  0.07787554  1
  O  O617  1  0.58779249  0.51769148  0.32746106  1
  O  O618  1  0.58591586  0.51841620  0.57754742  1
  O  O619  1  0.58753900  0.51965288  0.82638067  1
  O  O620  1  0.58596279  0.85167776  0.07664133  1
  O  O621  1  0.58608823  0.85136130  0.32771765  1
  O  O622  1  0.58896566  0.85173808  0.57663971  1
  O  O623  1  0.58752513  0.85112502  0.82710002  1
  O  O624  1  0.33805555  0.18559169  0.04735390  1
  O  O625  1  0.33654675  0.18445919  0.29728679  1
  O  O626  1  0.33915380  0.18472681  0.54760442  1
  O  O627  1  0.33692851  0.18448514  0.79706739  1
  O  O628  1  0.33746754  0.51890029  0.04782450  1
  O  O629  1  0.33933875  0.51837883  0.29626186  1
  O  O630  1  0.33900138  0.51870079  0.54747843  1
  O  O631  1  0.33741042  0.51875873  0.79660817  1
  O  O632  1  0.33791876  0.85049569  0.04720056  1
  O  O633  1  0.33812209  0.85194091  0.29772895  1
  O  O634  1  0.33676605  0.85120658  0.54670989  1
  O  O635  1  0.33921510  0.85161317  0.79760920  1
  O  O636  1  0.83684180  0.18495050  0.04758743  1
  O  O637  1  0.83539781  0.18438663  0.29723714  1
  O  O638  1  0.83762278  0.18518310  0.54708070  1
  O  O639  1  0.83461829  0.18415958  0.79790375  1
  O  O640  1  0.83812894  0.51863186  0.04809037  1
  O  O641  1  0.83610471  0.51826801  0.29691505  1
  O  O642  1  0.83823298  0.51846642  0.54770376  1
  O  O643  1  0.83714756  0.51837775  0.79840124  1
  O  O644  1  0.83663269  0.85141502  0.04774370  1
  O  O645  1  0.84014321  0.85267473  0.29771024  1
  O  O646  1  0.83812316  0.85107393  0.54772958  1
  O  O647  1  0.83735550  0.85253031  0.79834607  1
  O  O648  1  0.16424807  0.14808033  0.20297287  1
  O  O649  1  0.16391888  0.14720210  0.45259799  1
  O  O650  1  0.16483997  0.14864877  0.70242732  1
  O  O651  1  0.16207799  0.14674267  0.95280063  1
  O  O652  1  0.16470603  0.48083513  0.20245515  1
  O  O653  1  0.16580919  0.48213613  0.45232297  1
  O  O654  1  0.16413903  0.48201692  0.70227047  1
  O  O655  1  0.16504813  0.48352375  0.95284951  1
  O  O656  1  0.16358775  0.81629692  0.20343665  1
  O  O657  1  0.16337097  0.81580881  0.45197078  1
  O  O658  1  0.16398518  0.81461002  0.70262037  1
  O  O659  1  0.16466993  0.81527439  0.95269656  1
  O  O660  1  0.66393145  0.14844065  0.20317611  1
  O  O661  1  0.66386291  0.14666134  0.45276556  1
  O  O662  1  0.66255779  0.14799923  0.70284308  1
  O  O663  1  0.65988426  0.14605518  0.95191521  1
  O  O664  1  0.65980821  0.48191836  0.20249442  1
  O  O665  1  0.66300028  0.48221354  0.45208972  1
  O  O666  1  0.66208045  0.48248707  0.70281935  1
  O  O667  1  0.66114874  0.48215579  0.95287142  1
  O  O668  1  0.66199837  0.81453472  0.20260827  1
  O  O669  1  0.66524874  0.81613398  0.45250526  1
  O  O670  1  0.66115435  0.81494461  0.70351341  1
  O  O671  1  0.66125748  0.81634031  0.95213555  1
