# generated using pymatgen
data_Na2MnFe(PO4)2
_symmetry_space_group_name_H-M   'P 1'
_cell_length_a   21.08099602
_cell_length_b   18.93256733
_cell_length_c   20.04011442
_cell_angle_alpha   89.99968496
_cell_angle_beta   89.99927478
_cell_angle_gamma   89.99891863
_symmetry_Int_Tables_number   1
_chemical_formula_structural   Na2MnFe(PO4)2
_chemical_formula_sum   'Na96 Mn48 Fe48 P96 O384'
_cell_volume   7998.35788727
_cell_formula_units_Z   48
loop_
 _symmetry_equiv_pos_site_id
 _symmetry_equiv_pos_as_xyz
  1  'x, y, z'
loop_
 _atom_site_type_symbol
 _atom_site_label
 _atom_site_symmetry_multiplicity
 _atom_site_fract_x
 _atom_site_fract_y
 _atom_site_fract_z
 _atom_site_occupancy
  Na  Na0  1  -0.00289854  -0.00073464  -0.00037912  1
  Na  Na1  1  0.00042454  0.00124929  0.24906366  1
  Na  Na2  1  -0.00173616  -0.00100345  0.50072909  1
  Na  Na3  1  0.00095350  0.00097747  0.75046349  1
  Na  Na4  1  0.00207111  0.33362357  0.00040176  1
  Na  Na5  1  0.00165318  0.33299985  0.24960112  1
  Na  Na6  1  0.00256150  0.33348858  0.49958738  1
  Na  Na7  1  0.00109689  0.33313988  0.75038108  1
  Na  Na8  1  -0.00138968  0.66629855  0.00004539  1
  Na  Na9  1  -0.00148256  0.66610647  0.24993613  1
  Na  Na10  1  0.00103485  0.66674619  0.50008648  1
  Na  Na11  1  -0.00052848  0.66605216  0.74993641  1
  Na  Na12  1  0.50129081  0.00017022  0.00074550  1
  Na  Na13  1  0.50308839  0.00153270  0.24900867  1
  Na  Na14  1  0.50103611  0.00000884  0.50073749  1
  Na  Na15  1  0.50333662  0.00157767  0.74913695  1
  Na  Na16  1  0.49915369  0.33276504  -0.00129383  1
  Na  Na17  1  0.49882907  0.33259063  0.24955230  1
  Na  Na18  1  0.49951984  0.33377000  0.50094538  1
  Na  Na19  1  0.49884236  0.33308145  0.75106622  1
  Na  Na20  1  0.49907976  0.66643855  0.00053016  1
  Na  Na21  1  0.50031182  0.66635612  0.24982471  1
  Na  Na22  1  0.49921814  0.66675678  0.49910749  1
  Na  Na23  1  0.49768916  0.66614026  0.75067695  1
  Na  Na24  1  0.25074989  0.00116847  0.12596845  1
  Na  Na25  1  0.24995335  0.00050049  0.37450424  1
  Na  Na26  1  0.25006042  0.00007912  0.62493887  1
  Na  Na27  1  0.24956529  -0.00021830  0.87481858  1
  Na  Na28  1  0.24878130  0.33247709  0.12414198  1
  Na  Na29  1  0.24955975  0.33301157  0.37530998  1
  Na  Na30  1  0.25083109  0.33331294  0.62544781  1
  Na  Na31  1  0.25094428  0.33319565  0.87514731  1
  Na  Na32  1  0.24983559  0.66707131  0.12447216  1
  Na  Na33  1  0.24768751  0.66601858  0.37517460  1
  Na  Na34  1  0.24940301  0.66657525  0.62569929  1
  Na  Na35  1  0.25010838  0.66664059  0.87452006  1
  Na  Na36  1  0.74810346  0.00008644  0.12555397  1
  Na  Na37  1  0.74813229  -0.00026020  0.37585837  1
  Na  Na38  1  0.74825328  0.00008362  0.62464364  1
  Na  Na39  1  0.74805442  0.00007693  0.87416963  1
  Na  Na40  1  0.75048682  0.33340903  0.12594287  1
  Na  Na41  1  0.75044250  0.33353541  0.37630256  1
  Na  Na42  1  0.74750491  0.33243408  0.62374609  1
  Na  Na43  1  0.74944286  0.33293618  0.87453508  1
  Na  Na44  1  0.75387877  0.66719922  0.12511769  1
  Na  Na45  1  0.75137918  0.66617233  0.37612059  1
  Na  Na46  1  0.75146656  0.66653784  0.62418014  1
  Na  Na47  1  0.75238625  0.66645576  0.87396183  1
  Na  Na48  1  -0.00100054  0.16736953  0.00086519  1
  Na  Na49  1  0.00103904  0.16690423  0.24911116  1
  Na  Na50  1  0.00221797  0.16641498  0.49997770  1
  Na  Na51  1  -0.00109190  0.16787203  0.75057392  1
  Na  Na52  1  -0.00061256  0.50000623  0.00027709  1
  Na  Na53  1  0.00100034  0.49979340  0.25012168  1
  Na  Na54  1  0.00031419  0.50081685  0.50014357  1
  Na  Na55  1  0.00282010  0.49864359  0.75013992  1
  Na  Na56  1  0.00044406  0.83210031  -0.00082580  1
  Na  Na57  1  -0.00201399  0.83371422  0.24906968  1
  Na  Na58  1  -0.00079146  0.83342729  0.50011839  1
  Na  Na59  1  -0.00104100  0.83371466  0.75006717  1
  Na  Na60  1  0.50139408  0.16644705  -0.00040169  1
  Na  Na61  1  0.50041412  0.16662627  0.24921214  1
  Na  Na62  1  0.49831280  0.16761041  0.50122542  1
  Na  Na63  1  0.50005517  0.16701615  0.74996653  1
  Na  Na64  1  0.49931285  0.50041040  0.00018783  1
  Na  Na65  1  0.50280326  0.49889402  0.24902987  1
  Na  Na66  1  0.50024815  0.50004264  0.49951993  1
  Na  Na67  1  0.49819498  0.50074254  0.75033784  1
  Na  Na68  1  0.49960550  0.83342892  0.00043210  1
  Na  Na69  1  0.49946617  0.83342298  0.25034093  1
  Na  Na70  1  0.50053861  0.83255823  0.49982067  1
  Na  Na71  1  0.50059267  0.83267747  0.75040892  1
  Na  Na72  1  0.25043279  0.16745906  0.12572675  1
  Na  Na73  1  0.24957250  0.16768978  0.37413723  1
  Na  Na74  1  0.25104169  0.16701029  0.62499934  1
  Na  Na75  1  0.25246295  0.16666794  0.87387258  1
  Na  Na76  1  0.24747509  0.50076535  0.12390903  1
  Na  Na77  1  0.24799534  0.50047462  0.37580275  1
  Na  Na78  1  0.24948327  0.50038680  0.62615970  1
  Na  Na79  1  0.24898753  0.50001324  0.87500314  1
  Na  Na80  1  0.25003533  0.83276416  0.12522734  1
  Na  Na81  1  0.24942734  0.83287898  0.37501499  1
  Na  Na82  1  0.25015707  0.83259524  0.62503148  1
  Na  Na83  1  0.24879820  0.83372672  0.87535393  1
  Na  Na84  1  0.74935075  0.16681403  0.12559334  1
  Na  Na85  1  0.75015558  0.16605421  0.37572494  1
  Na  Na86  1  0.74832874  0.16728956  0.62492370  1
  Na  Na87  1  0.74912813  0.16697403  0.87517843  1
  Na  Na88  1  0.75109050  0.49990525  0.12625914  1
  Na  Na89  1  0.74968640  0.50018250  0.37559864  1
  Na  Na90  1  0.74941247  0.49988183  0.62393214  1
  Na  Na91  1  0.75156260  0.49949478  0.87374305  1
  Na  Na92  1  0.75154530  0.83284986  0.12492842  1
  Na  Na93  1  0.75138309  0.83285647  0.37674563  1
  Na  Na94  1  0.74972145  0.83347309  0.62367697  1
  Na  Na95  1  0.75042471  0.83291272  0.87374504  1
  Mn  Mn96  1  0.64090704  0.25014559  0.49741971  1
  Mn  Mn97  1  0.89281118  0.25048748  0.62717359  1
  Mn  Mn98  1  0.35702019  0.41618516  0.00216882  1
  Mn  Mn99  1  0.35767286  0.41690543  0.50240279  1
  Mn  Mn100  1  0.64182272  0.25002478  0.24835930  1
  Mn  Mn101  1  0.10810741  0.41656713  0.37245268  1
  Mn  Mn102  1  0.39192320  0.58276598  0.12798569  1
  Mn  Mn103  1  0.60832833  0.74977488  0.87258947  1
  Mn  Mn104  1  0.64252232  0.91607849  0.99734224  1
  Mn  Mn105  1  0.14141541  0.91653529  0.24771692  1
  Mn  Mn106  1  0.60873967  0.74989200  0.12314515  1
  Mn  Mn107  1  0.14143851  0.58321270  0.99720670  1
  Mn  Mn108  1  0.39247066  0.91715096  0.87685620  1
  Mn  Mn109  1  0.64179758  0.58329856  0.49824432  1
  Mn  Mn110  1  0.39250391  0.91746781  0.37707163  1
  Mn  Mn111  1  0.10743996  0.74989382  0.62342758  1
  Mn  Mn112  1  0.60810786  0.74977766  0.37165251  1
  Mn  Mn113  1  0.39260945  0.91709299  0.12767055  1
  Mn  Mn114  1  0.85794573  0.41620283  0.75119813  1
  Mn  Mn115  1  0.64224135  0.91628163  0.49783108  1
  Mn  Mn116  1  0.10799297  0.08338610  0.12159993  1
  Mn  Mn117  1  0.35738422  0.75085667  0.00218753  1
  Mn  Mn118  1  0.14148786  0.91711763  0.49724515  1
  Mn  Mn119  1  0.10817062  0.08364406  0.62248160  1
  Mn  Mn120  1  0.85828451  0.41664234  0.25312952  1
  Mn  Mn121  1  0.64173555  0.58334329  0.74712807  1
  Mn  Mn122  1  0.85813209  0.41613449  0.50250237  1
  Mn  Mn123  1  0.14206783  0.91778879  0.99767329  1
  Mn  Mn124  1  0.35703872  0.41776066  0.25174719  1
  Mn  Mn125  1  0.89172124  0.91743485  0.87681097  1
  Mn  Mn126  1  0.85725354  0.08292561  0.25291398  1
  Mn  Mn127  1  0.35859998  0.08249662  0.75257901  1
  Mn  Mn128  1  0.39186115  0.58266742  0.37644136  1
  Mn  Mn129  1  0.89240925  0.25050010  0.12716677  1
  Mn  Mn130  1  0.60851474  0.41600000  0.12215622  1
  Mn  Mn131  1  0.35707313  0.75023410  0.50212870  1
  Mn  Mn132  1  0.60784718  0.41693196  0.87274243  1
  Mn  Mn133  1  0.89293785  0.58226355  0.87661098  1
  Mn  Mn134  1  0.14303966  0.24966384  0.74824267  1
  Mn  Mn135  1  0.85653765  0.08345669  0.75201899  1
  Mn  Mn136  1  0.39258697  0.91631806  0.62755474  1
  Mn  Mn137  1  0.10676054  0.74984711  0.12296145  1
  Mn  Mn138  1  0.89099135  0.91654873  0.12735726  1
  Mn  Mn139  1  0.64361887  0.58296256  0.99780312  1
  Mn  Mn140  1  0.35810439  0.08313842  0.25278901  1
  Mn  Mn141  1  0.10758832  0.08339707  0.87333380  1
  Mn  Mn142  1  0.85859729  0.74989472  0.50242162  1
  Mn  Mn143  1  0.85809409  0.08372986  0.50195794  1
  Fe  Fe144  1  0.89278077  0.58245067  0.12716428  1
  Fe  Fe145  1  0.85606480  0.08382342  0.00135514  1
  Fe  Fe146  1  0.60666647  0.08382456  0.62306232  1
  Fe  Fe147  1  0.14371449  0.24971511  0.49811289  1
  Fe  Fe148  1  0.64196096  0.25015146  0.74827553  1
  Fe  Fe149  1  0.35750299  0.08318539  0.50095027  1
  Fe  Fe150  1  0.64316443  0.91543360  0.24900625  1
  Fe  Fe151  1  0.89373112  0.58297033  0.62670402  1
  Fe  Fe152  1  0.10640697  0.75068475  0.37287142  1
  Fe  Fe153  1  0.39197195  0.58328486  0.87679554  1
  Fe  Fe154  1  0.14347082  0.24916540  0.99775063  1
  Fe  Fe155  1  0.39168231  0.58334308  0.62644231  1
  Fe  Fe156  1  0.14224888  0.58321062  0.49853688  1
  Fe  Fe157  1  0.14237366  0.91623577  0.74846023  1
  Fe  Fe158  1  0.64255672  0.91599282  0.74762781  1
  Fe  Fe159  1  0.85829497  0.41599406  0.00159956  1
  Fe  Fe160  1  0.60747366  0.08408033  0.12277578  1
  Fe  Fe161  1  0.35718711  0.74985347  0.75183214  1
  Fe  Fe162  1  0.85701647  0.75007444  0.75086282  1
  Fe  Fe163  1  0.64294894  0.25072824  0.99834696  1
  Fe  Fe164  1  0.14160900  0.58330659  0.24811279  1
  Fe  Fe165  1  0.35839333  0.08337496  0.00132720  1
  Fe  Fe166  1  0.85835188  0.74986281  0.00112172  1
  Fe  Fe167  1  0.60765590  0.08352275  0.87357512  1
  Fe  Fe168  1  0.60684665  0.74899610  0.62403404  1
  Fe  Fe169  1  0.39283370  0.25073569  0.62682557  1
  Fe  Fe170  1  0.60705122  0.41617896  0.37333555  1
  Fe  Fe171  1  0.85749162  0.75024908  0.25250641  1
  Fe  Fe172  1  0.64398668  0.58405775  0.24850955  1
  Fe  Fe173  1  0.89195587  0.25037334  0.87710197  1
  Fe  Fe174  1  0.89249541  0.91745414  0.37619547  1
  Fe  Fe175  1  0.10707003  0.41670366  0.12310944  1
  Fe  Fe176  1  0.39296756  0.24999370  0.12620491  1
  Fe  Fe177  1  0.89387029  0.24970425  0.37660562  1
  Fe  Fe178  1  0.10720029  0.41644034  0.87320819  1
  Fe  Fe179  1  0.10856188  0.41652682  0.62374903  1
  Fe  Fe180  1  0.10757459  0.08280056  0.37376426  1
  Fe  Fe181  1  0.89238938  0.91659976  0.62767390  1
  Fe  Fe182  1  0.10707558  0.74965870  0.87272113  1
  Fe  Fe183  1  0.39220908  0.25011983  0.37638655  1
  Fe  Fe184  1  0.60672926  0.08417002  0.37365206  1
  Fe  Fe185  1  0.14299133  0.25053007  0.24807561  1
  Fe  Fe186  1  0.60593689  0.41750587  0.62398941  1
  Fe  Fe187  1  0.35727581  0.41756844  0.75184411  1
  Fe  Fe188  1  0.89347355  0.58285089  0.37681677  1
  Fe  Fe189  1  0.39359349  0.24978736  0.87729128  1
  Fe  Fe190  1  0.35664621  0.74945826  0.25155617  1
  Fe  Fe191  1  0.14339665  0.58370191  0.74833375  1
  P  P192  1  0.05568063  0.25083896  0.11032039  1
  P  P193  1  0.05478466  0.24899509  0.36045661  1
  P  P194  1  0.05497623  0.25086055  0.60957098  1
  P  P195  1  0.05331969  0.25031946  0.86151732  1
  P  P196  1  0.05306369  0.58278660  0.11105305  1
  P  P197  1  0.05398690  0.58412782  0.36071568  1
  P  P198  1  0.05474689  0.58266174  0.61104637  1
  P  P199  1  0.05433383  0.58304799  0.85941602  1
  P  P200  1  0.05234306  0.91653439  0.10932497  1
  P  P201  1  0.05165325  0.91678114  0.35987982  1
  P  P202  1  0.05307412  0.91641369  0.61130973  1
  P  P203  1  0.05367580  0.91616254  0.85938121  1
  P  P204  1  0.55326706  0.24969303  0.10905990  1
  P  P205  1  0.55148504  0.25013587  0.36022603  1
  P  P206  1  0.55317122  0.25088627  0.61180236  1
  P  P207  1  0.55441610  0.24953782  0.86081377  1
  P  P208  1  0.55496688  0.58351977  0.11074856  1
  P  P209  1  0.55408821  0.58234533  0.35903959  1
  P  P210  1  0.55127653  0.58358575  0.61032882  1
  P  P211  1  0.55208831  0.58333965  0.86017617  1
  P  P212  1  0.55531512  0.91689948  0.11138433  1
  P  P213  1  0.55405940  0.91763278  0.35941903  1
  P  P214  1  0.55487255  0.91576067  0.61138697  1
  P  P215  1  0.55437640  0.91740495  0.85936219  1
  P  P216  1  0.44673917  0.08453390  0.13860236  1
  P  P217  1  0.44735540  0.08416843  0.39055827  1
  P  P218  1  0.44642052  0.08386999  0.63865442  1
  P  P219  1  0.44794170  0.08372416  0.89036860  1
  P  P220  1  0.44665183  0.41546418  0.13960199  1
  P  P221  1  0.44733892  0.41614408  0.38959182  1
  P  P222  1  0.44633345  0.41716796  0.64057870  1
  P  P223  1  0.44502814  0.41699892  0.88872366  1
  P  P224  1  0.44607106  0.74992585  0.14104960  1
  P  P225  1  0.44529832  0.74971745  0.38871493  1
  P  P226  1  0.44665719  0.74922176  0.64048159  1
  P  P227  1  0.44544928  0.74960407  0.88912165  1
  P  P228  1  0.94499365  0.08374452  0.13888344  1
  P  P229  1  0.94811430  0.08381698  0.38968726  1
  P  P230  1  0.94669183  0.08324960  0.64038054  1
  P  P231  1  0.94529570  0.08468217  0.89059823  1
  P  P232  1  0.94678015  0.41687861  0.13918620  1
  P  P233  1  0.94713741  0.41621408  0.38999247  1
  P  P234  1  0.94889184  0.41717127  0.63983672  1
  P  P235  1  0.94728874  0.41550817  0.89034185  1
  P  P236  1  0.94398697  0.74897469  0.13946132  1
  P  P237  1  0.94628149  0.75002209  0.38865443  1
  P  P238  1  0.94592080  0.74966921  0.64056904  1
  P  P239  1  0.94606728  0.74984420  0.88864999  1
  P  P240  1  0.19521521  0.08420951  0.23612833  1
  P  P241  1  0.19761600  0.08437993  0.48437387  1
  P  P242  1  0.19696164  0.08278029  0.73504466  1
  P  P243  1  0.19870480  0.08470221  0.98468190  1
  P  P244  1  0.19548353  0.41679766  0.23421227  1
  P  P245  1  0.19547589  0.41651344  0.48672051  1
  P  P246  1  0.19621483  0.41709698  0.73616320  1
  P  P247  1  0.19433497  0.41546735  0.98528490  1
  P  P248  1  0.19564523  0.74925515  0.23606090  1
  P  P249  1  0.19500842  0.74931240  0.48459019  1
  P  P250  1  0.19639888  0.74985113  0.73648978  1
  P  P251  1  0.19535372  0.75007376  0.98413168  1
  P  P252  1  0.69429342  0.08267199  0.23610301  1
  P  P253  1  0.69436062  0.08356459  0.48553905  1
  P  P254  1  0.69389883  0.08379177  0.73552326  1
  P  P255  1  0.69557817  0.08452775  0.98564902  1
  P  P256  1  0.69568833  0.41714809  0.23669012  1
  P  P257  1  0.69425758  0.41688970  0.48558514  1
  P  P258  1  0.69583017  0.41585420  0.73384257  1
  P  P259  1  0.69872996  0.41621464  0.98486126  1
  P  P260  1  0.69873423  0.74968799  0.23549452  1
  P  P261  1  0.69550361  0.74936793  0.48613853  1
  P  P262  1  0.69729363  0.75007439  0.73378213  1
  P  P263  1  0.69909000  0.74921889  0.98465702  1
  P  P264  1  0.30456134  0.24892025  0.01424673  1
  P  P265  1  0.30394578  0.25070456  0.26422909  1
  P  P266  1  0.30463276  0.24928513  0.51423859  1
  P  P267  1  0.30628301  0.25111408  0.76439844  1
  P  P268  1  0.30389035  0.58330355  0.01400061  1
  P  P269  1  0.30094423  0.58367295  0.26500097  1
  P  P270  1  0.30212874  0.58336244  0.51565253  1
  P  P271  1  0.30423955  0.58329126  0.76426368  1
  P  P272  1  0.30342661  0.91796700  0.01534325  1
  P  P273  1  0.30303875  0.91578847  0.26522493  1
  P  P274  1  0.30305262  0.91758906  0.51491090  1
  P  P275  1  0.30216195  0.91558863  0.76497329  1
  P  P276  1  0.80331547  0.25018580  0.01403286  1
  P  P277  1  0.80386043  0.24990414  0.26650020  1
  P  P278  1  0.80420342  0.24969961  0.51412913  1
  P  P279  1  0.80226896  0.25014904  0.76520214  1
  P  P280  1  0.80526546  0.58231992  0.01528996  1
  P  P281  1  0.80467629  0.58380847  0.26511822  1
  P  P282  1  0.80577078  0.58287271  0.51468627  1
  P  P283  1  0.80478765  0.58349482  0.76289447  1
  P  P284  1  0.80322787  0.91726400  0.01443511  1
  P  P285  1  0.80245265  0.91619944  0.26615922  1
  P  P286  1  0.80569207  0.91719098  0.51474402  1
  P  P287  1  0.80283499  0.91617045  0.76319597  1
  O  O288  1  0.05967460  0.24996090  0.18711862  1
  O  O289  1  0.05955964  0.24958724  0.43714144  1
  O  O290  1  0.05772166  0.25001303  0.68642159  1
  O  O291  1  0.05834109  0.24917413  0.93812219  1
  O  O292  1  0.05754409  0.58348419  0.18778683  1
  O  O293  1  0.05847321  0.58351900  0.43742590  1
  O  O294  1  0.05958722  0.58329832  0.68774496  1
  O  O295  1  0.05606311  0.58346158  0.93626607  1
  O  O296  1  0.05579927  0.91690579  0.18612601  1
  O  O297  1  0.05509191  0.91662359  0.43664362  1
  O  O298  1  0.05855524  0.91655430  0.68793783  1
  O  O299  1  0.05651381  0.91682464  0.93618493  1
  O  O300  1  0.55676019  0.25049820  0.18572026  1
  O  O301  1  0.55458279  0.25028707  0.43702197  1
  O  O302  1  0.55735486  0.25055013  0.68845683  1
  O  O303  1  0.55927200  0.25055987  0.93749257  1
  O  O304  1  0.56015992  0.58382785  0.18743102  1
  O  O305  1  0.55657282  0.58371949  0.43588489  1
  O  O306  1  0.55481480  0.58374111  0.68700880  1
  O  O307  1  0.55662215  0.58336619  0.93684002  1
  O  O308  1  0.55955919  0.91567699  0.18808525  1
  O  O309  1  0.55668139  0.91610454  0.43627162  1
  O  O310  1  0.55865136  0.91571236  0.68818140  1
  O  O311  1  0.55708157  0.91623634  0.93624993  1
  O  O312  1  0.44216531  0.08356212  0.06194140  1
  O  O313  1  0.44410543  0.08340708  0.31378226  1
  O  O314  1  0.44152325  0.08296088  0.56203738  1
  O  O315  1  0.44438483  0.08303284  0.81360353  1
  O  O316  1  0.44306599  0.41648129  0.06285227  1
  O  O317  1  0.44353484  0.41684919  0.31295182  1
  O  O318  1  0.44327959  0.41721808  0.56373418  1
  O  O319  1  0.44127958  0.41731622  0.81199145  1
  O  O320  1  0.44269398  0.75001889  0.06420828  1
  O  O321  1  0.44027447  0.74942180  0.31202494  1
  O  O322  1  0.44306410  0.75004795  0.56370715  1
  O  O323  1  0.44089491  0.75026173  0.81235860  1
  O  O324  1  0.93987992  0.08372112  0.06219779  1
  O  O325  1  0.94450003  0.08397223  0.31296908  1
  O  O326  1  0.94387916  0.08368223  0.56360410  1
  O  O327  1  0.94222053  0.08425781  0.81380137  1
  O  O328  1  0.94218802  0.41600387  0.06251949  1
  O  O329  1  0.94456587  0.41619626  0.31316343  1
  O  O330  1  0.94493505  0.41657260  0.56318331  1
  O  O331  1  0.94353718  0.41572471  0.81364978  1
  O  O332  1  0.94052365  0.74998741  0.06257066  1
  O  O333  1  0.94182591  0.75003052  0.31191032  1
  O  O334  1  0.94391047  0.74978433  0.56369284  1
  O  O335  1  0.94098680  0.75007225  0.81201632  1
  O  O336  1  0.19484104  0.08430966  0.06141089  1
  O  O337  1  0.19070506  0.08331804  0.31287002  1
  O  O338  1  0.19415949  0.08362709  0.56112015  1
  O  O339  1  0.19352509  0.08358042  0.81178041  1
  O  O340  1  0.19040124  0.41665117  0.06204759  1
  O  O341  1  0.19323140  0.41668518  0.31113420  1
  O  O342  1  0.19239588  0.41659911  0.56349256  1
  O  O343  1  0.19151953  0.41610582  0.81286494  1
  O  O344  1  0.19209287  0.74972875  0.06096249  1
  O  O345  1  0.19051040  0.75009369  0.31273352  1
  O  O346  1  0.19236127  0.75019743  0.56142261  1
  O  O347  1  0.19172961  0.74991433  0.81312595  1
  O  O348  1  0.69133141  0.08413310  0.06243084  1
  O  O349  1  0.69028735  0.08407869  0.31290915  1
  O  O350  1  0.68971141  0.08412168  0.56233812  1
  O  O351  1  0.69071742  0.08393980  0.81238874  1
  O  O352  1  0.69502384  0.41667899  0.06160580  1
  O  O353  1  0.69129670  0.41604751  0.31343053  1
  O  O354  1  0.68918391  0.41694065  0.56229073  1
  O  O355  1  0.69316781  0.41687490  0.81068077  1
  O  O356  1  0.69510601  0.74922536  0.06132210  1
  O  O357  1  0.69517434  0.74952850  0.31223332  1
  O  O358  1  0.69062959  0.74898804  0.56280434  1
  O  O359  1  0.69392802  0.74922294  0.81056702  1
  O  O360  1  0.30884261  0.25039884  0.18757015  1
  O  O361  1  0.30903885  0.25025821  0.43745731  1
  O  O362  1  0.31011079  0.25034976  0.68752709  1
  O  O363  1  0.30951325  0.24953994  0.93750209  1
  O  O364  1  0.30499164  0.58306954  0.18828469  1
  O  O365  1  0.30613605  0.58304182  0.43897287  1
  O  O366  1  0.30857321  0.58335669  0.68751715  1
  O  O367  1  0.30819369  0.58301641  0.93721856  1
  O  O368  1  0.30643204  0.91660112  0.18844373  1
  O  O369  1  0.30631895  0.91707474  0.43816932  1
  O  O370  1  0.30625608  0.91612410  0.68827065  1
  O  O371  1  0.30644109  0.91730848  0.93855727  1
  O  O372  1  0.80714477  0.25018285  0.18965657  1
  O  O373  1  0.80962844  0.24966533  0.43749902  1
  O  O374  1  0.80644809  0.25024319  0.68848217  1
  O  O375  1  0.80759770  0.25041768  0.93732428  1
  O  O376  1  0.80913783  0.58254214  0.18839676  1
  O  O377  1  0.81038648  0.58274378  0.43790732  1
  O  O378  1  0.80919708  0.58240414  0.68618566  1
  O  O379  1  0.80776880  0.58215528  0.93839017  1
  O  O380  1  0.80574069  0.91720696  0.18940396  1
  O  O381  1  0.81019826  0.91738043  0.43794523  1
  O  O382  1  0.80759658  0.91708229  0.68650605  1
  O  O383  1  0.80564515  0.91742079  0.93758816  1
  O  O384  1  0.23416450  0.24978798  0.03771811  1
  O  O385  1  0.23347246  0.25070068  0.28763472  1
  O  O386  1  0.23432110  0.24996530  0.53811905  1
  O  O387  1  0.23614798  0.25020244  0.78844292  1
  O  O388  1  0.23373561  0.58363042  0.03776764  1
  O  O389  1  0.23087746  0.58302701  0.28947331  1
  O  O390  1  0.23198638  0.58340181  0.53988832  1
  O  O391  1  0.23380338  0.58329109  0.78802042  1
  O  O392  1  0.23383223  0.91746443  0.04086624  1
  O  O393  1  0.23327825  0.91648986  0.29015726  1
  O  O394  1  0.23329510  0.91681008  0.53993458  1
  O  O395  1  0.23210667  0.91628838  0.78944456  1
  O  O396  1  0.73317588  0.25028023  0.03862988  1
  O  O397  1  0.73400621  0.24982635  0.29109036  1
  O  O398  1  0.73385078  0.24982631  0.53728634  1
  O  O399  1  0.73200003  0.24996699  0.78908912  1
  O  O400  1  0.73571747  0.58292877  0.04100052  1
  O  O401  1  0.73439001  0.58337014  0.28910620  1
  O  O402  1  0.73547568  0.58299177  0.53806440  1
  O  O403  1  0.73478570  0.58314344  0.78724952  1
  O  O404  1  0.73375953  0.91678587  0.04031197  1
  O  O405  1  0.73250279  0.91600624  0.29104880  1
  O  O406  1  0.73539645  0.91707143  0.53801162  1
  O  O407  1  0.73250973  0.91634286  0.78701644  1
  O  O408  1  0.26539401  0.08400541  0.21235372  1
  O  O409  1  0.26759864  0.08404578  0.45952036  1
  O  O410  1  0.26679067  0.08324340  0.71022926  1
  O  O411  1  0.26860473  0.08395980  0.95977645  1
  O  O412  1  0.26495022  0.41689879  0.20833379  1
  O  O413  1  0.26522051  0.41655608  0.46138016  1
  O  O414  1  0.26662140  0.41703143  0.71248765  1
  O  O415  1  0.26439507  0.41615879  0.96120962  1
  O  O416  1  0.26593081  0.74950308  0.21217685  1
  O  O417  1  0.26474548  0.74975797  0.45952598  1
  O  O418  1  0.26666365  0.74935103  0.71230320  1
  O  O419  1  0.26520619  0.75017750  0.95953585  1
  O  O420  1  0.76438713  0.08355741  0.21194032  1
  O  O421  1  0.76455061  0.08305647  0.46202238  1
  O  O422  1  0.76382633  0.08373161  0.71068161  1
  O  O423  1  0.76579545  0.08380769  0.96144897  1
  O  O424  1  0.76578957  0.41671840  0.21264783  1
  O  O425  1  0.76458652  0.41686151  0.46240382  1
  O  O426  1  0.76547457  0.41621163  0.70841698  1
  O  O427  1  0.76866422  0.41621840  0.96000499  1
  O  O428  1  0.76874625  0.75009106  0.21076262  1
  O  O429  1  0.76575829  0.74953786  0.46268669  1
  O  O430  1  0.76730860  0.74999412  0.70904739  1
  O  O431  1  0.76918136  0.74943004  0.96014888  1
  O  O432  1  0.01523051  0.08421208  0.16221939  1
  O  O433  1  0.01806929  0.08307552  0.41476962  1
  O  O434  1  0.01632817  0.08415043  0.66577379  1
  O  O435  1  0.01506396  0.08355033  0.91565202  1
  O  O436  1  0.01700523  0.41638224  0.16323645  1
  O  O437  1  0.01680962  0.41681850  0.41526450  1
  O  O438  1  0.01890910  0.41638014  0.66449252  1
  O  O439  1  0.01743103  0.41666817  0.91465329  1
  O  O440  1  0.01394509  0.74987549  0.16388047  1
  O  O441  1  0.01645964  0.74999758  0.41302327  1
  O  O442  1  0.01551675  0.74981048  0.66606547  1
  O  O443  1  0.01649327  0.74924086  0.91215344  1
  O  O444  1  0.51707918  0.08443942  0.16234969  1
  O  O445  1  0.51730150  0.08397528  0.41547661  1
  O  O446  1  0.51684488  0.08405873  0.66226768  1
  O  O447  1  0.51805647  0.08331233  0.91474783  1
  O  O448  1  0.51642718  0.41554146  0.16428083  1
  O  O449  1  0.51726536  0.41657564  0.41451594  1
  O  O450  1  0.51631439  0.41705607  0.66557024  1
  O  O451  1  0.51496190  0.41666831  0.91346407  1
  O  O452  1  0.51599654  0.74985837  0.16551248  1
  O  O453  1  0.51552938  0.74963043  0.41216824  1
  O  O454  1  0.51676450  0.74940120  0.66506278  1
  O  O455  1  0.51550401  0.74989975  0.91338649  1
  O  O456  1  0.48324214  0.24978841  0.08438906  1
  O  O457  1  0.48164486  0.24970498  0.33493254  1
  O  O458  1  0.48285950  0.25091002  0.58762528  1
  O  O459  1  0.48390643  0.25003872  0.83746988  1
  O  O460  1  0.48471215  0.58332215  0.08734866  1
  O  O461  1  0.48438315  0.58265184  0.33369306  1
  O  O462  1  0.48132013  0.58335777  0.58521208  1
  O  O463  1  0.48189114  0.58323867  0.83619646  1
  O  O464  1  0.48533434  0.91684425  0.08701240  1
  O  O465  1  0.48446474  0.91756702  0.33394411  1
  O  O466  1  0.48497981  0.91591907  0.58661169  1
  O  O467  1  0.48473137  0.91742609  0.83400646  1
  O  O468  1  0.98547997  0.25040658  0.08659041  1
  O  O469  1  0.98445628  0.24999902  0.33647854  1
  O  O470  1  0.98526535  0.25014665  0.58444288  1
  O  O471  1  0.98298704  0.25048253  0.83768102  1
  O  O472  1  0.98290665  0.58302179  0.08687706  1
  O  O473  1  0.98357291  0.58303673  0.33700387  1
  O  O474  1  0.98435795  0.58361818  0.58736370  1
  O  O475  1  0.98475819  0.58236991  0.83375352  1
  O  O476  1  0.98261583  0.91588435  0.08453986  1
  O  O477  1  0.98171056  0.91730989  0.33475471  1
  O  O478  1  0.98263208  0.91599663  0.58804369  1
  O  O479  1  0.98382840  0.91738943  0.83451766  1
  O  O480  1  0.08904636  0.31609028  0.07761223  1
  O  O481  1  0.08867873  0.31393548  0.32710381  1
  O  O482  1  0.08902013  0.31612391  0.57755269  1
  O  O483  1  0.08687527  0.31551265  0.82856647  1
  O  O484  1  0.08646558  0.64772685  0.07757232  1
  O  O485  1  0.08670733  0.64939906  0.32728064  1
  O  O486  1  0.08837380  0.64749087  0.57747848  1
  O  O487  1  0.08844888  0.64812992  0.82694084  1
  O  O488  1  0.08601867  0.98178766  0.07664903  1
  O  O489  1  0.08601468  0.98173679  0.32760286  1
  O  O490  1  0.08599089  0.98154940  0.57758805  1
  O  O491  1  0.08857329  0.98084486  0.82694058  1
  O  O492  1  0.58735638  0.31451344  0.07577474  1
  O  O493  1  0.58540031  0.31521746  0.32763007  1
  O  O494  1  0.58632644  0.31615268  0.57872175  1
  O  O495  1  0.58793201  0.31429746  0.82702543  1
  O  O496  1  0.58814698  0.64862008  0.07726655  1
  O  O497  1  0.58879789  0.64701883  0.32614040  1
  O  O498  1  0.58526853  0.64861693  0.57759482  1
  O  O499  1  0.58571754  0.64830453  0.82701694  1
  O  O500  1  0.58873972  0.98241773  0.07898215  1
  O  O501  1  0.58825002  0.98302868  0.32801441  1
  O  O502  1  0.58857252  0.98102601  0.57881860  1
  O  O503  1  0.58876262  0.98263857  0.82776787  1
  O  O504  1  0.41347460  0.01975627  0.17258287  1
  O  O505  1  0.41322676  0.01927015  0.42354701  1
  O  O506  1  0.41370700  0.01871970  0.67263073  1
  O  O507  1  0.41380917  0.01893518  0.92337078  1
  O  O508  1  0.41268899  0.35013129  0.17154689  1
  O  O509  1  0.41361058  0.35096218  0.42220571  1
  O  O510  1  0.41216054  0.35219601  0.67302222  1
  O  O511  1  0.41134288  0.35161804  0.92126325  1
  O  O512  1  0.41175937  0.68494540  0.17362585  1
  O  O513  1  0.41188625  0.68468187  0.42206735  1
  O  O514  1  0.41254611  0.68411327  0.67276247  1
  O  O515  1  0.41188903  0.68438133  0.92180816  1
  O  O516  1  0.91199577  0.01849856  0.17236379  1
  O  O517  1  0.91365197  0.01891467  0.42202456  1
  O  O518  1  0.91288800  0.01792139  0.67270292  1
  O  O519  1  0.91038544  0.01988066  0.92285036  1
  O  O520  1  0.91312073  0.35213677  0.17277477  1
  O  O521  1  0.91342195  0.35086340  0.42233734  1
  O  O522  1  0.91472414  0.35230646  0.67277551  1
  O  O523  1  0.91374410  0.35045852  0.92353748  1
  O  O524  1  0.91084605  0.68349856  0.17206322  1
  O  O525  1  0.91300166  0.68483597  0.42183734  1
  O  O526  1  0.91170075  0.68445673  0.67257394  1
  O  O527  1  0.91248956  0.68489239  0.92196518  1
  O  O528  1  0.16168660  0.01931054  0.20256308  1
  O  O529  1  0.16317961  0.01952287  0.45158214  1
  O  O530  1  0.16309315  0.01758714  0.70268326  1
  O  O531  1  0.16419854  0.01982594  0.95227847  1
  O  O532  1  0.16112965  0.35163944  0.20220478  1
  O  O533  1  0.16178321  0.35135089  0.45390112  1
  O  O534  1  0.16285368  0.35220631  0.70241702  1
  O  O535  1  0.16125251  0.34997442  0.95253636  1
  O  O536  1  0.16240263  0.68399535  0.20295664  1
  O  O537  1  0.16102640  0.68393610  0.45272169  1
  O  O538  1  0.16288346  0.68474304  0.70333863  1
  O  O539  1  0.16129445  0.68511362  0.95133686  1
  O  O540  1  0.66122920  0.01707009  0.20365552  1
  O  O541  1  0.66057918  0.01865982  0.45262298  1
  O  O542  1  0.65999964  0.01872756  0.70279479  1
  O  O543  1  0.66164503  0.01974973  0.95233121  1
  O  O544  1  0.66221550  0.35216568  0.20315614  1
  O  O545  1  0.66077870  0.35187769  0.45208262  1
  O  O546  1  0.66158934  0.35053622  0.70213328  1
  O  O547  1  0.66441511  0.35123976  0.95251838  1
  O  O548  1  0.66528969  0.68448871  0.20256308  1
  O  O549  1  0.66235529  0.68439323  0.45261396  1
  O  O550  1  0.66322397  0.68510026  0.70082594  1
  O  O551  1  0.66551148  0.68420524  0.95159016  1
  O  O552  1  0.33814807  0.31377690  0.04787328  1
  O  O553  1  0.33707988  0.31578250  0.29775127  1
  O  O554  1  0.33837666  0.31412670  0.54788029  1
  O  O555  1  0.33929870  0.31649109  0.79721077  1
  O  O556  1  0.33749454  0.64825284  0.04702056  1
  O  O557  1  0.33461286  0.64870186  0.29775728  1
  O  O558  1  0.33602415  0.64836167  0.54848164  1
  O  O559  1  0.33774120  0.64826104  0.79758907  1
  O  O560  1  0.33749398  0.98330933  0.04734389  1
  O  O561  1  0.33733313  0.98088165  0.29765250  1
  O  O562  1  0.33681075  0.98297723  0.54713877  1
  O  O563  1  0.33626939  0.98058358  0.79777467  1
  O  O564  1  0.83704396  0.31520423  0.04723078  1
  O  O565  1  0.83817213  0.31476778  0.29912613  1
  O  O566  1  0.83728647  0.31478120  0.54775160  1
  O  O567  1  0.83608039  0.31522065  0.79810471  1
  O  O568  1  0.84002532  0.64729179  0.04718913  1
  O  O569  1  0.83802318  0.64914925  0.29785644  1
  O  O570  1  0.83938472  0.64788057  0.54776101  1
  O  O571  1  0.83822033  0.64885881  0.79551107  1
  O  O572  1  0.83694359  0.98255667  0.04691642  1
  O  O573  1  0.83624281  0.98131508  0.29916126  1
  O  O574  1  0.83905889  0.98207670  0.54823596  1
  O  O575  1  0.83596729  0.98112531  0.79697710  1
  O  O576  1  0.41344631  0.14981787  0.17152409  1
  O  O577  1  0.41309303  0.14922480  0.42276905  1
  O  O578  1  0.41313595  0.14893181  0.67172728  1
  O  O579  1  0.41415632  0.14893937  0.92286276  1
  O  O580  1  0.41269342  0.48036375  0.17278108  1
  O  O581  1  0.41320622  0.48105893  0.42255220  1
  O  O582  1  0.41217337  0.48223720  0.67296830  1
  O  O583  1  0.41135300  0.48198330  0.92179849  1
  O  O584  1  0.41191009  0.81490566  0.17358184  1
  O  O585  1  0.41223321  0.81493467  0.42208832  1
  O  O586  1  0.41260800  0.81406526  0.67367983  1
  O  O587  1  0.41209719  0.81487864  0.92222888  1
  O  O588  1  0.91154894  0.14862131  0.17233159  1
  O  O589  1  0.91469708  0.14912409  0.42256368  1
  O  O590  1  0.91210184  0.14815889  0.67265143  1
  O  O591  1  0.91155813  0.14996677  0.92306485  1
  O  O592  1  0.91368632  0.48221381  0.17226518  1
  O  O593  1  0.91278625  0.48123226  0.42212377  1
  O  O594  1  0.91546042  0.48240579  0.67256907  1
  O  O595  1  0.91296606  0.48037286  0.92307559  1
  O  O596  1  0.90959632  0.81357527  0.17275316  1
  O  O597  1  0.91280487  0.81516894  0.42162372  1
  O  O598  1  0.91127393  0.81456018  0.67280808  1
  O  O599  1  0.91299297  0.81497674  0.92220654  1
  O  O600  1  0.08951061  0.18612318  0.07661317  1
  O  O601  1  0.08777442  0.18375500  0.32728515  1
  O  O602  1  0.08967082  0.18616482  0.57682599  1
  O  O603  1  0.08660237  0.18543673  0.82764628  1
  O  O604  1  0.08651731  0.51762502  0.07814632  1
  O  O605  1  0.08792754  0.51933084  0.32732649  1
  O  O606  1  0.08777257  0.51742071  0.57780606  1
  O  O607  1  0.08916758  0.51801416  0.82771579  1
  O  O608  1  0.08670687  0.85156747  0.07726615  1
  O  O609  1  0.08513959  0.85149487  0.32710587  1
  O  O610  1  0.08634735  0.85145080  0.57784881  1
  O  O611  1  0.08708901  0.85067836  0.82693277  1
  O  O612  1  0.58752927  0.18466764  0.07670677  1
  O  O613  1  0.58573769  0.18513347  0.32791223  1
  O  O614  1  0.58654221  0.18599077  0.57819305  1
  O  O615  1  0.58728353  0.18417581  0.82772329  1
  O  O616  1  0.58824143  0.51829804  0.07749320  1
  O  O617  1  0.58825488  0.51695280  0.32748462  1
  O  O618  1  0.58535652  0.51841565  0.57798244  1
  O  O619  1  0.58575575  0.51831711  0.82718783  1
  O  O620  1  0.58882183  0.85199324  0.07773946  1
  O  O621  1  0.58862215  0.85286587  0.32649611  1
  O  O622  1  0.58833767  0.85048241  0.57856829  1
  O  O623  1  0.58884130  0.85246245  0.82676701  1
  O  O624  1  0.33769410  0.18375340  0.04752658  1
  O  O625  1  0.33736870  0.18579938  0.29788966  1
  O  O626  1  0.33794518  0.18400341  0.54705283  1
  O  O627  1  0.34050733  0.18638349  0.79758179  1
  O  O628  1  0.33698127  0.51810947  0.04734872  1
  O  O629  1  0.33477293  0.51859288  0.29796248  1
  O  O630  1  0.33605393  0.51840986  0.54869411  1
  O  O631  1  0.33747666  0.51814325  0.79761378  1
  O  O632  1  0.33773674  0.85296382  0.04776750  1
  O  O633  1  0.33669575  0.85052840  0.29750792  1
  O  O634  1  0.33739895  0.85265219  0.54749065  1
  O  O635  1  0.33569285  0.85046773  0.79770481  1
  O  O636  1  0.83658635  0.18494449  0.04711365  1
  O  O637  1  0.83806279  0.18486422  0.29894730  1
  O  O638  1  0.83721754  0.18465169  0.54768444  1
  O  O639  1  0.83611578  0.18528078  0.79828690  1
  O  O640  1  0.83921618  0.51702197  0.04776497  1
  O  O641  1  0.83845111  0.51907750  0.29881568  1
  O  O642  1  0.83931167  0.51801084  0.54816549  1
  O  O643  1  0.83851143  0.51861442  0.79633570  1
  O  O644  1  0.83772245  0.85209435  0.04621860  1
  O  O645  1  0.83695339  0.85130902  0.29837325  1
  O  O646  1  0.83911771  0.85203461  0.54784303  1
  O  O647  1  0.83629654  0.85099155  0.79604733  1
  O  O648  1  0.16209762  0.14956789  0.20325047  1
  O  O649  1  0.16370076  0.14957245  0.45202289  1
  O  O650  1  0.16312338  0.14797270  0.70242002  1
  O  O651  1  0.16504649  0.14984229  0.95184980  1
  O  O652  1  0.16074929  0.48181979  0.20225940  1
  O  O653  1  0.16150907  0.48160317  0.45405282  1
  O  O654  1  0.16273345  0.48224262  0.70315829  1
  O  O655  1  0.16023705  0.48010378  0.95183070  1
  O  O656  1  0.16225218  0.81421262  0.20248573  1
  O  O657  1  0.16041887  0.81407259  0.45179585  1
  O  O658  1  0.16319390  0.81494979  0.70304056  1
  O  O659  1  0.16113512  0.81509289  0.95178506  1
  O  O660  1  0.66019520  0.14731455  0.20245997  1
  O  O661  1  0.66096701  0.14853013  0.45195820  1
  O  O662  1  0.66016113  0.14901539  0.70270291  1
  O  O663  1  0.66235628  0.14977527  0.95258957  1
  O  O664  1  0.66257577  0.48254849  0.20387293  1
  O  O665  1  0.66090269  0.48183286  0.45218096  1
  O  O666  1  0.66115857  0.48067122  0.70122492  1
  O  O667  1  0.66490324  0.48124361  0.95188487  1
  O  O668  1  0.66473928  0.81475010  0.20292321  1
  O  O669  1  0.66231732  0.81450457  0.45286696  1
  O  O670  1  0.66305527  0.81506045  0.70150251  1
  O  O671  1  0.66514817  0.81423857  0.95193140  1
