# generated using pymatgen
data_Na2MnFe(PO4)2
_symmetry_space_group_name_H-M   'P 1'
_cell_length_a   21.08461947
_cell_length_b   18.93660552
_cell_length_c   20.04356891
_cell_angle_alpha   89.99923824
_cell_angle_beta   89.99361972
_cell_angle_gamma   90.00064984
_symmetry_Int_Tables_number   1
_chemical_formula_structural   Na2MnFe(PO4)2
_chemical_formula_sum   'Na96 Mn48 Fe48 P96 O384'
_cell_volume   8002.81818829
_cell_formula_units_Z   48
loop_
 _symmetry_equiv_pos_site_id
 _symmetry_equiv_pos_as_xyz
  1  'x, y, z'
loop_
 _atom_site_type_symbol
 _atom_site_label
 _atom_site_symmetry_multiplicity
 _atom_site_fract_x
 _atom_site_fract_y
 _atom_site_fract_z
 _atom_site_occupancy
  Na  Na0  1  -0.00085883  -0.00042504  0.00041119  1
  Na  Na1  1  0.00044671  0.00035876  0.24940629  1
  Na  Na2  1  0.00159206  0.00071914  0.49910639  1
  Na  Na3  1  -0.00142009  -0.00067645  0.75091510  1
  Na  Na4  1  0.00047134  0.33304992  -0.00024138  1
  Na  Na5  1  0.00121496  0.33387403  0.25096795  1
  Na  Na6  1  -0.00043057  0.33267323  0.50079216  1
  Na  Na7  1  0.00117800  0.33372966  0.74838097  1
  Na  Na8  1  -0.00096369  0.66658067  0.00003313  1
  Na  Na9  1  -0.00038824  0.66704505  0.25095881  1
  Na  Na10  1  0.00096471  0.66764868  0.49953628  1
  Na  Na11  1  0.00015683  0.66696144  0.74921167  1
  Na  Na12  1  0.50155149  -0.00001093  -0.00005652  1
  Na  Na13  1  0.50071679  -0.00036584  0.25049228  1
  Na  Na14  1  0.50106936  0.00033186  0.49933986  1
  Na  Na15  1  0.50006967  -0.00076983  0.75045050  1
  Na  Na16  1  0.50018149  0.33306255  0.00106295  1
  Na  Na17  1  0.49953882  0.33304779  0.24961443  1
  Na  Na18  1  0.49970974  0.33283332  0.49983371  1
  Na  Na19  1  0.50140820  0.33370154  0.75008126  1
  Na  Na20  1  0.49874845  0.66666141  -0.00023318  1
  Na  Na21  1  0.49900262  0.66591059  0.25006178  1
  Na  Na22  1  0.50120805  0.66707647  0.49951769  1
  Na  Na23  1  0.49859702  0.66644359  0.75022508  1
  Na  Na24  1  0.24886651  -0.00071160  0.12516776  1
  Na  Na25  1  0.24866789  -0.00041218  0.37414727  1
  Na  Na26  1  0.25109280  -0.00023947  0.62475767  1
  Na  Na27  1  0.25113683  -0.00038787  0.87529886  1
  Na  Na28  1  0.25001273  0.33385189  0.12527797  1
  Na  Na29  1  0.24977003  0.33321305  0.37502064  1
  Na  Na30  1  0.24957496  0.33298037  0.62515880  1
  Na  Na31  1  0.24872399  0.33303762  0.87506856  1
  Na  Na32  1  0.24990258  0.66711417  0.12533001  1
  Na  Na33  1  0.24832000  0.66653164  0.37408325  1
  Na  Na34  1  0.24877867  0.66641968  0.62487842  1
  Na  Na35  1  0.25310999  0.66865580  0.87617793  1
  Na  Na36  1  0.75059944  0.00021743  0.12544742  1
  Na  Na37  1  0.74875249  -0.00016123  0.37448703  1
  Na  Na38  1  0.74743405  -0.00061971  0.62551070  1
  Na  Na39  1  0.75074033  0.00066625  0.87538869  1
  Na  Na40  1  0.74935728  0.33256322  0.12477321  1
  Na  Na41  1  0.75055934  0.33349521  0.37576226  1
  Na  Na42  1  0.74946912  0.33296154  0.62378641  1
  Na  Na43  1  0.74903448  0.33283639  0.87528484  1
  Na  Na44  1  0.75084874  0.66676064  0.12418714  1
  Na  Na45  1  0.75231484  0.66734635  0.37508418  1
  Na  Na46  1  0.74945073  0.66627692  0.62524720  1
  Na  Na47  1  0.74862028  0.66611845  0.87500004  1
  Na  Na48  1  -0.00226870  0.16686431  0.00020399  1
  Na  Na49  1  -0.00036019  0.16629731  0.25018593  1
  Na  Na50  1  0.00140864  0.16619872  0.49991399  1
  Na  Na51  1  -0.00001863  0.16668129  0.74949762  1
  Na  Na52  1  0.00226753  0.49888996  -0.00009041  1
  Na  Na53  1  -0.00020644  0.50040634  0.25089051  1
  Na  Na54  1  0.00006188  0.49988079  0.50051807  1
  Na  Na55  1  -0.00011782  0.50001308  0.74872192  1
  Na  Na56  1  -0.00017304  0.83392172  0.00039895  1
  Na  Na57  1  0.00111935  0.83323608  0.25002060  1
  Na  Na58  1  0.00130338  0.83248642  0.49915267  1
  Na  Na59  1  -0.00030314  0.83366543  0.75006281  1
  Na  Na60  1  0.50216146  0.16606419  0.00068839  1
  Na  Na61  1  0.50197020  0.16583493  0.24951567  1
  Na  Na62  1  0.50097228  0.16683085  0.50016683  1
  Na  Na63  1  0.50251728  0.16584581  0.74973654  1
  Na  Na64  1  0.49855358  0.50079416  0.00036829  1
  Na  Na65  1  0.49970884  0.50029182  0.25076347  1
  Na  Na66  1  0.50317342  0.49833005  0.49861756  1
  Na  Na67  1  0.49956023  0.50077336  0.75024017  1
  Na  Na68  1  0.49985152  0.83325869  -0.00036950  1
  Na  Na69  1  0.49836422  0.83425513  0.24991920  1
  Na  Na70  1  0.49796042  0.83420023  0.49998746  1
  Na  Na71  1  0.49816209  0.83384136  0.75076081  1
  Na  Na72  1  0.24813946  0.16661274  0.12547190  1
  Na  Na73  1  0.24980740  0.16714512  0.37469323  1
  Na  Na74  1  0.24927011  0.16773972  0.62441112  1
  Na  Na75  1  0.24889470  0.16677902  0.87536190  1
  Na  Na76  1  0.25092362  0.49938217  0.12461846  1
  Na  Na77  1  0.24781491  0.50035372  0.37377248  1
  Na  Na78  1  0.24837200  0.50030948  0.62606426  1
  Na  Na79  1  0.25039903  0.50003561  0.87590108  1
  Na  Na80  1  0.24998764  0.83382762  0.12566336  1
  Na  Na81  1  0.24853457  0.83413652  0.37486114  1
  Na  Na82  1  0.25193956  0.83309454  0.62413300  1
  Na  Na83  1  0.25258897  0.83336555  0.87538673  1
  Na  Na84  1  0.75002190  0.16603540  0.12461312  1
  Na  Na85  1  0.74928822  0.16609363  0.37609939  1
  Na  Na86  1  0.74810797  0.16693984  0.62419470  1
  Na  Na87  1  0.74944797  0.16626044  0.87578959  1
  Na  Na88  1  0.74908685  0.50078232  0.12562737  1
  Na  Na89  1  0.75001959  0.49999618  0.37515559  1
  Na  Na90  1  0.74866569  0.50044818  0.62400806  1
  Na  Na91  1  0.75037168  0.49961748  0.87470849  1
  Na  Na92  1  0.75132151  0.83339511  0.12424278  1
  Na  Na93  1  0.75157495  0.83333352  0.37406954  1
  Na  Na94  1  0.74983519  0.83287495  0.62608859  1
  Na  Na95  1  0.74866983  0.83393089  0.87516418  1
  Mn  Mn96  1  0.64137635  0.58248210  0.74776284  1
  Mn  Mn97  1  0.60728412  0.74991120  0.62227202  1
  Mn  Mn98  1  0.64314883  0.58355525  0.24786941  1
  Mn  Mn99  1  0.35794965  0.41701349  0.75216981  1
  Mn  Mn100  1  0.39205520  0.58297413  0.62638096  1
  Mn  Mn101  1  0.64253264  0.25003852  0.99760420  1
  Mn  Mn102  1  0.85727526  0.08261329  0.50200359  1
  Mn  Mn103  1  0.35698556  0.74995498  0.25223233  1
  Mn  Mn104  1  0.14119605  0.24928377  0.99753622  1
  Mn  Mn105  1  0.39257242  0.24949713  0.12760961  1
  Mn  Mn106  1  0.85734881  0.41618846  0.75209725  1
  Mn  Mn107  1  0.10861321  0.08254110  0.62292502  1
  Mn  Mn108  1  0.85836649  0.41669385  0.00195771  1
  Mn  Mn109  1  0.35738664  0.41664088  0.00224643  1
  Mn  Mn110  1  0.10690558  0.08373820  0.87280483  1
  Mn  Mn111  1  0.89249246  0.58363451  0.12684838  1
  Mn  Mn112  1  0.85692280  0.08359735  0.75191100  1
  Mn  Mn113  1  0.35764648  0.08384817  0.25206149  1
  Mn  Mn114  1  0.35803935  0.08405958  0.50163454  1
  Mn  Mn115  1  0.14171677  0.58346962  0.24728267  1
  Mn  Mn116  1  0.85829048  0.41617265  0.25278570  1
  Mn  Mn117  1  0.89227448  0.24941346  0.62723274  1
  Mn  Mn118  1  0.89217848  0.24999875  0.12823249  1
  Mn  Mn119  1  0.35708332  0.74912279  0.50171370  1
  Mn  Mn120  1  0.10811386  0.74955344  0.87278041  1
  Mn  Mn121  1  0.60779157  0.41684040  0.87261845  1
  Mn  Mn122  1  0.85784119  0.74984044  0.75253613  1
  Mn  Mn123  1  0.64178672  0.25010012  0.49706461  1
  Mn  Mn124  1  0.39226274  0.58296761  0.37794207  1
  Mn  Mn125  1  0.35819120  0.08315469  0.00261708  1
  Mn  Mn126  1  0.89187067  0.91667513  0.62636982  1
  Mn  Mn127  1  0.60742928  0.41700375  0.12319616  1
  Mn  Mn128  1  0.14259828  0.58450287  0.99759168  1
  Mn  Mn129  1  0.14257756  0.91701666  0.49755187  1
  Mn  Mn130  1  0.10810384  0.41720171  0.62205270  1
  Mn  Mn131  1  0.14280021  0.91685823  0.74831290  1
  Mn  Mn132  1  0.14250109  0.58395773  0.74879475  1
  Mn  Mn133  1  0.64272470  0.91653193  0.24734350  1
  Mn  Mn134  1  0.60778044  0.75011794  0.12305528  1
  Mn  Mn135  1  0.89231398  0.58373444  0.62661609  1
  Mn  Mn136  1  0.35869545  0.08342286  0.75249357  1
  Mn  Mn137  1  0.35759346  0.41710226  0.50176805  1
  Mn  Mn138  1  0.85728575  0.75030997  0.00162114  1
  Mn  Mn139  1  0.39255581  0.24957431  0.87706242  1
  Mn  Mn140  1  0.14201757  0.24975030  0.24801468  1
  Mn  Mn141  1  0.60845014  0.75018574  0.37246697  1
  Mn  Mn142  1  0.64153905  0.91683213  0.74803409  1
  Mn  Mn143  1  0.89269978  0.91686647  0.37760979  1
  Fe  Fe144  1  0.39299386  0.91724641  0.62643620  1
  Fe  Fe145  1  0.10690174  0.41660697  0.87332745  1
  Fe  Fe146  1  0.60814622  0.08261205  0.12348535  1
  Fe  Fe147  1  0.60738172  0.41628076  0.62289499  1
  Fe  Fe148  1  0.14223568  0.24967910  0.74845470  1
  Fe  Fe149  1  0.39258289  0.58359258  0.87720557  1
  Fe  Fe150  1  0.60588689  0.75011195  0.87371571  1
  Fe  Fe151  1  0.60674174  0.08329784  0.62320062  1
  Fe  Fe152  1  0.89208549  0.91659574  0.87752293  1
  Fe  Fe153  1  0.14300609  0.91650644  0.99840345  1
  Fe  Fe154  1  0.64176925  0.58398508  0.99801415  1
  Fe  Fe155  1  0.10814898  0.75041679  0.62318971  1
  Fe  Fe156  1  0.85756342  0.75016774  0.50166456  1
  Fe  Fe157  1  0.10630544  0.08304073  0.12281581  1
  Fe  Fe158  1  0.39336151  0.24964934  0.37636682  1
  Fe  Fe159  1  0.64179745  0.91534646  0.49832295  1
  Fe  Fe160  1  0.64333041  0.58403034  0.49806153  1
  Fe  Fe161  1  0.10790346  0.41674932  0.12358770  1
  Fe  Fe162  1  0.10728521  0.08361861  0.37266948  1
  Fe  Fe163  1  0.39249532  0.91747343  0.37633065  1
  Fe  Fe164  1  0.10659363  0.75004804  0.37303607  1
  Fe  Fe165  1  0.89286254  0.25031897  0.37660143  1
  Fe  Fe166  1  0.85868590  0.75054103  0.25151065  1
  Fe  Fe167  1  0.60715517  0.08357667  0.37286064  1
  Fe  Fe168  1  0.39305629  0.91692707  0.12668778  1
  Fe  Fe169  1  0.85683837  0.08300511  0.00180480  1
  Fe  Fe170  1  0.10696051  0.75051661  0.12291874  1
  Fe  Fe171  1  0.10661032  0.41647960  0.37384278  1
  Fe  Fe172  1  0.60787758  0.08270852  0.87348249  1
  Fe  Fe173  1  0.35777926  0.75074014  0.00270209  1
  Fe  Fe174  1  0.89235098  0.58305620  0.87647930  1
  Fe  Fe175  1  0.89322094  0.91647512  0.12648186  1
  Fe  Fe176  1  0.35781654  0.74984503  0.75148012  1
  Fe  Fe177  1  0.89314882  0.58270814  0.37731059  1
  Fe  Fe178  1  0.64229136  0.25030244  0.74831594  1
  Fe  Fe179  1  0.64303112  0.24991782  0.24920714  1
  Fe  Fe180  1  0.60775406  0.41573493  0.37259270  1
  Fe  Fe181  1  0.39333238  0.91686581  0.87765126  1
  Fe  Fe182  1  0.14300369  0.25052784  0.49764585  1
  Fe  Fe183  1  0.89219008  0.25015891  0.87578653  1
  Fe  Fe184  1  0.39264761  0.58365614  0.12692322  1
  Fe  Fe185  1  0.85684774  0.41714635  0.50118038  1
  Fe  Fe186  1  0.39304286  0.24986746  0.62696932  1
  Fe  Fe187  1  0.14240958  0.91690647  0.24771665  1
  Fe  Fe188  1  0.14171377  0.58284363  0.49776500  1
  Fe  Fe189  1  0.35706144  0.41649632  0.25211725  1
  Fe  Fe190  1  0.85721231  0.08343210  0.25200856  1
  Fe  Fe191  1  0.64289881  0.91604912  0.99858608  1
  P  P192  1  0.05325290  0.24964365  0.11040506  1
  P  P193  1  0.05346622  0.25037540  0.36155124  1
  P  P194  1  0.05546927  0.24951146  0.61012114  1
  P  P195  1  0.05216539  0.25042520  0.85922270  1
  P  P196  1  0.05355108  0.58389303  0.11011946  1
  P  P197  1  0.05344621  0.58287999  0.36149814  1
  P  P198  1  0.05437395  0.58470343  0.60940147  1
  P  P199  1  0.05192393  0.58286230  0.85999267  1
  P  P200  1  0.05421234  0.91678716  0.11073736  1
  P  P201  1  0.05431694  0.91688473  0.35932573  1
  P  P202  1  0.05356712  0.91588062  0.60981018  1
  P  P203  1  0.05299001  0.91662362  0.86150209  1
  P  P204  1  0.55518941  0.24913224  0.11169479  1
  P  P205  1  0.55320529  0.24991512  0.35936579  1
  P  P206  1  0.55361483  0.25025041  0.61114061  1
  P  P207  1  0.55429001  0.24914006  0.85961285  1
  P  P208  1  0.55264883  0.58360446  0.10977174  1
  P  P209  1  0.55524278  0.58278718  0.36097456  1
  P  P210  1  0.55384074  0.58243190  0.60892035  1
  P  P211  1  0.55284634  0.58450720  0.86140286  1
  P  P212  1  0.55328152  0.91690627  0.10957710  1
  P  P213  1  0.55357911  0.91696074  0.36094937  1
  P  P214  1  0.55253291  0.91700749  0.60966945  1
  P  P215  1  0.55369112  0.91621028  0.86185360  1
  P  P216  1  0.44831516  0.08199985  0.14002125  1
  P  P217  1  0.44778984  0.08381276  0.38940117  1
  P  P218  1  0.44777210  0.08361244  0.63954292  1
  P  P219  1  0.44841325  0.08288759  0.89021880  1
  P  P220  1  0.44557251  0.41754824  0.14087282  1
  P  P221  1  0.44685377  0.41547313  0.38865223  1
  P  P222  1  0.44784051  0.41607608  0.63952178  1
  P  P223  1  0.44669973  0.41696476  0.89024316  1
  P  P224  1  0.44537762  0.75047500  0.13892205  1
  P  P225  1  0.44648078  0.75072167  0.38974302  1
  P  P226  1  0.44582562  0.75036821  0.64015491  1
  P  P227  1  0.44516346  0.75023599  0.88942979  1
  P  P228  1  0.94542475  0.08222485  0.13932911  1
  P  P229  1  0.94669258  0.08413246  0.38869910  1
  P  P230  1  0.94684737  0.08291073  0.63996771  1
  P  P231  1  0.94513922  0.08354127  0.89048771  1
  P  P232  1  0.94838782  0.41680816  0.14013883  1
  P  P233  1  0.94693174  0.41649971  0.39109755  1
  P  P234  1  0.94514744  0.41676351  0.63830451  1
  P  P235  1  0.94757196  0.41644519  0.88930607  1
  P  P236  1  0.94723073  0.75106057  0.14012901  1
  P  P237  1  0.94597459  0.74946927  0.38925443  1
  P  P238  1  0.94674413  0.75028365  0.63867279  1
  P  P239  1  0.94662632  0.74988013  0.89000074  1
  P  P240  1  0.19448050  0.08266832  0.23529414  1
  P  P241  1  0.19625945  0.08424084  0.48388419  1
  P  P242  1  0.19727533  0.08360184  0.73512104  1
  P  P243  1  0.19536962  0.08189387  0.98609822  1
  P  P244  1  0.19583890  0.41652909  0.23566645  1
  P  P245  1  0.19592156  0.41665458  0.48379787  1
  P  P246  1  0.19512341  0.41616363  0.73661144  1
  P  P247  1  0.19441737  0.41680421  0.98534234  1
  P  P248  1  0.19402625  0.75092213  0.23546794  1
  P  P249  1  0.19463099  0.74933089  0.48499105  1
  P  P250  1  0.19793671  0.75059038  0.73474676  1
  P  P251  1  0.19694745  0.75156758  0.98642190  1
  P  P252  1  0.69605869  0.08425945  0.23583099  1
  P  P253  1  0.69395145  0.08201712  0.48556032  1
  P  P254  1  0.69426051  0.08416053  0.73555304  1
  P  P255  1  0.69586431  0.08183155  0.98596267  1
  P  P256  1  0.69600402  0.41551921  0.23632739  1
  P  P257  1  0.69571236  0.41735131  0.48529176  1
  P  P258  1  0.69586659  0.41567447  0.73387541  1
  P  P259  1  0.69660500  0.41777880  0.98513589  1
  P  P260  1  0.69903930  0.75002359  0.23462951  1
  P  P261  1  0.69797342  0.75016628  0.48493515  1
  P  P262  1  0.69498770  0.74981815  0.73623306  1
  P  P263  1  0.69531388  0.75031243  0.98451148  1
  P  P264  1  0.30286829  0.24967920  0.01543247  1
  P  P265  1  0.30401578  0.25064814  0.26562147  1
  P  P266  1  0.30424638  0.25037219  0.51419359  1
  P  P267  1  0.30326587  0.25004963  0.76419771  1
  P  P268  1  0.30534276  0.58447055  0.01480805  1
  P  P269  1  0.30434791  0.58268010  0.26390081  1
  P  P270  1  0.30099615  0.58280086  0.51479427  1
  P  P271  1  0.30413004  0.58427941  0.76586350  1
  P  P272  1  0.30455528  0.91632294  0.01500570  1
  P  P273  1  0.30366468  0.91698574  0.26433291  1
  P  P274  1  0.30540684  0.91713107  0.51402519  1
  P  P275  1  0.30601017  0.91600622  0.76460025  1
  P  P276  1  0.80492997  0.24925497  0.01389280  1
  P  P277  1  0.80281522  0.24871300  0.26597342  1
  P  P278  1  0.80461944  0.25039615  0.51351797  1
  P  P279  1  0.80192313  0.24977204  0.76530892  1
  P  P280  1  0.80295328  0.58333234  0.01374669  1
  P  P281  1  0.80500072  0.58404499  0.26562657  1
  P  P282  1  0.80388748  0.58337785  0.51343521  1
  P  P283  1  0.80357330  0.58307006  0.76546724  1
  P  P284  1  0.80408259  0.91731936  0.01456693  1
  P  P285  1  0.80531227  0.91709376  0.26346554  1
  P  P286  1  0.80147955  0.91611360  0.51491352  1
  P  P287  1  0.80359120  0.91678912  0.76587191  1
  O  O288  1  0.05609196  0.24962925  0.18730187  1
  O  O289  1  0.05800007  0.25002494  0.43814017  1
  O  O290  1  0.05968828  0.24963587  0.68683038  1
  O  O291  1  0.05560120  0.24941194  0.93596330  1
  O  O292  1  0.05571873  0.58402657  0.18701117  1
  O  O293  1  0.05768904  0.58305053  0.43814369  1
  O  O294  1  0.05743289  0.58386240  0.68610242  1
  O  O295  1  0.05605024  0.58384151  0.93665202  1
  O  O296  1  0.05841462  0.91685639  0.18743235  1
  O  O297  1  0.05712311  0.91695831  0.43603804  1
  O  O298  1  0.05639047  0.91649204  0.68663280  1
  O  O299  1  0.05823934  0.91649870  0.93810018  1
  O  O300  1  0.55917690  0.24980177  0.18834715  1
  O  O301  1  0.55625360  0.25031698  0.43618751  1
  O  O302  1  0.55802547  0.25046045  0.68774197  1
  O  O303  1  0.55714021  0.25006266  0.93649417  1
  O  O304  1  0.55704375  0.58370554  0.18647056  1
  O  O305  1  0.55998562  0.58381508  0.43769575  1
  O  O306  1  0.55618502  0.58340386  0.68577155  1
  O  O307  1  0.55763835  0.58380062  0.93806176  1
  O  O308  1  0.55686708  0.91619154  0.18634922  1
  O  O309  1  0.55817744  0.91568494  0.43759747  1
  O  O310  1  0.55598206  0.91605036  0.68640294  1
  O  O311  1  0.55838589  0.91626235  0.93846761  1
  O  O312  1  0.44456572  0.08277307  0.06335082  1
  O  O313  1  0.44414594  0.08356435  0.31276218  1
  O  O314  1  0.44430954  0.08386331  0.56287373  1
  O  O315  1  0.44471058  0.08340498  0.81352424  1
  O  O316  1  0.44275565  0.41653745  0.06406367  1
  O  O317  1  0.44168209  0.41654440  0.31207668  1
  O  O318  1  0.44409332  0.41651101  0.56280582  1
  O  O319  1  0.44384588  0.41661917  0.81344121  1
  O  O320  1  0.44206528  0.75056000  0.06212323  1
  O  O321  1  0.44307128  0.74984615  0.31297300  1
  O  O322  1  0.44285154  0.74939265  0.56335501  1
  O  O323  1  0.44134796  0.75002522  0.81271056  1
  O  O324  1  0.94060227  0.08285000  0.06269094  1
  O  O325  1  0.94169151  0.08364284  0.31201644  1
  O  O326  1  0.94351853  0.08303090  0.56318885  1
  O  O327  1  0.94252061  0.08349051  0.81367859  1
  O  O328  1  0.94432320  0.41653629  0.06364657  1
  O  O329  1  0.94387806  0.41652632  0.31380964  1
  O  O330  1  0.94049597  0.41676536  0.56190338  1
  O  O331  1  0.94414308  0.41650743  0.81255604  1
  O  O332  1  0.94309070  0.75055085  0.06348036  1
  O  O333  1  0.94160387  0.75039983  0.31253197  1
  O  O334  1  0.94146903  0.75036446  0.56196986  1
  O  O335  1  0.94393929  0.75010834  0.81320273  1
  O  O336  1  0.19078837  0.08266114  0.06283752  1
  O  O337  1  0.19035459  0.08360528  0.31206690  1
  O  O338  1  0.19387552  0.08322936  0.56070096  1
  O  O339  1  0.19376634  0.08288915  0.81189750  1
  O  O340  1  0.19036370  0.41677101  0.06221942  1
  O  O341  1  0.19043044  0.41655413  0.31218885  1
  O  O342  1  0.19360600  0.41670486  0.56123845  1
  O  O343  1  0.19075320  0.41673790  0.81314556  1
  O  O344  1  0.19158939  0.75076267  0.06304671  1
  O  O345  1  0.18968809  0.75007939  0.31223972  1
  O  O346  1  0.19143468  0.75028325  0.56182062  1
  O  O347  1  0.19417364  0.75075469  0.81153615  1
  O  O348  1  0.69150527  0.08230426  0.06271134  1
  O  O349  1  0.69107714  0.08338641  0.31255117  1
  O  O350  1  0.68964995  0.08302410  0.56238284  1
  O  O351  1  0.69078480  0.08303091  0.81241060  1
  O  O352  1  0.69343065  0.41740695  0.06194245  1
  O  O353  1  0.69206949  0.41595520  0.31300188  1
  O  O354  1  0.69105571  0.41629540  0.56198015  1
  O  O355  1  0.69303520  0.41649669  0.81070852  1
  O  O356  1  0.69297625  0.75019322  0.06133080  1
  O  O357  1  0.69487827  0.75025849  0.31128935  1
  O  O358  1  0.69401588  0.75005028  0.56163987  1
  O  O359  1  0.69003716  0.75000148  0.81290371  1
  O  O360  1  0.30703315  0.24961303  0.18885479  1
  O  O361  1  0.30960589  0.25000289  0.43756092  1
  O  O362  1  0.30879448  0.25000023  0.68747864  1
  O  O363  1  0.30635984  0.24945417  0.93866456  1
  O  O364  1  0.30856005  0.58339821  0.18717501  1
  O  O365  1  0.30533094  0.58279079  0.43812008  1
  O  O366  1  0.30658149  0.58316343  0.68900155  1
  O  O367  1  0.30944792  0.58372902  0.93803238  1
  O  O368  1  0.30882733  0.91721710  0.18767743  1
  O  O369  1  0.30948552  0.91745977  0.43719740  1
  O  O370  1  0.31004823  0.91719053  0.68776729  1
  O  O371  1  0.30962787  0.91723344  0.93828685  1
  O  O372  1  0.80629397  0.24948787  0.18920803  1
  O  O373  1  0.80918505  0.24971396  0.43679254  1
  O  O374  1  0.80586421  0.24958861  0.68858024  1
  O  O375  1  0.80903403  0.25016208  0.93717515  1
  O  O376  1  0.80762845  0.58315493  0.18879050  1
  O  O377  1  0.80877043  0.58311782  0.43675203  1
  O  O378  1  0.80700658  0.58341915  0.68868102  1
  O  O379  1  0.80841192  0.58291839  0.93712725  1
  O  O380  1  0.80930135  0.91683744  0.18672571  1
  O  O381  1  0.80577814  0.91706268  0.43818802  1
  O  O382  1  0.80673282  0.91659102  0.68907976  1
  O  O383  1  0.80850495  0.91666568  0.93785071  1
  O  O384  1  0.23312022  0.24999104  0.04026174  1
  O  O385  1  0.23410707  0.25021070  0.29026352  1
  O  O386  1  0.23365413  0.25058493  0.53715321  1
  O  O387  1  0.23287564  0.24992158  0.78770712  1
  O  O388  1  0.23524143  0.58374576  0.03885980  1
  O  O389  1  0.23418629  0.58346081  0.28778859  1
  O  O390  1  0.23097396  0.58277719  0.53915076  1
  O  O391  1  0.23457683  0.58426904  0.79160406  1
  O  O392  1  0.23415737  0.91636128  0.03845376  1
  O  O393  1  0.23310524  0.91685799  0.28738401  1
  O  O394  1  0.23534056  0.91680580  0.53796134  1
  O  O395  1  0.23599088  0.91661909  0.78895866  1
  O  O396  1  0.73488675  0.24924694  0.03814611  1
  O  O397  1  0.73291216  0.24933955  0.29080305  1
  O  O398  1  0.73432532  0.24997947  0.53711077  1
  O  O399  1  0.73190380  0.24968733  0.78980153  1
  O  O400  1  0.73255511  0.58430503  0.03727515  1
  O  O401  1  0.73533299  0.58343782  0.29076943  1
  O  O402  1  0.73352938  0.58346763  0.53731684  1
  O  O403  1  0.73365105  0.58275610  0.78985688  1
  O  O404  1  0.73373152  0.91642595  0.03836698  1
  O  O405  1  0.73529220  0.91715471  0.28782477  1
  O  O406  1  0.73147936  0.91603550  0.53952623  1
  O  O407  1  0.73373408  0.91717028  0.79049779  1
  O  O408  1  0.26461325  0.08329803  0.21132136  1
  O  O409  1  0.26590872  0.08349877  0.45846621  1
  O  O410  1  0.26693204  0.08357721  0.70990096  1
  O  O411  1  0.26540364  0.08258167  0.96195010  1
  O  O412  1  0.26628048  0.41627911  0.21233389  1
  O  O413  1  0.26539339  0.41675297  0.45856355  1
  O  O414  1  0.26505161  0.41667981  0.71199605  1
  O  O415  1  0.26455641  0.41666442  0.96155340  1
  O  O416  1  0.26419888  0.75034634  0.21178854  1
  O  O417  1  0.26451047  0.75014099  0.46006414  1
  O  O418  1  0.26798450  0.74996957  0.71028695  1
  O  O419  1  0.26739252  0.75136381  0.96316247  1
  O  O420  1  0.76647251  0.08342927  0.21232052  1
  O  O421  1  0.76408535  0.08293224  0.46164472  1
  O  O422  1  0.76413512  0.08324748  0.71080408  1
  O  O423  1  0.76621205  0.08286119  0.96224886  1
  O  O424  1  0.76612597  0.41630186  0.21167950  1
  O  O425  1  0.76616831  0.41692560  0.46173831  1
  O  O426  1  0.76545768  0.41670873  0.70853122  1
  O  O427  1  0.76622943  0.41677118  0.95987227  1
  O  O428  1  0.76908390  0.75007809  0.21018624  1
  O  O429  1  0.76806599  0.75028321  0.46034886  1
  O  O430  1  0.76512050  0.74971876  0.71244168  1
  O  O431  1  0.76495605  0.75014176  0.95912988  1
  O  O432  1  0.01593521  0.08289264  0.16265366  1
  O  O433  1  0.01715090  0.08347566  0.41210005  1
  O  O434  1  0.01644812  0.08287485  0.66515246  1
  O  O435  1  0.01483649  0.08334431  0.91583261  1
  O  O436  1  0.01839329  0.41703506  0.16478547  1
  O  O437  1  0.01687468  0.41639772  0.41558956  1
  O  O438  1  0.01562147  0.41685756  0.66197039  1
  O  O439  1  0.01751310  0.41610045  0.91430745  1
  O  O440  1  0.01741039  0.75062805  0.16426530  1
  O  O441  1  0.01652559  0.75000990  0.41248042  1
  O  O442  1  0.01704487  0.75005410  0.66235431  1
  O  O443  1  0.01620253  0.75006395  0.91561154  1
  O  O444  1  0.51836111  0.08221282  0.16458552  1
  O  O445  1  0.51779946  0.08386955  0.41415397  1
  O  O446  1  0.51778545  0.08312263  0.66438607  1
  O  O447  1  0.51847817  0.08299187  0.91472616  1
  O  O448  1  0.51536044  0.41704719  0.16581047  1
  O  O449  1  0.51728190  0.41545835  0.41212129  1
  O  O450  1  0.51779622  0.41681597  0.66428344  1
  O  O451  1  0.51628389  0.41686433  0.91572465  1
  O  O452  1  0.51513939  0.75029812  0.16411041  1
  O  O453  1  0.51621085  0.75067162  0.41469898  1
  O  O454  1  0.51551758  0.75000795  0.66533777  1
  O  O455  1  0.51541589  0.75029383  0.91371492  1
  O  O456  1  0.48523181  0.24944208  0.08715617  1
  O  O457  1  0.48326095  0.24955235  0.33446731  1
  O  O458  1  0.48342614  0.24989780  0.58676987  1
  O  O459  1  0.48465604  0.24961361  0.83435821  1
  O  O460  1  0.48236484  0.58373837  0.08607523  1
  O  O461  1  0.48506693  0.58296723  0.33731993  1
  O  O462  1  0.48424885  0.58272720  0.58327131  1
  O  O463  1  0.48252904  0.58409982  0.83760063  1
  O  O464  1  0.48324458  0.91670802  0.08505265  1
  O  O465  1  0.48326782  0.91715074  0.33701398  1
  O  O466  1  0.48239483  0.91704037  0.58526068  1
  O  O467  1  0.48338987  0.91637589  0.83791197  1
  O  O468  1  0.98363040  0.24965851  0.08519455  1
  O  O469  1  0.98323036  0.25057578  0.33720540  1
  O  O470  1  0.98538651  0.24943599  0.58635443  1
  O  O471  1  0.98209646  0.25006102  0.83448569  1
  O  O472  1  0.98406880  0.58337031  0.08429740  1
  O  O473  1  0.98316661  0.58307217  0.33740800  1
  O  O474  1  0.98470413  0.58404361  0.58437992  1
  O  O475  1  0.98198854  0.58332151  0.83512789  1
  O  O476  1  0.98379963  0.91671313  0.08693694  1
  O  O477  1  0.98449832  0.91689852  0.33438960  1
  O  O478  1  0.98415114  0.91644325  0.58383563  1
  O  O479  1  0.98252993  0.91679015  0.83815858  1
  O  O480  1  0.08735704  0.31476458  0.07831360  1
  O  O481  1  0.08692132  0.31561271  0.32861487  1
  O  O482  1  0.08902202  0.31477617  0.57685378  1
  O  O483  1  0.08622535  0.31548500  0.82692291  1
  O  O484  1  0.08746122  0.64926662  0.07787807  1
  O  O485  1  0.08696863  0.64781853  0.32816257  1
  O  O486  1  0.08838671  0.64978098  0.57717425  1
  O  O487  1  0.08607705  0.64784499  0.82716953  1
  O  O488  1  0.08753653  0.98186246  0.07739726  1
  O  O489  1  0.08850725  0.98186566  0.32675220  1
  O  O490  1  0.08820686  0.98071744  0.57741104  1
  O  O491  1  0.08620524  0.98164030  0.82796456  1
  O  O492  1  0.58882876  0.31408233  0.07839626  1
  O  O493  1  0.58740006  0.31476491  0.32668776  1
  O  O494  1  0.58687953  0.31532891  0.57760181  1
  O  O495  1  0.58883346  0.31394080  0.82696490  1
  O  O496  1  0.58639321  0.64855915  0.07670149  1
  O  O497  1  0.58849457  0.64780996  0.32729568  1
  O  O498  1  0.58849826  0.64736094  0.57647007  1
  O  O499  1  0.58587706  0.64966433  0.82816678  1
  O  O500  1  0.58752685  0.98191770  0.07727928  1
  O  O501  1  0.58704311  0.98225794  0.32828136  1
  O  O502  1  0.58657976  0.98198557  0.57734722  1
  O  O503  1  0.58704320  0.98127731  0.82856587  1
  O  O504  1  0.41451629  0.01683183  0.17250877  1
  O  O505  1  0.41392633  0.01882842  0.42218224  1
  O  O506  1  0.41384347  0.01856597  0.67209340  1
  O  O507  1  0.41454837  0.01780218  0.92278388  1
  O  O508  1  0.41109800  0.35272592  0.17354797  1
  O  O509  1  0.41368959  0.35018775  0.42161107  1
  O  O510  1  0.41418722  0.35092283  0.67225142  1
  O  O511  1  0.41263602  0.35180175  0.92261700  1
  O  O512  1  0.41133459  0.68544260  0.17152823  1
  O  O513  1  0.41252868  0.68565200  0.42264202  1
  O  O514  1  0.41138019  0.68546741  0.67275248  1
  O  O515  1  0.41150222  0.68540421  0.92277280  1
  O  O516  1  0.91251134  0.01695412  0.17256129  1
  O  O517  1  0.91336696  0.01909185  0.42227248  1
  O  O518  1  0.91258910  0.01792328  0.67223315  1
  O  O519  1  0.91079411  0.01856300  0.92303794  1
  O  O520  1  0.91463708  0.35177291  0.17331555  1
  O  O521  1  0.91259746  0.35160000  0.42312667  1
  O  O522  1  0.91214677  0.35167302  0.67186210  1
  O  O523  1  0.91357240  0.35132257  0.92179228  1
  O  O524  1  0.91325654  0.68616120  0.17314749  1
  O  O525  1  0.91294586  0.68428300  0.42241794  1
  O  O526  1  0.91328343  0.68527331  0.67193470  1
  O  O527  1  0.91247617  0.68462401  0.92207756  1
  O  O528  1  0.16113603  0.01745225  0.20237996  1
  O  O529  1  0.16142366  0.01960102  0.45136342  1
  O  O530  1  0.16346123  0.01836188  0.70249491  1
  O  O531  1  0.16227263  0.01648401  0.95323184  1
  O  O532  1  0.16238093  0.35156106  0.20215624  1
  O  O533  1  0.16158494  0.35151039  0.45201573  1
  O  O534  1  0.16167439  0.35107174  0.70341460  1
  O  O535  1  0.16064055  0.35191386  0.95222881  1
  O  O536  1  0.16028487  0.68611669  0.20195806  1
  O  O537  1  0.16111729  0.68396377  0.45244822  1
  O  O538  1  0.16343885  0.68573856  0.70235444  1
  O  O539  1  0.16398129  0.68649880  0.95253604  1
  O  O540  1  0.66234109  0.01948693  0.20209539  1
  O  O541  1  0.66088126  0.01667714  0.45272231  1
  O  O542  1  0.65981136  0.01951808  0.70247527  1
  O  O543  1  0.66296164  0.01647019  0.95275490  1
  O  O544  1  0.66292058  0.35014156  0.20361082  1
  O  O545  1  0.66219946  0.35238826  0.45163095  1
  O  O546  1  0.66220065  0.35015882  0.70177918  1
  O  O547  1  0.66215725  0.35278051  0.95287628  1
  O  O548  1  0.66520152  0.68496360  0.20199950  1
  O  O549  1  0.66437092  0.68507842  0.45202054  1
  O  O550  1  0.66163022  0.68480198  0.70294142  1
  O  O551  1  0.66064076  0.68553450  0.95214978  1
  O  O552  1  0.33708402  0.31467658  0.04775718  1
  O  O553  1  0.33790333  0.31580185  0.29792173  1
  O  O554  1  0.33749305  0.31534344  0.54777037  1
  O  O555  1  0.33636268  0.31514102  0.79759507  1
  O  O556  1  0.33858337  0.64982179  0.04764711  1
  O  O557  1  0.33799065  0.64752389  0.29731470  1
  O  O558  1  0.33478635  0.64785710  0.54749098  1
  O  O559  1  0.33845279  0.64955984  0.79754660  1
  O  O560  1  0.33790491  0.98120525  0.04884061  1
  O  O561  1  0.33694902  0.98197936  0.29792998  1
  O  O562  1  0.33883252  0.98218809  0.54732399  1
  O  O563  1  0.34016066  0.98060906  0.79821290  1
  O  O564  1  0.83830486  0.31424615  0.04744003  1
  O  O565  1  0.83735304  0.31366596  0.29861076  1
  O  O566  1  0.83761251  0.31570069  0.54637875  1
  O  O567  1  0.83583627  0.31485170  0.79804914  1
  O  O568  1  0.83668943  0.64831891  0.04683572  1
  O  O569  1  0.83909443  0.64928833  0.29748714  1
  O  O570  1  0.83705718  0.64863310  0.54659981  1
  O  O571  1  0.83752746  0.64796678  0.79839177  1
  O  O572  1  0.83726809  0.98247385  0.04775021  1
  O  O573  1  0.83864440  0.98232276  0.29661262  1
  O  O574  1  0.83505194  0.98124542  0.54790514  1
  O  O575  1  0.83782605  0.98175900  0.79827598  1
  O  O576  1  0.41431106  0.14689848  0.17294166  1
  O  O577  1  0.41410497  0.14904355  0.42208260  1
  O  O578  1  0.41426467  0.14877469  0.67250023  1
  O  O579  1  0.41462443  0.14787820  0.92314415  1
  O  O580  1  0.41169974  0.48290326  0.17292763  1
  O  O581  1  0.41375101  0.48037480  0.42276026  1
  O  O582  1  0.41359272  0.48105320  0.67208978  1
  O  O583  1  0.41238493  0.48205366  0.92225486  1
  O  O584  1  0.41166259  0.81579882  0.17145220  1
  O  O585  1  0.41227946  0.81590159  0.42154955  1
  O  O586  1  0.41188281  0.81567099  0.67221650  1
  O  O587  1  0.41169413  0.81543210  0.92256832  1
  O  O588  1  0.91180007  0.14692565  0.17322547  1
  O  O589  1  0.91370129  0.14918679  0.42205663  1
  O  O590  1  0.91269182  0.14793719  0.67245583  1
  O  O591  1  0.91102894  0.14878778  0.92262757  1
  O  O592  1  0.91433364  0.48180341  0.17278698  1
  O  O593  1  0.91289103  0.48160590  0.42328226  1
  O  O594  1  0.91209979  0.48182581  0.67170763  1
  O  O595  1  0.91396642  0.48164067  0.92218208  1
  O  O596  1  0.91366454  0.81621731  0.17298293  1
  O  O597  1  0.91254073  0.81431775  0.42301037  1
  O  O598  1  0.91341476  0.81526842  0.67206324  1
  O  O599  1  0.91229060  0.81487808  0.92242641  1
  O  O600  1  0.08709222  0.18434399  0.07803538  1
  O  O601  1  0.08681643  0.18545463  0.32792257  1
  O  O602  1  0.08934322  0.18479432  0.57693659  1
  O  O603  1  0.08641466  0.18551158  0.82637965  1
  O  O604  1  0.08826393  0.51896269  0.07843443  1
  O  O605  1  0.08665859  0.51761642  0.32842235  1
  O  O606  1  0.08882866  0.51967350  0.57657423  1
  O  O607  1  0.08562296  0.51767053  0.82756487  1
  O  O608  1  0.08770642  0.85176304  0.07739286  1
  O  O609  1  0.08836050  0.85166867  0.32698987  1
  O  O610  1  0.08771723  0.85066484  0.57781353  1
  O  O611  1  0.08623678  0.85164669  0.82791789  1
  O  O612  1  0.58869491  0.18380692  0.07905089  1
  O  O613  1  0.58758604  0.18482820  0.32728521  1
  O  O614  1  0.58729696  0.18523476  0.57808307  1
  O  O615  1  0.58840999  0.18386020  0.82782840  1
  O  O616  1  0.58628189  0.51855689  0.07679428  1
  O  O617  1  0.58851201  0.51741558  0.32829606  1
  O  O618  1  0.58829488  0.51729561  0.57720165  1
  O  O619  1  0.58625311  0.51954862  0.82785225  1
  O  O620  1  0.58731867  0.85200516  0.07665622  1
  O  O621  1  0.58691701  0.85219529  0.32697497  1
  O  O622  1  0.58626777  0.85202145  0.57639262  1
  O  O623  1  0.58665632  0.85106053  0.82832756  1
  O  O624  1  0.33673549  0.18455911  0.04813307  1
  O  O625  1  0.33824148  0.18573673  0.29843591  1
  O  O626  1  0.33730165  0.18530202  0.54791362  1
  O  O627  1  0.33651779  0.18502846  0.79771719  1
  O  O628  1  0.33926460  0.51965270  0.04802794  1
  O  O629  1  0.33733019  0.51732408  0.29698227  1
  O  O630  1  0.33483433  0.51786325  0.54775914  1
  O  O631  1  0.33861387  0.51942427  0.79846664  1
  O  O632  1  0.33805093  0.85129110  0.04815057  1
  O  O633  1  0.33692494  0.85204211  0.29787343  1
  O  O634  1  0.33918507  0.85219450  0.54698443  1
  O  O635  1  0.33926202  0.85052123  0.79713565  1
  O  O636  1  0.83821578  0.18391635  0.04666714  1
  O  O637  1  0.83677403  0.18359009  0.29835630  1
  O  O638  1  0.83778778  0.18532959  0.54701495  1
  O  O639  1  0.83598577  0.18494947  0.79822644  1
  O  O640  1  0.83578090  0.51823643  0.04756135  1
  O  O641  1  0.83954725  0.51908878  0.29834605  1
  O  O642  1  0.83692019  0.51825765  0.54677189  1
  O  O643  1  0.83774182  0.51805137  0.79797345  1
  O  O644  1  0.83813013  0.85257106  0.04786207  1
  O  O645  1  0.83881687  0.85198791  0.29650801  1
  O  O646  1  0.83554517  0.85103700  0.54725882  1
  O  O647  1  0.83757972  0.85179743  0.79862719  1
  O  O648  1  0.16043463  0.14747114  0.20209719  1
  O  O649  1  0.16232485  0.14967720  0.45193603  1
  O  O650  1  0.16304332  0.14861395  0.70297114  1
  O  O651  1  0.16152903  0.14674056  0.95278016  1
  O  O652  1  0.16272743  0.48158364  0.20193489  1
  O  O653  1  0.16125040  0.48149753  0.45194034  1
  O  O654  1  0.16141101  0.48132696  0.70343538  1
  O  O655  1  0.16094413  0.48191366  0.95227439  1
  O  O656  1  0.16092595  0.81620500  0.20243605  1
  O  O657  1  0.16038168  0.81407388  0.45193565  1
  O  O658  1  0.16434449  0.81567523  0.70178605  1
  O  O659  1  0.16385304  0.81663841  0.95299389  1
  O  O660  1  0.66312271  0.14956603  0.20279772  1
  O  O661  1  0.65999208  0.14687857  0.45219553  1
  O  O662  1  0.66098186  0.14960684  0.70300190  1
  O  O663  1  0.66188133  0.14649798  0.95254919  1
  O  O664  1  0.66215547  0.48047391  0.20334588  1
  O  O665  1  0.66250547  0.48246197  0.45226326  1
  O  O666  1  0.66086681  0.48027265  0.70142981  1
  O  O667  1  0.66286902  0.48300716  0.95267616  1
  O  O668  1  0.66506315  0.81497069  0.20186693  1
  O  O669  1  0.66413844  0.81523739  0.45209649  1
  O  O670  1  0.66178948  0.81496051  0.70285671  1
  O  O671  1  0.66118559  0.81565217  0.95248263  1
