# generated using pymatgen
data_Na2MnFe(PO4)2
_symmetry_space_group_name_H-M   'P 1'
_cell_length_a   21.08210572
_cell_length_b   18.93368086
_cell_length_c   20.04090157
_cell_angle_alpha   90.00010484
_cell_angle_beta   89.99769622
_cell_angle_gamma   89.99963928
_symmetry_Int_Tables_number   1
_chemical_formula_structural   Na2MnFe(PO4)2
_chemical_formula_sum   'Na96 Mn48 Fe48 P96 O384'
_cell_volume   7999.56357246
_cell_formula_units_Z   48
loop_
 _symmetry_equiv_pos_site_id
 _symmetry_equiv_pos_as_xyz
  1  'x, y, z'
loop_
 _atom_site_type_symbol
 _atom_site_label
 _atom_site_symmetry_multiplicity
 _atom_site_fract_x
 _atom_site_fract_y
 _atom_site_fract_z
 _atom_site_occupancy
  Na  Na0  1  -0.00255548  -0.00133346  0.00090689  1
  Na  Na1  1  0.00149177  0.00048793  0.25023815  1
  Na  Na2  1  0.00120328  0.00020390  0.49909930  1
  Na  Na3  1  -0.00104998  -0.00044831  0.75020844  1
  Na  Na4  1  -0.00070157  0.33202078  0.00073726  1
  Na  Na5  1  -0.00054615  0.33272341  0.24962755  1
  Na  Na6  1  -0.00123992  0.33268076  0.49889444  1
  Na  Na7  1  -0.00211434  0.33175385  0.75062490  1
  Na  Na8  1  0.00189768  0.66796816  -0.00002146  1
  Na  Na9  1  -0.00107244  0.66725476  0.25001209  1
  Na  Na10  1  -0.00142800  0.66733454  0.49972065  1
  Na  Na11  1  0.00081453  0.66793697  0.74993541  1
  Na  Na12  1  0.50161436  0.00015325  0.00112756  1
  Na  Na13  1  0.50098763  0.00036293  0.25022545  1
  Na  Na14  1  0.50105414  -0.00017685  0.49907741  1
  Na  Na15  1  0.50322509  0.00101990  0.74996817  1
  Na  Na16  1  0.50188516  0.33310048  0.00033653  1
  Na  Na17  1  0.50114076  0.33323317  0.24962168  1
  Na  Na18  1  0.49915930  0.33149021  0.49991479  1
  Na  Na19  1  0.50266099  0.33378859  0.75019634  1
  Na  Na20  1  0.50101064  0.66820101  0.00018765  1
  Na  Na21  1  0.49947450  0.66727052  0.25154444  1
  Na  Na22  1  0.49921780  0.66722469  0.49911666  1
  Na  Na23  1  0.49976365  0.66774820  0.74883350  1
  Na  Na24  1  0.24962629  0.00014016  0.12454025  1
  Na  Na25  1  0.24981261  0.00044534  0.37533912  1
  Na  Na26  1  0.24841699  -0.00080947  0.62519672  1
  Na  Na27  1  0.25081942  0.00088290  0.87511742  1
  Na  Na28  1  0.24861030  0.33217150  0.12486736  1
  Na  Na29  1  0.25007305  0.33225719  0.37555668  1
  Na  Na30  1  0.25182501  0.33304317  0.62451211  1
  Na  Na31  1  0.25002217  0.33243760  0.87405536  1
  Na  Na32  1  0.24779775  0.66676170  0.12436506  1
  Na  Na33  1  0.25030931  0.66833332  0.37524350  1
  Na  Na34  1  0.25030407  0.66788199  0.62556683  1
  Na  Na35  1  0.24887733  0.66714561  0.87540302  1
  Na  Na36  1  0.74830278  -0.00087648  0.12474248  1
  Na  Na37  1  0.74860195  -0.00076730  0.37474309  1
  Na  Na38  1  0.74823485  -0.00109856  0.62595557  1
  Na  Na39  1  0.74949744  -0.00031819  0.87478491  1
  Na  Na40  1  0.75139363  0.33311129  0.12420739  1
  Na  Na41  1  0.75176566  0.33351956  0.37592288  1
  Na  Na42  1  0.75013703  0.33240750  0.62436392  1
  Na  Na43  1  0.74928466  0.33198620  0.87528429  1
  Na  Na44  1  0.74979855  0.66721300  0.12475156  1
  Na  Na45  1  0.75225310  0.66810726  0.37554199  1
  Na  Na46  1  0.74962423  0.66704833  0.62550093  1
  Na  Na47  1  0.74836681  0.66694126  0.87441550  1
  Na  Na48  1  -0.00154579  0.16693452  0.00062324  1
  Na  Na49  1  -0.00016405  0.16691658  0.24887426  1
  Na  Na50  1  -0.00099055  0.16714044  0.49944000  1
  Na  Na51  1  -0.00084654  0.16625814  0.75089416  1
  Na  Na52  1  0.00096761  0.49963005  -0.00010270  1
  Na  Na53  1  -0.00223263  0.50084410  0.24992300  1
  Na  Na54  1  -0.00185364  0.50058413  0.49914956  1
  Na  Na55  1  -0.00078343  0.50074609  0.75084951  1
  Na  Na56  1  0.00011129  0.83342471  0.00138815  1
  Na  Na57  1  0.00102318  0.83321038  0.25100230  1
  Na  Na58  1  0.00103109  0.83284171  0.49893934  1
  Na  Na59  1  -0.00079659  0.83358878  0.74897504  1
  Na  Na60  1  0.50129126  0.16597193  0.00119702  1
  Na  Na61  1  0.49967080  0.16584535  0.24940355  1
  Na  Na62  1  0.49802725  0.16666976  0.49963630  1
  Na  Na63  1  0.50135332  0.16593340  0.74926223  1
  Na  Na64  1  0.50027188  0.50045978  0.00048036  1
  Na  Na65  1  0.50096611  0.50031600  0.25085133  1
  Na  Na66  1  0.50344810  0.49874274  0.49926064  1
  Na  Na67  1  0.50010872  0.50072198  0.74938417  1
  Na  Na68  1  0.50269787  0.83293599  0.00011685  1
  Na  Na69  1  0.50061210  0.83357560  0.25095033  1
  Na  Na70  1  0.50084780  0.83285518  0.49993056  1
  Na  Na71  1  0.50211202  0.83285254  0.74981671  1
  Na  Na72  1  0.24906594  0.16665294  0.12479523  1
  Na  Na73  1  0.25217941  0.16547906  0.37637089  1
  Na  Na74  1  0.25140029  0.16633429  0.62481293  1
  Na  Na75  1  0.24994907  0.16657093  0.87415251  1
  Na  Na76  1  0.24854032  0.50053559  0.12434804  1
  Na  Na77  1  0.25028296  0.49988974  0.37474287  1
  Na  Na78  1  0.25037448  0.50080995  0.62516775  1
  Na  Na79  1  0.25098571  0.50004523  0.87491359  1
  Na  Na80  1  0.24892658  0.83317754  0.12460952  1
  Na  Na81  1  0.24735249  0.83391203  0.37502961  1
  Na  Na82  1  0.24925829  0.83254019  0.62520797  1
  Na  Na83  1  0.24964301  0.83277932  0.87556566  1
  Na  Na84  1  0.74953331  0.16699963  0.12485793  1
  Na  Na85  1  0.75051488  0.16651535  0.37538103  1
  Na  Na86  1  0.74949057  0.16681696  0.62509662  1
  Na  Na87  1  0.75050041  0.16596451  0.87508457  1
  Na  Na88  1  0.75023276  0.50015999  0.12511386  1
  Na  Na89  1  0.75147378  0.49984200  0.37571747  1
  Na  Na90  1  0.74907610  0.50097281  0.62451250  1
  Na  Na91  1  0.75050883  0.49933759  0.87465904  1
  Na  Na92  1  0.74945578  0.83373766  0.12395559  1
  Na  Na93  1  0.74986561  0.83381561  0.37520095  1
  Na  Na94  1  0.74959248  0.83334161  0.62604360  1
  Na  Na95  1  0.74722477  0.83466267  0.87471303  1
  Mn  Mn96  1  0.35847361  0.41720826  0.50250289  1
  Mn  Mn97  1  0.10779200  0.41657253  0.87228683  1
  Mn  Mn98  1  0.14263082  0.24976460  0.49834986  1
  Mn  Mn99  1  0.10682889  0.08242178  0.87346996  1
  Mn  Mn100  1  0.39194403  0.58277282  0.37743021  1
  Mn  Mn101  1  0.85796305  0.41729678  0.50324872  1
  Mn  Mn102  1  0.85807631  0.41650376  0.00237873  1
  Mn  Mn103  1  0.85727165  0.08326033  0.25184253  1
  Mn  Mn104  1  0.10727025  0.41648605  0.62249875  1
  Mn  Mn105  1  0.60807702  0.41684188  0.87220939  1
  Mn  Mn106  1  0.85793845  0.08211623  0.50264127  1
  Mn  Mn107  1  0.60727277  0.08366703  0.37292282  1
  Mn  Mn108  1  0.89241293  0.91694777  0.37716899  1
  Mn  Mn109  1  0.10713770  0.41701834  0.37258390  1
  Mn  Mn110  1  0.89234364  0.58369238  0.12695590  1
  Mn  Mn111  1  0.39267715  0.91677977  0.62710651  1
  Mn  Mn112  1  0.85737797  0.41645344  0.75182943  1
  Mn  Mn113  1  0.64319079  0.58337562  0.24765871  1
  Mn  Mn114  1  0.39211452  0.58368986  0.12716419  1
  Mn  Mn115  1  0.14246163  0.58309362  0.74748377  1
  Mn  Mn116  1  0.35786348  0.41602359  0.00249800  1
  Mn  Mn117  1  0.64146315  0.58382329  0.99754236  1
  Mn  Mn118  1  0.39305867  0.58295088  0.62648646  1
  Mn  Mn119  1  0.35766319  0.75059916  0.00238876  1
  Mn  Mn120  1  0.14183416  0.25005550  0.74743920  1
  Mn  Mn121  1  0.85727726  0.75020193  0.75220620  1
  Mn  Mn122  1  0.14156006  0.58319125  0.24793224  1
  Mn  Mn123  1  0.64223982  0.24982572  0.49730863  1
  Mn  Mn124  1  0.14130979  0.91680389  0.74808374  1
  Mn  Mn125  1  0.85730162  0.75042524  0.00188462  1
  Mn  Mn126  1  0.10844470  0.08374558  0.37246654  1
  Mn  Mn127  1  0.85732890  0.08305604  0.75176643  1
  Mn  Mn128  1  0.35905603  0.41739167  0.75214236  1
  Mn  Mn129  1  0.39293263  0.91620580  0.12732397  1
  Mn  Mn130  1  0.64300675  0.24927819  0.99801498  1
  Mn  Mn131  1  0.39328093  0.25002565  0.87738695  1
  Mn  Mn132  1  0.89239324  0.58390419  0.87771781  1
  Mn  Mn133  1  0.60816241  0.75000046  0.37288921  1
  Mn  Mn134  1  0.35854280  0.08231857  0.75216292  1
  Mn  Mn135  1  0.60860283  0.41578101  0.37222624  1
  Mn  Mn136  1  0.10746090  0.41666531  0.12278182  1
  Mn  Mn137  1  0.39239134  0.25032709  0.12731145  1
  Mn  Mn138  1  0.35800294  0.41625541  0.25196904  1
  Mn  Mn139  1  0.64144116  0.58301251  0.74705254  1
  Mn  Mn140  1  0.39356678  0.91686346  0.87708124  1
  Mn  Mn141  1  0.14129547  0.58357501  0.49790843  1
  Mn  Mn142  1  0.14156677  0.91723312  0.99746120  1
  Mn  Mn143  1  0.39151476  0.91703812  0.37715824  1
  Fe  Fe144  1  0.64274296  0.91676064  0.24801146  1
  Fe  Fe145  1  0.89287056  0.91687747  0.62607898  1
  Fe  Fe146  1  0.39402815  0.24991353  0.62668819  1
  Fe  Fe147  1  0.14234183  0.24999821  0.99818952  1
  Fe  Fe148  1  0.89204839  0.24923627  0.87713975  1
  Fe  Fe149  1  0.85725334  0.41681785  0.25139631  1
  Fe  Fe150  1  0.60684532  0.75004745  0.87281690  1
  Fe  Fe151  1  0.35654571  0.75067256  0.25143869  1
  Fe  Fe152  1  0.60795505  0.74996085  0.12408404  1
  Fe  Fe153  1  0.64366134  0.58443065  0.49835842  1
  Fe  Fe154  1  0.89201599  0.58348289  0.37684516  1
  Fe  Fe155  1  0.39229155  0.25011734  0.37574285  1
  Fe  Fe156  1  0.14242341  0.58270399  0.99772154  1
  Fe  Fe157  1  0.10685027  0.75056265  0.12391433  1
  Fe  Fe158  1  0.85740530  0.75078950  0.50205203  1
  Fe  Fe159  1  0.64296639  0.24942771  0.74773470  1
  Fe  Fe160  1  0.10684756  0.75040632  0.62309366  1
  Fe  Fe161  1  0.64317083  0.91699272  0.99824121  1
  Fe  Fe162  1  0.64264417  0.91713414  0.74766363  1
  Fe  Fe163  1  0.60719685  0.74992052  0.62228709  1
  Fe  Fe164  1  0.14220385  0.91677359  0.49915848  1
  Fe  Fe165  1  0.60785831  0.41662655  0.62286857  1
  Fe  Fe166  1  0.10667031  0.74944546  0.37311175  1
  Fe  Fe167  1  0.89230772  0.58357716  0.62692927  1
  Fe  Fe168  1  0.39274163  0.58383868  0.87673678  1
  Fe  Fe169  1  0.35621968  0.75076157  0.50165496  1
  Fe  Fe170  1  0.85753153  0.75014248  0.25131857  1
  Fe  Fe171  1  0.60744127  0.08329056  0.62239970  1
  Fe  Fe172  1  0.64312367  0.91603401  0.49873482  1
  Fe  Fe173  1  0.35782424  0.08352100  0.00173660  1
  Fe  Fe174  1  0.60755647  0.08321590  0.12314525  1
  Fe  Fe175  1  0.35692479  0.08279549  0.25080431  1
  Fe  Fe176  1  0.89316260  0.24926580  0.12748720  1
  Fe  Fe177  1  0.14252497  0.24926944  0.24869691  1
  Fe  Fe178  1  0.14273344  0.91731929  0.24804214  1
  Fe  Fe179  1  0.89145869  0.91651856  0.87673772  1
  Fe  Fe180  1  0.35710170  0.08204998  0.50255388  1
  Fe  Fe181  1  0.60825787  0.08311693  0.87357667  1
  Fe  Fe182  1  0.10696648  0.08326360  0.62370679  1
  Fe  Fe183  1  0.60857632  0.41691801  0.12376905  1
  Fe  Fe184  1  0.89248860  0.91675170  0.12721198  1
  Fe  Fe185  1  0.89244482  0.24952189  0.62682927  1
  Fe  Fe186  1  0.10705285  0.75067987  0.87328816  1
  Fe  Fe187  1  0.85697762  0.08263862  0.00212267  1
  Fe  Fe188  1  0.64300722  0.24976499  0.24847516  1
  Fe  Fe189  1  0.10726720  0.08322592  0.12296773  1
  Fe  Fe190  1  0.89254592  0.24993141  0.37600838  1
  Fe  Fe191  1  0.35745641  0.75032078  0.75167798  1
  P  P192  1  0.05436365  0.24884207  0.11084531  1
  P  P193  1  0.05275652  0.24995638  0.35922487  1
  P  P194  1  0.05163271  0.24898233  0.61003299  1
  P  P195  1  0.05286326  0.24923180  0.86132446  1
  P  P196  1  0.05383625  0.58437074  0.10958508  1
  P  P197  1  0.05134198  0.58428996  0.36011372  1
  P  P198  1  0.05147485  0.58414926  0.61001745  1
  P  P199  1  0.05456392  0.58444576  0.86094256  1
  P  P200  1  0.05362567  0.91702179  0.11185458  1
  P  P201  1  0.05557930  0.91599521  0.36066014  1
  P  P202  1  0.05258146  0.91685643  0.60945045  1
  P  P203  1  0.05118103  0.91600381  0.86026170  1
  P  P204  1  0.55540126  0.24979208  0.11162220  1
  P  P205  1  0.55259795  0.24926910  0.35896139  1
  P  P206  1  0.55420223  0.24947949  0.61085719  1
  P  P207  1  0.55487531  0.24851370  0.85950231  1
  P  P208  1  0.55376053  0.58396753  0.11068812  1
  P  P209  1  0.55500843  0.58373464  0.36113099  1
  P  P210  1  0.55439993  0.58388364  0.60864280  1
  P  P211  1  0.55197904  0.58446626  0.85961799  1
  P  P212  1  0.55595459  0.91653535  0.11113106  1
  P  P213  1  0.55510033  0.91660250  0.36051473  1
  P  P214  1  0.55540963  0.91657322  0.61027719  1
  P  P215  1  0.55601362  0.91702513  0.86083738  1
  P  P216  1  0.44629028  0.08300945  0.13949354  1
  P  P217  1  0.44396238  0.08381045  0.38906713  1
  P  P218  1  0.44713679  0.08306697  0.63862958  1
  P  P219  1  0.44841642  0.08309494  0.89081365  1
  P  P220  1  0.44867843  0.41684128  0.14010457  1
  P  P221  1  0.44705665  0.41551209  0.38982660  1
  P  P222  1  0.44882382  0.41598402  0.63956542  1
  P  P223  1  0.44725147  0.41754886  0.89027821  1
  P  P224  1  0.44772524  0.75043669  0.14095586  1
  P  P225  1  0.44435518  0.75073045  0.38966200  1
  P  P226  1  0.44612347  0.75049519  0.63889168  1
  P  P227  1  0.44676530  0.74995347  0.88881353  1
  P  P228  1  0.94636382  0.08284727  0.13881796  1
  P  P229  1  0.94656651  0.08396160  0.38947326  1
  P  P230  1  0.94751381  0.08268336  0.63973173  1
  P  P231  1  0.94501009  0.08266998  0.89084140  1
  P  P232  1  0.94594733  0.41571938  0.14053315  1
  P  P233  1  0.94444985  0.41653124  0.38833485  1
  P  P234  1  0.94651026  0.41659962  0.64018018  1
  P  P235  1  0.94642375  0.41581175  0.89016734  1
  P  P236  1  0.94682923  0.75122940  0.14052873  1
  P  P237  1  0.94520471  0.74981532  0.38924720  1
  P  P238  1  0.94597148  0.75069652  0.63837737  1
  P  P239  1  0.94740228  0.75120697  0.89005080  1
  P  P240  1  0.19696706  0.08334298  0.23464242  1
  P  P241  1  0.19626753  0.08268184  0.48670698  1
  P  P242  1  0.19584544  0.08328993  0.73427154  1
  P  P243  1  0.19655319  0.08420664  0.98586608  1
  P  P244  1  0.19665072  0.41559869  0.23503178  1
  P  P245  1  0.19677962  0.41664350  0.48486452  1
  P  P246  1  0.19744923  0.41658036  0.73430011  1
  P  P247  1  0.19632740  0.41597244  0.98471730  1
  P  P248  1  0.19541804  0.75082869  0.23564038  1
  P  P249  1  0.19473007  0.75084094  0.48574333  1
  P  P250  1  0.19560996  0.75028339  0.73555392  1
  P  P251  1  0.19415695  0.74973232  0.98566333  1
  P  P252  1  0.69577990  0.08354998  0.23467128  1
  P  P253  1  0.69562625  0.08224604  0.48609334  1
  P  P254  1  0.69470686  0.08340507  0.73564002  1
  P  P255  1  0.69638071  0.08238403  0.98573099  1
  P  P256  1  0.69809289  0.41561592  0.23473089  1
  P  P257  1  0.69560972  0.41750951  0.48616272  1
  P  P258  1  0.69603341  0.41550177  0.73393521  1
  P  P259  1  0.69582479  0.41655583  0.98580189  1
  P  P260  1  0.69777591  0.75078753  0.23470229  1
  P  P261  1  0.69683228  0.75035321  0.48642295  1
  P  P262  1  0.69420097  0.75082618  0.73540300  1
  P  P263  1  0.69455474  0.75113641  0.98530769  1
  P  P264  1  0.30246095  0.24897086  0.01478859  1
  P  P265  1  0.30248895  0.24869193  0.26520547  1
  P  P266  1  0.30601911  0.24895168  0.51455243  1
  P  P267  1  0.30526505  0.24964618  0.76380061  1
  P  P268  1  0.30308251  0.58368721  0.01385755  1
  P  P269  1  0.30295027  0.58443687  0.26472340  1
  P  P270  1  0.30288150  0.58479176  0.51516458  1
  P  P271  1  0.30463497  0.58496307  0.76556374  1
  P  P272  1  0.30362320  0.91750600  0.01488557  1
  P  P273  1  0.30198145  0.91662743  0.26448087  1
  P  P274  1  0.30192890  0.91624580  0.51503471  1
  P  P275  1  0.30327337  0.91562934  0.76521732  1
  P  P276  1  0.80573205  0.24851760  0.01467767  1
  P  P277  1  0.80382790  0.25038686  0.26429017  1
  P  P278  1  0.80519579  0.24942856  0.51459252  1
  P  P279  1  0.80377673  0.24952958  0.76437418  1
  P  P280  1  0.80274431  0.58385822  0.01500996  1
  P  P281  1  0.80430793  0.58371258  0.26543336  1
  P  P282  1  0.80426558  0.58483336  0.51472590  1
  P  P283  1  0.80401292  0.58352055  0.76409893  1
  P  P284  1  0.80404103  0.91730481  0.01442433  1
  P  P285  1  0.80331251  0.91619591  0.26364842  1
  P  P286  1  0.80285422  0.91590048  0.51585809  1
  P  P287  1  0.80360549  0.91669026  0.76431342  1
  O  O288  1  0.05929848  0.24934013  0.18752570  1
  O  O289  1  0.05693441  0.24972368  0.43591750  1
  O  O290  1  0.05524793  0.24943086  0.68676978  1
  O  O291  1  0.05796270  0.24946615  0.93798503  1
  O  O292  1  0.05627485  0.58348540  0.18643285  1
  O  O293  1  0.05504388  0.58382784  0.43680024  1
  O  O294  1  0.05552757  0.58380445  0.68671227  1
  O  O295  1  0.05871717  0.58332286  0.93772438  1
  O  O296  1  0.05851025  0.91739765  0.18852416  1
  O  O297  1  0.05947642  0.91695940  0.43741513  1
  O  O298  1  0.05557486  0.91671422  0.68620456  1
  O  O299  1  0.05509965  0.91669546  0.93696901  1
  O  O300  1  0.55919064  0.24971455  0.18835723  1
  O  O301  1  0.55644829  0.24899061  0.43570642  1
  O  O302  1  0.55856658  0.24950660  0.68751477  1
  O  O303  1  0.55765349  0.24902200  0.93634767  1
  O  O304  1  0.55665497  0.58398023  0.18749613  1
  O  O305  1  0.55980588  0.58429063  0.43781760  1
  O  O306  1  0.55630678  0.58407051  0.68553424  1
  O  O307  1  0.55551953  0.58413123  0.93632880  1
  O  O308  1  0.55936790  0.91665019  0.18800091  1
  O  O309  1  0.55955094  0.91613603  0.43725070  1
  O  O310  1  0.55886152  0.91669762  0.68710768  1
  O  O311  1  0.55929433  0.91716791  0.93768118  1
  O  O312  1  0.44129865  0.08309075  0.06281920  1
  O  O313  1  0.43982484  0.08244163  0.31225619  1
  O  O314  1  0.44186851  0.08183270  0.56196230  1
  O  O315  1  0.44448339  0.08290129  0.81404864  1
  O  O316  1  0.44444688  0.41638617  0.06339909  1
  O  O317  1  0.44382813  0.41652882  0.31303173  1
  O  O318  1  0.44498912  0.41639174  0.56286548  1
  O  O319  1  0.44450712  0.41684111  0.81345363  1
  O  O320  1  0.44368454  0.75092597  0.06418911  1
  O  O321  1  0.43967050  0.75118060  0.31292151  1
  O  O322  1  0.44073024  0.75095817  0.56224650  1
  O  O323  1  0.44214330  0.75073165  0.81215502  1
  O  O324  1  0.94162869  0.08251484  0.06222692  1
  O  O325  1  0.94321598  0.08307915  0.31271125  1
  O  O326  1  0.94431026  0.08266546  0.56304640  1
  O  O327  1  0.94244280  0.08275233  0.81395812  1
  O  O328  1  0.94346144  0.41641113  0.06372985  1
  O  O329  1  0.94071700  0.41654045  0.31157335  1
  O  O330  1  0.94412527  0.41671757  0.56327252  1
  O  O331  1  0.94320601  0.41639147  0.81339426  1
  O  O332  1  0.94305001  0.75080219  0.06384807  1
  O  O333  1  0.94063142  0.75080061  0.31254394  1
  O  O334  1  0.94155934  0.75072812  0.56166901  1
  O  O335  1  0.94351595  0.75065393  0.81332600  1
  O  O336  1  0.19137750  0.08319890  0.06254347  1
  O  O337  1  0.19395488  0.08355613  0.31136465  1
  O  O338  1  0.19104723  0.08352124  0.56334054  1
  O  O339  1  0.19221789  0.08336204  0.81106032  1
  O  O340  1  0.19320208  0.41616118  0.06152190  1
  O  O341  1  0.19346692  0.41627027  0.31182198  1
  O  O342  1  0.19333999  0.41673246  0.56165935  1
  O  O343  1  0.19374782  0.41634547  0.81108627  1
  O  O344  1  0.18989730  0.75068581  0.06244584  1
  O  O345  1  0.19085835  0.74979783  0.31236586  1
  O  O346  1  0.19003095  0.74985266  0.56251243  1
  O  O347  1  0.19067885  0.75075593  0.81225146  1
  O  O348  1  0.69175669  0.08326270  0.06240064  1
  O  O349  1  0.69309053  0.08373744  0.31150101  1
  O  O350  1  0.69172562  0.08326915  0.56287864  1
  O  O351  1  0.69172167  0.08346307  0.81245846  1
  O  O352  1  0.69167259  0.41685176  0.06258997  1
  O  O353  1  0.69480328  0.41602173  0.31152695  1
  O  O354  1  0.69123894  0.41640709  0.56289941  1
  O  O355  1  0.69354337  0.41632203  0.81082595  1
  O  O356  1  0.69105889  0.74999206  0.06208528  1
  O  O357  1  0.69426888  0.75038970  0.31144462  1
  O  O358  1  0.69224579  0.75002676  0.56307565  1
  O  O359  1  0.69015792  0.74984834  0.81219561  1
  O  O360  1  0.30619588  0.24961091  0.18845818  1
  O  O361  1  0.30949923  0.24985892  0.43777007  1
  O  O362  1  0.31041397  0.24978378  0.68704609  1
  O  O363  1  0.30654638  0.24939305  0.93809591  1
  O  O364  1  0.30575180  0.58388683  0.18787523  1
  O  O365  1  0.30590855  0.58385857  0.43839083  1
  O  O366  1  0.30782237  0.58426760  0.68875640  1
  O  O367  1  0.30847809  0.58405903  0.93723118  1
  O  O368  1  0.30589338  0.91634336  0.18782325  1
  O  O369  1  0.30526491  0.91656441  0.43836207  1
  O  O370  1  0.30649033  0.91607900  0.68845515  1
  O  O371  1  0.30729984  0.91687082  0.93816241  1
  O  O372  1  0.80858050  0.24946647  0.18755868  1
  O  O373  1  0.80946685  0.24926662  0.43781369  1
  O  O374  1  0.80892680  0.24930613  0.68763442  1
  O  O375  1  0.80919517  0.24926169  0.93781054  1
  O  O376  1  0.80692023  0.58382652  0.18861346  1
  O  O377  1  0.80880205  0.58401099  0.43800083  1
  O  O378  1  0.80868256  0.58388948  0.68732285  1
  O  O379  1  0.80596440  0.58397618  0.93819133  1
  O  O380  1  0.80826158  0.91676098  0.18697278  1
  O  O381  1  0.80664103  0.91681594  0.43910660  1
  O  O382  1  0.80904528  0.91659524  0.68771404  1
  O  O383  1  0.80820448  0.91648942  0.93765996  1
  O  O384  1  0.23238459  0.24936469  0.03922702  1
  O  O385  1  0.23242441  0.24870492  0.28994199  1
  O  O386  1  0.23595285  0.24961623  0.53895964  1
  O  O387  1  0.23504144  0.24930251  0.78730485  1
  O  O388  1  0.23260837  0.58360967  0.03717477  1
  O  O389  1  0.23334024  0.58412787  0.29024404  1
  O  O390  1  0.23330138  0.58455198  0.54061846  1
  O  O391  1  0.23483606  0.58396790  0.79035129  1
  O  O392  1  0.23374270  0.91684592  0.03945316  1
  O  O393  1  0.23193638  0.91726178  0.28918717  1
  O  O394  1  0.23197291  0.91610518  0.54002153  1
  O  O395  1  0.23362091  0.91650274  0.79047026  1
  O  O396  1  0.73568094  0.24950887  0.03876538  1
  O  O397  1  0.73347675  0.24958817  0.28823352  1
  O  O398  1  0.73500427  0.24952328  0.53818414  1
  O  O399  1  0.73336073  0.24915019  0.78770600  1
  O  O400  1  0.73314308  0.58392635  0.04013448  1
  O  O401  1  0.73467724  0.58378851  0.29099443  1
  O  O402  1  0.73390414  0.58426102  0.53841813  1
  O  O403  1  0.73385708  0.58328810  0.78784995  1
  O  O404  1  0.73366003  0.91688901  0.03806028  1
  O  O405  1  0.73293383  0.91680669  0.28732236  1
  O  O406  1  0.73279864  0.91598639  0.54024562  1
  O  O407  1  0.73304980  0.91711945  0.78720808  1
  O  O408  1  0.26707066  0.08311496  0.20981889  1
  O  O409  1  0.26665959  0.08267104  0.46316971  1
  O  O410  1  0.26578556  0.08277018  0.70988768  1
  O  O411  1  0.26686205  0.08381820  0.96203580  1
  O  O412  1  0.26625301  0.41618715  0.20950017  1
  O  O413  1  0.26654123  0.41644871  0.46005470  1
  O  O414  1  0.26728356  0.41705548  0.70966248  1
  O  O415  1  0.26597329  0.41592920  0.95933689  1
  O  O416  1  0.26573556  0.75038539  0.21155350  1
  O  O417  1  0.26511475  0.75081545  0.46212749  1
  O  O418  1  0.26603700  0.75016596  0.71213152  1
  O  O419  1  0.26438213  0.75044657  0.96194197  1
  O  O420  1  0.76547683  0.08307676  0.20937273  1
  O  O421  1  0.76547708  0.08254492  0.46142575  1
  O  O422  1  0.76464048  0.08298638  0.71076989  1
  O  O423  1  0.76666763  0.08261719  0.96187432  1
  O  O424  1  0.76813183  0.41654548  0.20997552  1
  O  O425  1  0.76573763  0.41714617  0.46231363  1
  O  O426  1  0.76555897  0.41642202  0.70837331  1
  O  O427  1  0.76574097  0.41585176  0.96141565  1
  O  O428  1  0.76785121  0.75029342  0.21000435  1
  O  O429  1  0.76707783  0.75098757  0.46232524  1
  O  O430  1  0.76436796  0.75035860  0.71158491  1
  O  O431  1  0.76447217  0.75087931  0.96057172  1
  O  O432  1  0.01666938  0.08335097  0.16282466  1
  O  O433  1  0.01632000  0.08363661  0.41429398  1
  O  O434  1  0.01730773  0.08267479  0.66517486  1
  O  O435  1  0.01462417  0.08267846  0.91632201  1
  O  O436  1  0.01562701  0.41658312  0.16578976  1
  O  O437  1  0.01430356  0.41646394  0.41318351  1
  O  O438  1  0.01587773  0.41629371  0.66629789  1
  O  O439  1  0.01606336  0.41578929  0.91539782  1
  O  O440  1  0.01698721  0.75069016  0.16487556  1
  O  O441  1  0.01565885  0.75017528  0.41272712  1
  O  O442  1  0.01628946  0.75084747  0.66240871  1
  O  O443  1  0.01734214  0.75094913  0.91477926  1
  O  O444  1  0.51681889  0.08292887  0.16264382  1
  O  O445  1  0.51412156  0.08315071  0.41299896  1
  O  O446  1  0.51757023  0.08307390  0.66193672  1
  O  O447  1  0.51859193  0.08289100  0.91498908  1
  O  O448  1  0.51877043  0.41670960  0.16453272  1
  O  O449  1  0.51677930  0.41523706  0.41481674  1
  O  O450  1  0.51888746  0.41707773  0.66413213  1
  O  O451  1  0.51691190  0.41695112  0.91557054  1
  O  O452  1  0.51791224  0.75051035  0.16515352  1
  O  O453  1  0.51470070  0.75038512  0.41294073  1
  O  O454  1  0.51675194  0.75036469  0.66172905  1
  O  O455  1  0.51710745  0.75062158  0.91265669  1
  O  O456  1  0.48549541  0.24956060  0.08685918  1
  O  O457  1  0.48252926  0.24946263  0.33460709  1
  O  O458  1  0.48397168  0.24901022  0.58661864  1
  O  O459  1  0.48522987  0.24964294  0.83426250  1
  O  O460  1  0.48422989  0.58419608  0.08494897  1
  O  O461  1  0.48487807  0.58382294  0.33743129  1
  O  O462  1  0.48488335  0.58335293  0.58285733  1
  O  O463  1  0.48218646  0.58419980  0.83445677  1
  O  O464  1  0.48600553  0.91661334  0.08648425  1
  O  O465  1  0.48488582  0.91696392  0.33687401  1
  O  O466  1  0.48549737  0.91646267  0.58550996  1
  O  O467  1  0.48617866  0.91696376  0.83580290  1
  O  O468  1  0.98378116  0.24928898  0.08775427  1
  O  O469  1  0.98253553  0.24995276  0.33514455  1
  O  O470  1  0.98159674  0.24946765  0.58531386  1
  O  O471  1  0.98237066  0.24879873  0.83798258  1
  O  O472  1  0.98414734  0.58374884  0.08423038  1
  O  O473  1  0.98133468  0.58417454  0.33550498  1
  O  O474  1  0.98139018  0.58407971  0.58548084  1
  O  O475  1  0.98460265  0.58442580  0.83659895  1
  O  O476  1  0.98324479  0.91652380  0.08813760  1
  O  O477  1  0.98544227  0.91677463  0.33663768  1
  O  O478  1  0.98263610  0.91664295  0.58424646  1
  O  O479  1  0.98121488  0.91652369  0.83553706  1
  O  O480  1  0.08769386  0.31376974  0.07714134  1
  O  O481  1  0.08662433  0.31486296  0.32632338  1
  O  O482  1  0.08565507  0.31389217  0.57714136  1
  O  O483  1  0.08585936  0.31421643  0.82749248  1
  O  O484  1  0.08775349  0.64980775  0.07792194  1
  O  O485  1  0.08521806  0.64941619  0.32763961  1
  O  O486  1  0.08519855  0.64928579  0.57735321  1
  O  O487  1  0.08799487  0.64986269  0.82847377  1
  O  O488  1  0.08658172  0.98211083  0.07804424  1
  O  O489  1  0.08969613  0.98062153  0.32718688  1
  O  O490  1  0.08672373  0.98198082  0.57705507  1
  O  O491  1  0.08520324  0.98098438  0.82751126  1
  O  O492  1  0.58908342  0.31489655  0.07880875  1
  O  O493  1  0.58705098  0.31408668  0.32640164  1
  O  O494  1  0.58722824  0.31476129  0.57758380  1
  O  O495  1  0.58988440  0.31313146  0.82704188  1
  O  O496  1  0.58791643  0.64924027  0.07854431  1
  O  O497  1  0.58842451  0.64865859  0.32767704  1
  O  O498  1  0.58850368  0.64924027  0.57647749  1
  O  O499  1  0.58601943  0.64941894  0.82701374  1
  O  O500  1  0.58984514  0.98162287  0.07817449  1
  O  O501  1  0.58880077  0.98154472  0.32741542  1
  O  O502  1  0.58932555  0.98155163  0.57736332  1
  O  O503  1  0.58991388  0.98211720  0.82804603  1
  O  O504  1  0.41302065  0.01803619  0.17312942  1
  O  O505  1  0.41009166  0.01912218  0.42291787  1
  O  O506  1  0.41427076  0.01806847  0.67269692  1
  O  O507  1  0.41439846  0.01822018  0.92373299  1
  O  O508  1  0.41472180  0.35182026  0.17286845  1
  O  O509  1  0.41288613  0.35026817  0.42158046  1
  O  O510  1  0.41561543  0.35078718  0.67244627  1
  O  O511  1  0.41311617  0.35242542  0.92278329  1
  O  O512  1  0.41368893  0.68544020  0.17347541  1
  O  O513  1  0.41063122  0.68586652  0.42285730  1
  O  O514  1  0.41293460  0.68537606  0.67221123  1
  O  O515  1  0.41373068  0.68469178  0.92206497  1
  O  O516  1  0.91321715  0.01780940  0.17246278  1
  O  O517  1  0.91255440  0.01893557  0.42232602  1
  O  O518  1  0.91340040  0.01746916  0.67209082  1
  O  O519  1  0.91069631  0.01750747  0.92297844  1
  O  O520  1  0.91211302  0.35029964  0.17257492  1
  O  O521  1  0.91072861  0.35137882  0.42107620  1
  O  O522  1  0.91193481  0.35138939  0.67187861  1
  O  O523  1  0.91221815  0.35066812  0.92222909  1
  O  O524  1  0.91270893  0.68626370  0.17325926  1
  O  O525  1  0.91183318  0.68473543  0.42233634  1
  O  O526  1  0.91263387  0.68571808  0.67181478  1
  O  O527  1  0.91352445  0.68624995  0.92302474  1
  O  O528  1  0.16275971  0.01835537  0.20198215  1
  O  O529  1  0.16304141  0.01754603  0.45358431  1
  O  O530  1  0.16141805  0.01832516  0.70187324  1
  O  O531  1  0.16310595  0.01915334  0.95234822  1
  O  O532  1  0.16282436  0.35019848  0.20302856  1
  O  O533  1  0.16261763  0.35154458  0.45259393  1
  O  O534  1  0.16369209  0.35139691  0.70172875  1
  O  O535  1  0.16231209  0.35060030  0.95257687  1
  O  O536  1  0.16149078  0.68617544  0.20210492  1
  O  O537  1  0.16126574  0.68600479  0.45185721  1
  O  O538  1  0.16215850  0.68530535  0.70213978  1
  O  O539  1  0.16095474  0.68448582  0.95273411  1
  O  O540  1  0.66128512  0.01860225  0.20241119  1
  O  O541  1  0.66207612  0.01685935  0.45375968  1
  O  O542  1  0.66059062  0.01841333  0.70293933  1
  O  O543  1  0.66292547  0.01726671  0.95269825  1
  O  O544  1  0.66444665  0.35045468  0.20216406  1
  O  O545  1  0.66232778  0.35243753  0.45260981  1
  O  O546  1  0.66219639  0.35003394  0.70204315  1
  O  O547  1  0.66198637  0.35152247  0.95309632  1
  O  O548  1  0.66361092  0.68587350  0.20189457  1
  O  O549  1  0.66389276  0.68523426  0.45276095  1
  O  O550  1  0.66039622  0.68610970  0.70181345  1
  O  O551  1  0.66040068  0.68649309  0.95183491  1
  O  O552  1  0.33632198  0.31397586  0.04785020  1
  O  O553  1  0.33660661  0.31360642  0.29815299  1
  O  O554  1  0.34028811  0.31361381  0.54786217  1
  O  O555  1  0.33840310  0.31482409  0.79710834  1
  O  O556  1  0.33612726  0.64876547  0.04751880  1
  O  O557  1  0.33701644  0.64964663  0.29674863  1
  O  O558  1  0.33694517  0.65010159  0.54707660  1
  O  O559  1  0.33811522  0.65050538  0.79792668  1
  O  O560  1  0.33729024  0.98277477  0.04731521  1
  O  O561  1  0.33605036  0.98166179  0.29703983  1
  O  O562  1  0.33598947  0.98118069  0.54792767  1
  O  O563  1  0.33787044  0.98054007  0.79755489  1
  O  O564  1  0.84005156  0.31304013  0.04793778  1
  O  O565  1  0.83692506  0.31568167  0.29728275  1
  O  O566  1  0.83873721  0.31448404  0.54775191  1
  O  O567  1  0.83691162  0.31457709  0.79782867  1
  O  O568  1  0.83687531  0.64894330  0.04737183  1
  O  O569  1  0.83857722  0.64885442  0.29767574  1
  O  O570  1  0.83738284  0.65008136  0.54778155  1
  O  O571  1  0.83722465  0.64865369  0.79740410  1
  O  O572  1  0.83733224  0.98240201  0.04773207  1
  O  O573  1  0.83671338  0.98109776  0.29731274  1
  O  O574  1  0.83670002  0.98078812  0.54913075  1
  O  O575  1  0.83696358  0.98159490  0.79788156  1
  O  O576  1  0.41283239  0.14791302  0.17294240  1
  O  O577  1  0.41086629  0.14928829  0.42153083  1
  O  O578  1  0.41395412  0.14817773  0.67173980  1
  O  O579  1  0.41466975  0.14822169  0.92361952  1
  O  O580  1  0.41491206  0.48197679  0.17264606  1
  O  O581  1  0.41325200  0.48063253  0.42272183  1
  O  O582  1  0.41461309  0.48102812  0.67202336  1
  O  O583  1  0.41331061  0.48290914  0.92219662  1
  O  O584  1  0.41378950  0.81536923  0.17399584  1
  O  O585  1  0.41121845  0.81582632  0.42329180  1
  O  O586  1  0.41310316  0.81534515  0.67302124  1
  O  O587  1  0.41343061  0.81483708  0.92259558  1
  O  O588  1  0.91277989  0.14799095  0.17187929  1
  O  O589  1  0.91255749  0.14909655  0.42153362  1
  O  O590  1  0.91328385  0.14762077  0.67233884  1
  O  O591  1  0.91059828  0.14764119  0.92308862  1
  O  O592  1  0.91107923  0.48046284  0.17282859  1
  O  O593  1  0.91086775  0.48177641  0.42127640  1
  O  O594  1  0.91227008  0.48187785  0.67206974  1
  O  O595  1  0.91248820  0.48102664  0.92269500  1
  O  O596  1  0.91314232  0.81625179  0.17355213  1
  O  O597  1  0.91180702  0.81475953  0.42298796  1
  O  O598  1  0.91260474  0.81591727  0.67146221  1
  O  O599  1  0.91352750  0.81630916  0.92259647  1
  O  O600  1  0.08736895  0.18366880  0.07735984  1
  O  O601  1  0.08652991  0.18493785  0.32617274  1
  O  O602  1  0.08528611  0.18371423  0.57750049  1
  O  O603  1  0.08614295  0.18417899  0.82806210  1
  O  O604  1  0.08854122  0.51958396  0.07702306  1
  O  O605  1  0.08515494  0.51926562  0.32726028  1
  O  O606  1  0.08511782  0.51903146  0.57707800  1
  O  O607  1  0.08804843  0.51946751  0.82749316  1
  O  O608  1  0.08703374  0.85192387  0.07880072  1
  O  O609  1  0.08871940  0.85050472  0.32804717  1
  O  O610  1  0.08688798  0.85191861  0.57689789  1
  O  O611  1  0.08498774  0.85096385  0.82757523  1
  O  O612  1  0.58908035  0.18453656  0.07871002  1
  O  O613  1  0.58650230  0.18431581  0.32615398  1
  O  O614  1  0.58768974  0.18448975  0.57744352  1
  O  O615  1  0.58850633  0.18306232  0.82732796  1
  O  O616  1  0.58791893  0.51875126  0.07846967  1
  O  O617  1  0.58836975  0.51852200  0.32816700  1
  O  O618  1  0.58941687  0.51905118  0.57695892  1
  O  O619  1  0.58618071  0.51937337  0.82712660  1
  O  O620  1  0.58972831  0.85142076  0.07841266  1
  O  O621  1  0.58867399  0.85169258  0.32710455  1
  O  O622  1  0.58926715  0.85139598  0.57747625  1
  O  O623  1  0.58991863  0.85200248  0.82797049  1
  O  O624  1  0.33626184  0.18392089  0.04754094  1
  O  O625  1  0.33653355  0.18353158  0.29738735  1
  O  O626  1  0.33943377  0.18346568  0.54709749  1
  O  O627  1  0.33865841  0.18454056  0.79703396  1
  O  O628  1  0.33622681  0.51853607  0.04723130  1
  O  O629  1  0.33735398  0.51935073  0.29697383  1
  O  O630  1  0.33728753  0.51979713  0.54765539  1
  O  O631  1  0.33946861  0.52031962  0.79819560  1
  O  O632  1  0.33773144  0.85258157  0.04778835  1
  O  O633  1  0.33536595  0.85148924  0.29759840  1
  O  O634  1  0.33587631  0.85112895  0.54752844  1
  O  O635  1  0.33708665  0.85032942  0.79750464  1
  O  O636  1  0.83874744  0.18304847  0.04755023  1
  O  O637  1  0.83767742  0.18560926  0.29782234  1
  O  O638  1  0.83861768  0.18448000  0.54806545  1
  O  O639  1  0.83729739  0.18456092  0.79774600  1
  O  O640  1  0.83691140  0.51883232  0.04732604  1
  O  O641  1  0.83844992  0.51854229  0.29770478  1
  O  O642  1  0.83787358  0.51996149  0.54831483  1
  O  O643  1  0.83752332  0.51844219  0.79699379  1
  O  O644  1  0.83770288  0.85253382  0.04800954  1
  O  O645  1  0.83635362  0.85105893  0.29694048  1
  O  O646  1  0.83689037  0.85094078  0.54845159  1
  O  O647  1  0.83645576  0.85167167  0.79827974  1
  O  O648  1  0.16289899  0.14832597  0.20197168  1
  O  O649  1  0.16332280  0.14772248  0.45277282  1
  O  O650  1  0.16194986  0.14823722  0.70129253  1
  O  O651  1  0.16324150  0.14934446  0.95284557  1
  O  O652  1  0.16216380  0.48056059  0.20268611  1
  O  O653  1  0.16275590  0.48179857  0.45240152  1
  O  O654  1  0.16328646  0.48170701  0.70204698  1
  O  O655  1  0.16228657  0.48120132  0.95242118  1
  O  O656  1  0.16220683  0.81623754  0.20275588  1
  O  O657  1  0.16129752  0.81600549  0.45294406  1
  O  O658  1  0.16210382  0.81519692  0.70203452  1
  O  O659  1  0.16028768  0.81455150  0.95210243  1
  O  O660  1  0.66186718  0.14868934  0.20213632  1
  O  O661  1  0.66177872  0.14707786  0.45275319  1
  O  O662  1  0.66112744  0.14851695  0.70258345  1
  O  O663  1  0.66285619  0.14720337  0.95202658  1
  O  O664  1  0.66368643  0.48052827  0.20214188  1
  O  O665  1  0.66250251  0.48286961  0.45346364  1
  O  O666  1  0.66112884  0.48027362  0.70164039  1
  O  O667  1  0.66256856  0.48172156  0.95256107  1
  O  O668  1  0.66385489  0.81574771  0.20201251  1
  O  O669  1  0.66311115  0.81534970  0.45332713  1
  O  O670  1  0.66096760  0.81619370  0.70266378  1
  O  O671  1  0.66093492  0.81657347  0.95303863  1
