# generated using pymatgen
data_Na2MnFe(PO4)2
_symmetry_space_group_name_H-M   'P 1'
_cell_length_a   21.08711746
_cell_length_b   18.93927583
_cell_length_c   20.04605364
_cell_angle_alpha   89.99944577
_cell_angle_beta   90.00480064
_cell_angle_gamma   90.00216651
_symmetry_Int_Tables_number   1
_chemical_formula_structural   Na2MnFe(PO4)2
_chemical_formula_sum   'Na96 Mn48 Fe48 P96 O384'
_cell_volume   8005.88730793
_cell_formula_units_Z   48
loop_
 _symmetry_equiv_pos_site_id
 _symmetry_equiv_pos_as_xyz
  1  'x, y, z'
loop_
 _atom_site_type_symbol
 _atom_site_label
 _atom_site_symmetry_multiplicity
 _atom_site_fract_x
 _atom_site_fract_y
 _atom_site_fract_z
 _atom_site_occupancy
  Na  Na0  1  0.00102908  -0.00054021  -0.00098007  1
  Na  Na1  1  -0.00018390  -0.00077802  0.24934597  1
  Na  Na2  1  0.00052337  -0.00046468  0.50158273  1
  Na  Na3  1  0.00135149  -0.00006421  0.75008099  1
  Na  Na4  1  -0.00009033  0.33329471  0.00052299  1
  Na  Na5  1  -0.00136045  0.33296351  0.25051171  1
  Na  Na6  1  -0.00165395  0.33310937  0.49956717  1
  Na  Na7  1  -0.00027014  0.33412446  0.74925991  1
  Na  Na8  1  -0.00109014  0.66650419  -0.00078401  1
  Na  Na9  1  0.00070943  0.66781455  0.25025152  1
  Na  Na10  1  -0.00094285  0.66678207  0.49977184  1
  Na  Na11  1  -0.00080297  0.66655910  0.75011532  1
  Na  Na12  1  0.49939097  -0.00033776  -0.00099364  1
  Na  Na13  1  0.49829554  -0.00176859  0.25038004  1
  Na  Na14  1  0.50079067  -0.00015058  0.50026567  1
  Na  Na15  1  0.49817525  -0.00143890  0.75063689  1
  Na  Na16  1  0.50235455  0.33414903  -0.00006863  1
  Na  Na17  1  0.49905418  0.33245238  0.25065654  1
  Na  Na18  1  0.50011054  0.33356652  0.49897561  1
  Na  Na19  1  0.49993939  0.33268714  0.75035915  1
  Na  Na20  1  0.49975347  0.66707424  0.00014533  1
  Na  Na21  1  0.49913119  0.66660016  0.24986871  1
  Na  Na22  1  0.49959640  0.66617593  0.50024122  1
  Na  Na23  1  0.50097168  0.66744185  0.74960264  1
  Na  Na24  1  0.24950919  -0.00052299  0.12546440  1
  Na  Na25  1  0.24925158  -0.00044721  0.37539855  1
  Na  Na26  1  0.24950297  -0.00077889  0.62379166  1
  Na  Na27  1  0.24973770  -0.00094978  0.87523425  1
  Na  Na28  1  0.24894504  0.33347584  0.12472177  1
  Na  Na29  1  0.24951353  0.33338046  0.37589814  1
  Na  Na30  1  0.25089329  0.33421751  0.62637810  1
  Na  Na31  1  0.24762545  0.33253272  0.87364118  1
  Na  Na32  1  0.24788502  0.66607856  0.12535916  1
  Na  Na33  1  0.25131948  0.66705876  0.37547480  1
  Na  Na34  1  0.25089099  0.66699716  0.62470983  1
  Na  Na35  1  0.25031622  0.66758251  0.87476927  1
  Na  Na36  1  0.75084295  -0.00089872  0.12556265  1
  Na  Na37  1  0.75185356  -0.00026315  0.37422656  1
  Na  Na38  1  0.75093930  -0.00026295  0.62418356  1
  Na  Na39  1  0.75051491  -0.00052972  0.87531735  1
  Na  Na40  1  0.75081976  0.33332669  0.12447647  1
  Na  Na41  1  0.75181862  0.33432780  0.37431814  1
  Na  Na42  1  0.74994612  0.33333801  0.62636714  1
  Na  Na43  1  0.74949919  0.33284998  0.87522897  1
  Na  Na44  1  0.75049706  0.66713861  0.12365743  1
  Na  Na45  1  0.75033311  0.66723955  0.37605018  1
  Na  Na46  1  0.74970801  0.66667049  0.62615415  1
  Na  Na47  1  0.75044760  0.66739596  0.87443806  1
  Na  Na48  1  -0.00060365  0.16740196  -0.00039206  1
  Na  Na49  1  0.00142975  0.16606904  0.24965226  1
  Na  Na50  1  0.00120634  0.16536101  0.50016162  1
  Na  Na51  1  -0.00124626  0.16694933  0.75036843  1
  Na  Na52  1  0.00191317  0.49995683  0.00016788  1
  Na  Na53  1  -0.00110401  0.50100445  0.25091533  1
  Na  Na54  1  -0.00024979  0.50033678  0.50017747  1
  Na  Na55  1  0.00078331  0.50093901  0.74879772  1
  Na  Na56  1  0.00023143  0.83260877  -0.00078154  1
  Na  Na57  1  -0.00116383  0.83346905  0.24957891  1
  Na  Na58  1  -0.00161830  0.83350460  0.50076527  1
  Na  Na59  1  0.00030086  0.83260606  0.75023137  1
  Na  Na60  1  0.50104428  0.16598255  -0.00134154  1
  Na  Na61  1  0.50058940  0.16626703  0.25051286  1
  Na  Na62  1  0.49932751  0.16703857  0.49963237  1
  Na  Na63  1  0.49858684  0.16711341  0.75114681  1
  Na  Na64  1  0.50134088  0.49999652  0.00103001  1
  Na  Na65  1  0.49906281  0.50080263  0.25059684  1
  Na  Na66  1  0.50041477  0.50099775  0.49956755  1
  Na  Na67  1  0.50241220  0.49991546  0.74978312  1
  Na  Na68  1  0.49854203  0.83338474  -0.00073615  1
  Na  Na69  1  0.49836293  0.83368095  0.25010426  1
  Na  Na70  1  0.49950019  0.83327915  0.49990294  1
  Na  Na71  1  0.49966237  0.83254095  0.75001584  1
  Na  Na72  1  0.24700010  0.16768336  0.12605086  1
  Na  Na73  1  0.24816789  0.16673237  0.37569167  1
  Na  Na74  1  0.25058541  0.16591538  0.62511013  1
  Na  Na75  1  0.25076876  0.16594983  0.87401523  1
  Na  Na76  1  0.25003265  0.49977684  0.12464311  1
  Na  Na77  1  0.25151393  0.50011454  0.37565617  1
  Na  Na78  1  0.25003732  0.50104307  0.62560483  1
  Na  Na79  1  0.24677176  0.50196329  0.87387363  1
  Na  Na80  1  0.24974561  0.83359992  0.12482174  1
  Na  Na81  1  0.25053918  0.83273704  0.37526405  1
  Na  Na82  1  0.24957996  0.83350725  0.62428656  1
  Na  Na83  1  0.25026072  0.83288829  0.87551983  1
  Na  Na84  1  0.75039680  0.16689434  0.12449304  1
  Na  Na85  1  0.74965123  0.16745225  0.37394978  1
  Na  Na86  1  0.75169667  0.16596066  0.62508499  1
  Na  Na87  1  0.75147623  0.16631204  0.87596122  1
  Na  Na88  1  0.75044728  0.50074299  0.12339151  1
  Na  Na89  1  0.75025569  0.50071140  0.37557203  1
  Na  Na90  1  0.75099972  0.49990124  0.62639212  1
  Na  Na91  1  0.74884880  0.50136642  0.87452012  1
  Na  Na92  1  0.75165215  0.83273995  0.12572476  1
  Na  Na93  1  0.75256152  0.83234326  0.37543474  1
  Na  Na94  1  0.74925538  0.83313109  0.62478858  1
  Na  Na95  1  0.75004920  0.83286293  0.87444316  1
  Mn  Mn96  1  0.35771217  0.41724418  0.75282113  1
  Mn  Mn97  1  0.60783127  0.75075210  0.12301673  1
  Mn  Mn98  1  0.64236193  0.58404107  0.99716855  1
  Mn  Mn99  1  0.39159462  0.58324241  0.12696893  1
  Mn  Mn100  1  0.35676502  0.08407564  0.25231360  1
  Mn  Mn101  1  0.10791220  0.74924087  0.87242585  1
  Mn  Mn102  1  0.14207734  0.24927587  0.74704337  1
  Mn  Mn103  1  0.35760122  0.08314091  0.50247556  1
  Mn  Mn104  1  0.89243435  0.91608612  0.62757514  1
  Mn  Mn105  1  0.39214045  0.25061258  0.87794185  1
  Mn  Mn106  1  0.10723681  0.75082217  0.37327545  1
  Mn  Mn107  1  0.14198096  0.91564448  0.49727836  1
  Mn  Mn108  1  0.60769591  0.08261378  0.12303562  1
  Mn  Mn109  1  0.60776458  0.08276672  0.87234685  1
  Mn  Mn110  1  0.64274782  0.25083501  0.24705542  1
  Mn  Mn111  1  0.89134092  0.58401697  0.37785346  1
  Mn  Mn112  1  0.60833488  0.08268208  0.37318015  1
  Mn  Mn113  1  0.64271416  0.91588198  0.24774784  1
  Mn  Mn114  1  0.64272614  0.24948174  0.74771428  1
  Mn  Mn115  1  0.39154902  0.24954184  0.12657702  1
  Mn  Mn116  1  0.89226927  0.24882166  0.37765590  1
  Mn  Mn117  1  0.14239184  0.58330349  0.24828247  1
  Mn  Mn118  1  0.85874334  0.08313578  0.25256590  1
  Mn  Mn119  1  0.89169306  0.25007226  0.62700807  1
  Mn  Mn120  1  0.60792354  0.41671984  0.62224079  1
  Mn  Mn121  1  0.60842729  0.41693960  0.37264081  1
  Mn  Mn122  1  0.10792375  0.08402793  0.87223010  1
  Mn  Mn123  1  0.39170155  0.24971637  0.37737621  1
  Mn  Mn124  1  0.10789119  0.41743772  0.12310537  1
  Mn  Mn125  1  0.85788152  0.41688713  0.75344566  1
  Mn  Mn126  1  0.60781237  0.75016670  0.37322539  1
  Mn  Mn127  1  0.64212666  0.91676318  0.74787565  1
  Mn  Mn128  1  0.39242052  0.58317816  0.87682035  1
  Mn  Mn129  1  0.10754530  0.08279040  0.12234832  1
  Mn  Mn130  1  0.85809229  0.41726053  0.00171043  1
  Mn  Mn131  1  0.10738387  0.41626077  0.37277566  1
  Mn  Mn132  1  0.39256238  0.91668498  0.62753823  1
  Mn  Mn133  1  0.89240395  0.58350066  0.12742727  1
  Mn  Mn134  1  0.35716735  0.41685350  0.00150865  1
  Mn  Mn135  1  0.14207705  0.25092096  0.49838246  1
  Mn  Mn136  1  0.35714502  0.08356620  0.00275226  1
  Mn  Mn137  1  0.60808978  0.41630318  0.12349010  1
  Mn  Mn138  1  0.85779909  0.08228038  0.00248336  1
  Mn  Mn139  1  0.10726325  0.41711945  0.62224474  1
  Mn  Mn140  1  0.35820383  0.41712069  0.50283744  1
  Mn  Mn141  1  0.60821847  0.08308220  0.62293351  1
  Mn  Mn142  1  0.35700227  0.74957618  0.25218538  1
  Mn  Mn143  1  0.89245632  0.91633730  0.87730818  1
  Fe  Fe144  1  0.14338385  0.91592101  0.74871790  1
  Fe  Fe145  1  0.10740798  0.08288671  0.62364845  1
  Fe  Fe146  1  0.39204669  0.91606030  0.87701193  1
  Fe  Fe147  1  0.85794726  0.74906113  0.25141907  1
  Fe  Fe148  1  0.85775733  0.08347201  0.50158083  1
  Fe  Fe149  1  0.60806987  0.41727850  0.87344606  1
  Fe  Fe150  1  0.64225887  0.91648795  0.99880747  1
  Fe  Fe151  1  0.89292295  0.24993065  0.12662839  1
  Fe  Fe152  1  0.64315307  0.58332259  0.49876113  1
  Fe  Fe153  1  0.85753205  0.41766140  0.25143570  1
  Fe  Fe154  1  0.64361422  0.91677056  0.49793444  1
  Fe  Fe155  1  0.85688999  0.75023786  0.75145406  1
  Fe  Fe156  1  0.85685265  0.41703981  0.50154998  1
  Fe  Fe157  1  0.64274266  0.24973067  0.49894025  1
  Fe  Fe158  1  0.14216624  0.58359578  0.99781115  1
  Fe  Fe159  1  0.39284703  0.25035021  0.62635565  1
  Fe  Fe160  1  0.39335935  0.58314731  0.62703922  1
  Fe  Fe161  1  0.10703713  0.41684393  0.87353001  1
  Fe  Fe162  1  0.35668824  0.74975872  0.00152205  1
  Fe  Fe163  1  0.10729920  0.74977121  0.62331456  1
  Fe  Fe164  1  0.10682166  0.75032478  0.12301633  1
  Fe  Fe165  1  0.14200908  0.91660109  0.24818823  1
  Fe  Fe166  1  0.60724202  0.74996140  0.62318841  1
  Fe  Fe167  1  0.85677778  0.74960572  0.50284165  1
  Fe  Fe168  1  0.89308334  0.91652909  0.12601218  1
  Fe  Fe169  1  0.14133915  0.25041845  0.99780292  1
  Fe  Fe170  1  0.10703654  0.08279184  0.37379468  1
  Fe  Fe171  1  0.89252999  0.58387634  0.62667564  1
  Fe  Fe172  1  0.35726075  0.75034989  0.75128065  1
  Fe  Fe173  1  0.39196068  0.91604987  0.37660449  1
  Fe  Fe174  1  0.39291321  0.58374682  0.37726320  1
  Fe  Fe175  1  0.35751653  0.74959821  0.50219594  1
  Fe  Fe176  1  0.14290248  0.91637572  0.99837212  1
  Fe  Fe177  1  0.14210128  0.25035702  0.24849179  1
  Fe  Fe178  1  0.64290550  0.58365522  0.24884081  1
  Fe  Fe179  1  0.14233383  0.58479799  0.74725046  1
  Fe  Fe180  1  0.35732484  0.41623186  0.25141165  1
  Fe  Fe181  1  0.89295612  0.91706586  0.37672030  1
  Fe  Fe182  1  0.60694553  0.74991212  0.87335166  1
  Fe  Fe183  1  0.35704539  0.08236477  0.75090781  1
  Fe  Fe184  1  0.85712008  0.75063079  0.00130646  1
  Fe  Fe185  1  0.89300586  0.25092157  0.87698203  1
  Fe  Fe186  1  0.64327842  0.24947119  0.99851714  1
  Fe  Fe187  1  0.39193813  0.91695545  0.12654369  1
  Fe  Fe188  1  0.89319651  0.58286160  0.87610911  1
  Fe  Fe189  1  0.64319557  0.58388806  0.74821360  1
  Fe  Fe190  1  0.14323168  0.58360456  0.49862275  1
  Fe  Fe191  1  0.85838808  0.08268310  0.75163755  1
  P  P192  1  0.05373433  0.25028797  0.11064018  1
  P  P193  1  0.05377440  0.24908692  0.35974647  1
  P  P194  1  0.05280177  0.24931844  0.60994305  1
  P  P195  1  0.05320110  0.25113050  0.86064247  1
  P  P196  1  0.05402260  0.58465361  0.10962001  1
  P  P197  1  0.05393046  0.58375709  0.36142252  1
  P  P198  1  0.05388030  0.58502746  0.61019654  1
  P  P199  1  0.05414084  0.58288819  0.86007443  1
  P  P200  1  0.05375524  0.91553295  0.11017655  1
  P  P201  1  0.05247439  0.91700164  0.35962577  1
  P  P202  1  0.05517508  0.91577189  0.61186359  1
  P  P203  1  0.05548373  0.91615610  0.86022793  1
  P  P204  1  0.55370624  0.24959454  0.10910632  1
  P  P205  1  0.55497803  0.24982330  0.36101387  1
  P  P206  1  0.55269447  0.24975160  0.60947136  1
  P  P207  1  0.55511972  0.25056515  0.86114944  1
  P  P208  1  0.55456898  0.58370129  0.11126660  1
  P  P209  1  0.55432827  0.58385984  0.36066119  1
  P  P210  1  0.55442235  0.58440391  0.61064950  1
  P  P211  1  0.55433256  0.58412969  0.85945828  1
  P  P212  1  0.55216382  0.91635859  0.10915687  1
  P  P213  1  0.55343332  0.91612666  0.36112544  1
  P  P214  1  0.55442188  0.91562834  0.60947678  1
  P  P215  1  0.55300542  0.91530753  0.86114654  1
  P  P216  1  0.44630592  0.08252059  0.14007039  1
  P  P217  1  0.44630199  0.08223528  0.39009674  1
  P  P218  1  0.44646887  0.08393945  0.64078635  1
  P  P219  1  0.44465837  0.08214258  0.88867857  1
  P  P220  1  0.44599785  0.41630707  0.14078515  1
  P  P221  1  0.44552405  0.41755164  0.38886379  1
  P  P222  1  0.44681482  0.41712799  0.64007997  1
  P  P223  1  0.44847843  0.41739863  0.89028923  1
  P  P224  1  0.44487320  0.75088674  0.13869256  1
  P  P225  1  0.44553314  0.74973726  0.39052284  1
  P  P226  1  0.44605431  0.74911662  0.63934008  1
  P  P227  1  0.44530894  0.75020321  0.88912210  1
  P  P228  1  0.94660819  0.08294512  0.13937417  1
  P  P229  1  0.94759328  0.08201826  0.39074961  1
  P  P230  1  0.94621914  0.08288593  0.63958214  1
  P  P231  1  0.94565584  0.08375558  0.88889866  1
  P  P232  1  0.94624780  0.41640702  0.14063352  1
  P  P233  1  0.94452888  0.41703217  0.38984773  1
  P  P234  1  0.94468426  0.41800092  0.63865392  1
  P  P235  1  0.94800393  0.41747011  0.88976753  1
  P  P236  1  0.94607488  0.75080022  0.13890358  1
  P  P237  1  0.94441508  0.75100637  0.38985423  1
  P  P238  1  0.94575941  0.74908798  0.63962426  1
  P  P239  1  0.94481157  0.74899866  0.88896856  1
  P  P240  1  0.19433840  0.08288296  0.23671829  1
  P  P241  1  0.19446243  0.08313471  0.48565072  1
  P  P242  1  0.19724612  0.08179823  0.73439161  1
  P  P243  1  0.19596376  0.08318509  0.98501702  1
  P  P244  1  0.19765688  0.41630930  0.23541575  1
  P  P245  1  0.19660051  0.41821032  0.48547401  1
  P  P246  1  0.19470635  0.41784185  0.73608731  1
  P  P247  1  0.19542381  0.41704202  0.98398008  1
  P  P248  1  0.19528172  0.75110428  0.23468077  1
  P  P249  1  0.19670529  0.74872713  0.48628597  1
  P  P250  1  0.19714836  0.75027847  0.73439765  1
  P  P251  1  0.19595912  0.75007636  0.98630431  1
  P  P252  1  0.69736369  0.08295788  0.23479209  1
  P  P253  1  0.69837159  0.08310684  0.48506036  1
  P  P254  1  0.69870293  0.08303342  0.73497920  1
  P  P255  1  0.69641698  0.08247591  0.98536860  1
  P  P256  1  0.69841072  0.41829070  0.23486905  1
  P  P257  1  0.69771218  0.41687398  0.48562193  1
  P  P258  1  0.69549794  0.41760234  0.73647401  1
  P  P259  1  0.69626032  0.41616808  0.98445413  1
  P  P260  1  0.69810078  0.74905405  0.23537116  1
  P  P261  1  0.69647951  0.74988331  0.48684753  1
  P  P262  1  0.69553554  0.74949069  0.73572741  1
  P  P263  1  0.69685767  0.75137187  0.98436015  1
  P  P264  1  0.30078664  0.25028494  0.01477833  1
  P  P265  1  0.30156068  0.25066784  0.26512005  1
  P  P266  1  0.30367298  0.25013753  0.51626262  1
  P  P267  1  0.30480752  0.24915430  0.76369201  1
  P  P268  1  0.30173809  0.58406164  0.01432716  1
  P  P269  1  0.30402212  0.58249472  0.26573564  1
  P  P270  1  0.30462934  0.58424715  0.51493539  1
  P  P271  1  0.30333821  0.58467864  0.76359587  1
  P  P272  1  0.30365219  0.91574198  0.01434529  1
  P  P273  1  0.30314396  0.91675752  0.26456670  1
  P  P274  1  0.30466748  0.91556399  0.51378754  1
  P  P275  1  0.30306561  0.91607879  0.76504039  1
  P  P276  1  0.80455786  0.25016886  0.01425751  1
  P  P277  1  0.80521902  0.25097577  0.26350379  1
  P  P278  1  0.80219843  0.25005902  0.51474038  1
  P  P279  1  0.80454539  0.24912446  0.76603617  1
  P  P280  1  0.80497242  0.58450456  0.01299427  1
  P  P281  1  0.80258322  0.58379059  0.26483951  1
  P  P282  1  0.80268877  0.58356648  0.51613696  1
  P  P283  1  0.80431212  0.58462093  0.76439812  1
  P  P284  1  0.80277621  0.91533814  0.01541130  1
  P  P285  1  0.80594411  0.91522696  0.26436938  1
  P  P286  1  0.80418419  0.91658206  0.51365028  1
  P  P287  1  0.80364448  0.91613710  0.76471232  1
  O  O288  1  0.05868058  0.25046443  0.18731275  1
  O  O289  1  0.05667849  0.25040158  0.43651764  1
  O  O290  1  0.05575388  0.25001810  0.68675615  1
  O  O291  1  0.05779327  0.25018971  0.93737333  1
  O  O292  1  0.05687875  0.58396782  0.18642949  1
  O  O293  1  0.05848021  0.58363021  0.43810244  1
  O  O294  1  0.05863532  0.58477256  0.68695241  1
  O  O295  1  0.05871361  0.58409517  0.93678294  1
  O  O296  1  0.05799103  0.91610651  0.18686082  1
  O  O297  1  0.05603862  0.91586476  0.43640846  1
  O  O298  1  0.05931833  0.91564976  0.68857630  1
  O  O299  1  0.05977610  0.91599122  0.93699584  1
  O  O300  1  0.55679013  0.24972860  0.18597074  1
  O  O301  1  0.55993439  0.25007848  0.43776868  1
  O  O302  1  0.55675355  0.24957701  0.68619308  1
  O  O303  1  0.55980111  0.24966296  0.93784831  1
  O  O304  1  0.55895578  0.58394857  0.18801037  1
  O  O305  1  0.55973412  0.58364470  0.43736200  1
  O  O306  1  0.55931848  0.58389368  0.68728330  1
  O  O307  1  0.55677873  0.58424423  0.93631493  1
  O  O308  1  0.55644508  0.91590731  0.18589130  1
  O  O309  1  0.55946958  0.91630058  0.43771639  1
  O  O310  1  0.55707400  0.91621605  0.68631138  1
  O  O311  1  0.55795096  0.91609102  0.93772599  1
  O  O312  1  0.44338513  0.08352842  0.06325478  1
  O  O313  1  0.44287916  0.08278845  0.31332774  1
  O  O314  1  0.44351701  0.08306977  0.56400287  1
  O  O315  1  0.44019995  0.08244109  0.81197901  1
  O  O316  1  0.44291203  0.41652679  0.06397522  1
  O  O317  1  0.44110640  0.41652477  0.31216828  1
  O  O318  1  0.44412999  0.41749628  0.56327885  1
  O  O319  1  0.44406941  0.41732597  0.81361529  1
  O  O320  1  0.44064591  0.74987145  0.06194222  1
  O  O321  1  0.44256748  0.74999236  0.31371089  1
  O  O322  1  0.44142011  0.74966655  0.56269620  1
  O  O323  1  0.44070993  0.74982704  0.81239839  1
  O  O324  1  0.94392405  0.08295784  0.06258081  1
  O  O325  1  0.94410674  0.08294054  0.31402285  1
  O  O326  1  0.94103225  0.08287207  0.56289369  1
  O  O327  1  0.94179515  0.08270740  0.81210574  1
  O  O328  1  0.94347072  0.41721617  0.06384355  1
  O  O329  1  0.94040230  0.41771709  0.31309437  1
  O  O330  1  0.94016799  0.41721908  0.56190650  1
  O  O331  1  0.94462843  0.41767684  0.81301943  1
  O  O332  1  0.94146231  0.75019851  0.06222906  1
  O  O333  1  0.94092926  0.74945874  0.31306089  1
  O  O334  1  0.94068218  0.74970313  0.56289852  1
  O  O335  1  0.94068977  0.75010180  0.81225349  1
  O  O336  1  0.19313874  0.08322726  0.06183586  1
  O  O337  1  0.19077699  0.08249159  0.31348202  1
  O  O338  1  0.19028081  0.08288888  0.56242602  1
  O  O339  1  0.19369835  0.08290934  0.81112261  1
  O  O340  1  0.19305615  0.41688265  0.06081620  1
  O  O341  1  0.19393421  0.41691758  0.31209101  1
  O  O342  1  0.19340667  0.41764997  0.56225282  1
  O  O343  1  0.19029609  0.41711628  0.81278733  1
  O  O344  1  0.19137777  0.75016537  0.06289606  1
  O  O345  1  0.19261398  0.75062099  0.31149737  1
  O  O346  1  0.19183117  0.74961198  0.56285597  1
  O  O347  1  0.19370375  0.74973929  0.81112474  1
  O  O348  1  0.69369785  0.08254293  0.06211592  1
  O  O349  1  0.69406209  0.08278698  0.31157133  1
  O  O350  1  0.69475208  0.08293928  0.56175559  1
  O  O351  1  0.69427465  0.08292500  0.81162989  1
  O  O352  1  0.69356001  0.41682190  0.06124908  1
  O  O353  1  0.69479749  0.41749291  0.31158876  1
  O  O354  1  0.69431742  0.41677031  0.56236623  1
  O  O355  1  0.69138383  0.41718891  0.81318756  1
  O  O356  1  0.69335664  0.75067934  0.06108184  1
  O  O357  1  0.69423963  0.74998326  0.31205637  1
  O  O358  1  0.69181612  0.74996347  0.56348673  1
  O  O359  1  0.69091022  0.75020305  0.81236439  1
  O  O360  1  0.30527335  0.24992354  0.18844497  1
  O  O361  1  0.30645127  0.24996343  0.43943425  1
  O  O362  1  0.30931357  0.25015567  0.68699880  1
  O  O363  1  0.30532084  0.25020802  0.93808725  1
  O  O364  1  0.30646723  0.58336460  0.18890500  1
  O  O365  1  0.30912270  0.58365784  0.43825390  1
  O  O366  1  0.30871783  0.58366557  0.68701860  1
  O  O367  1  0.30564011  0.58382654  0.93764727  1
  O  O368  1  0.30779471  0.91683546  0.18786699  1
  O  O369  1  0.30866741  0.91618669  0.43704657  1
  O  O370  1  0.30649836  0.91616698  0.68826324  1
  O  O371  1  0.30827675  0.91609128  0.93764004  1
  O  O372  1  0.80934166  0.24986946  0.18673558  1
  O  O373  1  0.80569343  0.24992207  0.43803093  1
  O  O374  1  0.80727070  0.25008154  0.68920986  1
  O  O375  1  0.80958759  0.25053963  0.93756785  1
  O  O376  1  0.80601069  0.58396797  0.18811604  1
  O  O377  1  0.80587862  0.58391056  0.43939129  1
  O  O378  1  0.80884913  0.58379280  0.68774553  1
  O  O379  1  0.80909554  0.58339290  0.93631336  1
  O  O380  1  0.80999879  0.91631188  0.18762086  1
  O  O381  1  0.80858961  0.91670905  0.43700654  1
  O  O382  1  0.80643740  0.91604373  0.68795037  1
  O  O383  1  0.80656553  0.91607486  0.93870062  1
  O  O384  1  0.23063337  0.25049059  0.03884490  1
  O  O385  1  0.23156329  0.25022249  0.28990129  1
  O  O386  1  0.23401244  0.25038745  0.54141894  1
  O  O387  1  0.23457879  0.24925510  0.78740677  1
  O  O388  1  0.23170521  0.58326918  0.03891181  1
  O  O389  1  0.23436215  0.58369402  0.29102867  1
  O  O390  1  0.23432584  0.58385159  0.53879981  1
  O  O391  1  0.23283446  0.58491180  0.78682414  1
  O  O392  1  0.23319322  0.91632483  0.03788705  1
  O  O393  1  0.23279891  0.91633604  0.28832301  1
  O  O394  1  0.23461574  0.91599395  0.53779649  1
  O  O395  1  0.23298377  0.91576855  0.78967847  1
  O  O396  1  0.73406229  0.24990291  0.03751820  1
  O  O397  1  0.73527321  0.25081006  0.28785250  1
  O  O398  1  0.73234123  0.24973556  0.54008291  1
  O  O399  1  0.73482554  0.24965918  0.79097703  1
  O  O400  1  0.73495791  0.58433356  0.03719539  1
  O  O401  1  0.73284200  0.58401751  0.29029243  1
  O  O402  1  0.73261534  0.58349539  0.54081539  1
  O  O403  1  0.73390512  0.58444300  0.78794373  1
  O  O404  1  0.73277515  0.91587469  0.04001836  1
  O  O405  1  0.73589057  0.91580014  0.28860995  1
  O  O406  1  0.73393987  0.91626813  0.53786396  1
  O  O407  1  0.73406157  0.91616272  0.79012169  1
  O  O408  1  0.26408264  0.08330776  0.21162109  1
  O  O409  1  0.26455610  0.08304954  0.46179512  1
  O  O410  1  0.26733727  0.08225586  0.70989202  1
  O  O411  1  0.26551230  0.08284909  0.95955726  1
  O  O412  1  0.26750380  0.41655947  0.21033651  1
  O  O413  1  0.26627516  0.41740562  0.46058695  1
  O  O414  1  0.26481916  0.41771366  0.71220991  1
  O  O415  1  0.26492558  0.41729531  0.95801917  1
  O  O416  1  0.26500025  0.75006597  0.20965062  1
  O  O417  1  0.26694436  0.74935271  0.46240124  1
  O  O418  1  0.26726463  0.75041599  0.70990200  1
  O  O419  1  0.26618435  0.75027019  0.96208527  1
  O  O420  1  0.76711382  0.08296283  0.20996334  1
  O  O421  1  0.76838793  0.08325705  0.46008158  1
  O  O422  1  0.76881083  0.08285378  0.71076777  1
  O  O423  1  0.76611901  0.08241348  0.96014056  1
  O  O424  1  0.76823638  0.41767198  0.20974932  1
  O  O425  1  0.76767823  0.41746506  0.46069664  1
  O  O426  1  0.76559348  0.41702300  0.71253626  1
  O  O427  1  0.76598023  0.41717863  0.95924220  1
  O  O428  1  0.76807873  0.74940083  0.21068140  1
  O  O429  1  0.76687914  0.74974427  0.46311650  1
  O  O430  1  0.76596675  0.74989453  0.71212364  1
  O  O431  1  0.76693629  0.75053455  0.95987104  1
  O  O432  1  0.01615726  0.08281263  0.16486164  1
  O  O433  1  0.01760635  0.08237999  0.41533518  1
  O  O434  1  0.01668799  0.08295114  0.66294269  1
  O  O435  1  0.01557691  0.08333780  0.91333943  1
  O  O436  1  0.01592215  0.41726237  0.16593681  1
  O  O437  1  0.01459356  0.41654171  0.41385260  1
  O  O438  1  0.01475071  0.41782237  0.66258149  1
  O  O439  1  0.01779699  0.41709728  0.91494227  1
  O  O440  1  0.01636040  0.75035157  0.16283458  1
  O  O441  1  0.01437252  0.75046760  0.41436487  1
  O  O442  1  0.01615964  0.74970628  0.66308341  1
  O  O443  1  0.01498625  0.74951376  0.91277228  1
  O  O444  1  0.51577082  0.08220625  0.16577177  1
  O  O445  1  0.51601957  0.08300601  0.41515753  1
  O  O446  1  0.51613589  0.08275817  0.66614331  1
  O  O447  1  0.51479470  0.08265960  0.91248855  1
  O  O448  1  0.51571517  0.41641524  0.16591374  1
  O  O449  1  0.51555866  0.41749845  0.41310283  1
  O  O450  1  0.51647121  0.41663247  0.66535091  1
  O  O451  1  0.51858715  0.41763977  0.91439866  1
  O  O452  1  0.51477028  0.75057231  0.16333703  1
  O  O453  1  0.51530960  0.74974878  0.41552791  1
  O  O454  1  0.51648038  0.74992435  0.66287014  1
  O  O455  1  0.51569476  0.74974444  0.91279946  1
  O  O456  1  0.48403114  0.24997475  0.08390234  1
  O  O457  1  0.48477262  0.24950940  0.33746585  1
  O  O458  1  0.48254587  0.25032778  0.58527043  1
  O  O459  1  0.48495446  0.25007545  0.83740392  1
  O  O460  1  0.48455508  0.58351770  0.08700286  1
  O  O461  1  0.48380681  0.58402399  0.33767461  1
  O  O462  1  0.48398422  0.58377754  0.58718141  1
  O  O463  1  0.48472314  0.58394939  0.83396805  1
  O  O464  1  0.48203561  0.91665916  0.08501285  1
  O  O465  1  0.48287424  0.91563698  0.33828974  1
  O  O466  1  0.48458396  0.91629316  0.58470055  1
  O  O467  1  0.48268288  0.91532573  0.83728427  1
  O  O468  1  0.98329369  0.25015499  0.08715617  1
  O  O469  1  0.98400243  0.24941886  0.33485060  1
  O  O470  1  0.98321990  0.24923368  0.58455138  1
  O  O471  1  0.98295527  0.25088033  0.83667018  1
  O  O472  1  0.98427552  0.58366430  0.08464299  1
  O  O473  1  0.98386387  0.58432897  0.33740051  1
  O  O474  1  0.98343038  0.58411350  0.58678504  1
  O  O475  1  0.98378940  0.58366094  0.83631881  1
  O  O476  1  0.98348964  0.91611868  0.08598537  1
  O  O477  1  0.98247044  0.91653687  0.33510498  1
  O  O478  1  0.98515448  0.91586100  0.58758020  1
  O  O479  1  0.98532203  0.91611573  0.83651984  1
  O  O480  1  0.08697081  0.31533590  0.07725328  1
  O  O481  1  0.08808380  0.31385744  0.32669373  1
  O  O482  1  0.08660365  0.31455449  0.57741325  1
  O  O483  1  0.08656043  0.31619090  0.82773502  1
  O  O484  1  0.08760771  0.64990323  0.07704316  1
  O  O485  1  0.08761889  0.64868253  0.32838715  1
  O  O486  1  0.08690726  0.65027486  0.57696556  1
  O  O487  1  0.08787208  0.64769360  0.82632682  1
  O  O488  1  0.08764802  0.98032360  0.07680273  1
  O  O489  1  0.08629518  0.98218800  0.32730741  1
  O  O490  1  0.08861215  0.98089801  0.57892065  1
  O  O491  1  0.08913601  0.98104058  0.82705998  1
  O  O492  1  0.58851744  0.31446432  0.07707386  1
  O  O493  1  0.58802666  0.31507857  0.32765991  1
  O  O494  1  0.58690247  0.31456890  0.57661192  1
  O  O495  1  0.58815565  0.31596943  0.82831656  1
  O  O496  1  0.58796476  0.64873462  0.07793176  1
  O  O497  1  0.58754806  0.64889524  0.32718082  1
  O  O498  1  0.58746643  0.64961397  0.57732298  1
  O  O499  1  0.58845858  0.64938896  0.82722988  1
  O  O500  1  0.58626765  0.98123837  0.07637362  1
  O  O501  1  0.58622839  0.98115471  0.32731154  1
  O  O502  1  0.58901628  0.98043336  0.57694715  1
  O  O503  1  0.58629567  0.98024168  0.82734384  1
  O  O504  1  0.41174855  0.01733640  0.17168517  1
  O  O505  1  0.41266117  0.01691850  0.42243261  1
  O  O506  1  0.41153377  0.01911930  0.67322603  1
  O  O507  1  0.41153834  0.01678416  0.92163025  1
  O  O508  1  0.41175863  0.35120719  0.17313340  1
  O  O509  1  0.41193361  0.35266970  0.42228421  1
  O  O510  1  0.41242776  0.35211394  0.67216115  1
  O  O511  1  0.41476880  0.35238993  0.92324908  1
  O  O512  1  0.41110043  0.68602297  0.17194965  1
  O  O513  1  0.41155565  0.68448693  0.42288842  1
  O  O514  1  0.41297795  0.68396193  0.67269120  1
  O  O515  1  0.41171266  0.68532748  0.92267339  1
  O  O516  1  0.91259919  0.01768626  0.17143692  1
  O  O517  1  0.91378668  0.01686315  0.42319833  1
  O  O518  1  0.91310598  0.01780803  0.67312105  1
  O  O519  1  0.91200035  0.01871370  0.92208090  1
  O  O520  1  0.91237194  0.35110735  0.17258281  1
  O  O521  1  0.91059703  0.35201625  0.42260499  1
  O  O522  1  0.91127105  0.35299747  0.67199798  1
  O  O523  1  0.91379003  0.35253967  0.92222626  1
  O  O524  1  0.91250045  0.68594081  0.17270957  1
  O  O525  1  0.91018578  0.68647447  0.42346356  1
  O  O526  1  0.91249616  0.68398898  0.67277854  1
  O  O527  1  0.91155200  0.68374108  0.92173449  1
  O  O528  1  0.16091315  0.01759583  0.20367765  1
  O  O529  1  0.16074560  0.01821603  0.45233572  1
  O  O530  1  0.16357728  0.01646955  0.70219037  1
  O  O531  1  0.16173205  0.01798896  0.95304708  1
  O  O532  1  0.16355477  0.35134525  0.20291464  1
  O  O533  1  0.16217240  0.35329615  0.45304030  1
  O  O534  1  0.16126206  0.35278595  0.70276596  1
  O  O535  1  0.16098616  0.35195384  0.95179380  1
  O  O536  1  0.16046400  0.68642435  0.20226659  1
  O  O537  1  0.16357844  0.68351799  0.45319784  1
  O  O538  1  0.16300435  0.68549749  0.70131241  1
  O  O539  1  0.16277993  0.68492807  0.95281233  1
  O  O540  1  0.66342400  0.01774156  0.20250556  1
  O  O541  1  0.66466794  0.01783131  0.45233623  1
  O  O542  1  0.66483998  0.01809059  0.70214380  1
  O  O543  1  0.66238626  0.01720670  0.95307259  1
  O  O544  1  0.66417369  0.35340552  0.20212443  1
  O  O545  1  0.66419237  0.35171577  0.45287001  1
  O  O546  1  0.66191076  0.35266636  0.70321316  1
  O  O547  1  0.66255811  0.35078533  0.95239015  1
  O  O548  1  0.66429239  0.68398450  0.20287877  1
  O  O549  1  0.66328984  0.68466719  0.45370372  1
  O  O550  1  0.66232013  0.68429943  0.70252013  1
  O  O551  1  0.66247267  0.68668016  0.95132297  1
  O  O552  1  0.33464508  0.31531398  0.04736554  1
  O  O553  1  0.33546268  0.31576636  0.29756512  1
  O  O554  1  0.33814557  0.31507562  0.54849226  1
  O  O555  1  0.33799709  0.31421510  0.79742792  1
  O  O556  1  0.33520733  0.64920683  0.04719992  1
  O  O557  1  0.33887370  0.64718197  0.29825326  1
  O  O558  1  0.33809334  0.64934821  0.54804083  1
  O  O559  1  0.33656213  0.64988625  0.79657795  1
  O  O560  1  0.33709561  0.98060749  0.04797359  1
  O  O561  1  0.33652759  0.98170197  0.29800351  1
  O  O562  1  0.33823796  0.98043484  0.54713539  1
  O  O563  1  0.33683692  0.98112197  0.79778254  1
  O  O564  1  0.83784042  0.31518675  0.04761470  1
  O  O565  1  0.83867362  0.31623605  0.29598466  1
  O  O566  1  0.83587168  0.31529546  0.54730976  1
  O  O567  1  0.83896966  0.31406882  0.79873514  1
  O  O568  1  0.83828411  0.64984216  0.04574863  1
  O  O569  1  0.83679919  0.64874549  0.29749615  1
  O  O570  1  0.83675616  0.64856669  0.54890584  1
  O  O571  1  0.83772151  0.64973857  0.79727422  1
  O  O572  1  0.83726236  0.97998757  0.04837693  1
  O  O573  1  0.84002425  0.97993818  0.29787567  1
  O  O574  1  0.83756376  0.98168336  0.54681126  1
  O  O575  1  0.83795810  0.98108859  0.79703174  1
  O  O576  1  0.41227247  0.14770126  0.17255617  1
  O  O577  1  0.41187868  0.14714905  0.42255078  1
  O  O578  1  0.41271049  0.14929786  0.67278464  1
  O  O579  1  0.41109299  0.14707519  0.92210906  1
  O  O580  1  0.41160258  0.48125125  0.17315456  1
  O  O581  1  0.41221141  0.48295189  0.42161883  1
  O  O582  1  0.41307433  0.48249012  0.67256681  1
  O  O583  1  0.41473026  0.48247690  0.92300909  1
  O  O584  1  0.41138189  0.81625077  0.17122901  1
  O  O585  1  0.41116893  0.81455426  0.42311645  1
  O  O586  1  0.41233349  0.81393231  0.67294743  1
  O  O587  1  0.41175765  0.81522263  0.92226539  1
  O  O588  1  0.91266360  0.14807106  0.17176342  1
  O  O589  1  0.91343522  0.14685715  0.42378482  1
  O  O590  1  0.91269000  0.14775323  0.67288639  1
  O  O591  1  0.91224150  0.14904253  0.92136722  1
  O  O592  1  0.91156898  0.48120362  0.17322397  1
  O  O593  1  0.91106040  0.48200582  0.42328059  1
  O  O594  1  0.91152264  0.48327095  0.67165273  1
  O  O595  1  0.91429812  0.48270371  0.92229312  1
  O  O596  1  0.91274415  0.81589545  0.17194249  1
  O  O597  1  0.91109569  0.81648626  0.42222044  1
  O  O598  1  0.91208542  0.81387621  0.67318992  1
  O  O599  1  0.91111150  0.81376176  0.92270255  1
  O  O600  1  0.08701715  0.18530278  0.07709017  1
  O  O601  1  0.08759191  0.18367890  0.32788184  1
  O  O602  1  0.08718322  0.18425960  0.57825886  1
  O  O603  1  0.08659054  0.18609862  0.82712798  1
  O  O604  1  0.08872090  0.51988326  0.07716029  1
  O  O605  1  0.08701642  0.51858499  0.32804452  1
  O  O606  1  0.08776605  0.52030282  0.57681868  1
  O  O607  1  0.08721431  0.51768675  0.82714856  1
  O  O608  1  0.08711394  0.85041813  0.07701981  1
  O  O609  1  0.08660474  0.85225292  0.32650385  1
  O  O610  1  0.08838505  0.85056904  0.57846750  1
  O  O611  1  0.08904646  0.85116901  0.82702681  1
  O  O612  1  0.58782101  0.18445765  0.07678011  1
  O  O613  1  0.58852664  0.18487984  0.32792183  1
  O  O614  1  0.58633258  0.18460191  0.57663441  1
  O  O615  1  0.58849570  0.18557021  0.82749433  1
  O  O616  1  0.58827937  0.51866886  0.07844247  1
  O  O617  1  0.58765616  0.51898366  0.32698145  1
  O  O618  1  0.58798904  0.51960602  0.57690722  1
  O  O619  1  0.58901607  0.51926599  0.82730922  1
  O  O620  1  0.58595941  0.85142176  0.07603678  1
  O  O621  1  0.58650285  0.85110260  0.32742316  1
  O  O622  1  0.58823119  0.85036566  0.57724647  1
  O  O623  1  0.58630166  0.85010610  0.82809431  1
  O  O624  1  0.33422517  0.18518696  0.04789773  1
  O  O625  1  0.33542230  0.18567053  0.29813784  1
  O  O626  1  0.33792649  0.18511136  0.54852000  1
  O  O627  1  0.33795679  0.18379622  0.79636202  1
  O  O628  1  0.33591710  0.51912982  0.04693693  1
  O  O629  1  0.33782542  0.51716318  0.29773588  1
  O  O630  1  0.33835465  0.51948158  0.54856520  1
  O  O631  1  0.33622737  0.51974327  0.79773673  1
  O  O632  1  0.33681386  0.85060723  0.04753495  1
  O  O633  1  0.33693179  0.85180261  0.29770009  1
  O  O634  1  0.33798968  0.85040202  0.54678288  1
  O  O635  1  0.33705379  0.85096515  0.79763043  1
  O  O636  1  0.83797692  0.18516781  0.04754527  1
  O  O637  1  0.83873770  0.18598684  0.29703265  1
  O  O638  1  0.83653920  0.18503156  0.54704760  1
  O  O639  1  0.83865868  0.18392242  0.79785752  1
  O  O640  1  0.83851048  0.51971339  0.04657272  1
  O  O641  1  0.83655859  0.51870165  0.29734385  1
  O  O642  1  0.83680308  0.51855710  0.54849995  1
  O  O643  1  0.83779822  0.51978741  0.79824267  1
  O  O644  1  0.83672260  0.85013172  0.04776932  1
  O  O645  1  0.83927378  0.84986096  0.29692625  1
  O  O646  1  0.83769344  0.85155307  0.54698946  1
  O  O647  1  0.83770509  0.85091805  0.79692842  1
  O  O648  1  0.16033854  0.14799685  0.20421987  1
  O  O649  1  0.16082382  0.14816640  0.45275151  1
  O  O650  1  0.16286877  0.14650891  0.70140100  1
  O  O651  1  0.16196714  0.14840410  0.95264510  1
  O  O652  1  0.16376399  0.48142266  0.20265270  1
  O  O653  1  0.16289296  0.48349076  0.45317550  1
  O  O654  1  0.16132079  0.48313696  0.70332234  1
  O  O655  1  0.16077911  0.48216577  0.95211054  1
  O  O656  1  0.16158665  0.81643037  0.20232304  1
  O  O657  1  0.16305251  0.81351438  0.45256916  1
  O  O658  1  0.16318655  0.81537110  0.70194840  1
  O  O659  1  0.16250975  0.81499445  0.95288112  1
  O  O660  1  0.66334097  0.14799996  0.20245411  1
  O  O661  1  0.66436991  0.14821693  0.45272356  1
  O  O662  1  0.66512634  0.14811734  0.70205297  1
  O  O663  1  0.66251929  0.14763697  0.95292982  1
  O  O664  1  0.66466393  0.48357227  0.20270266  1
  O  O665  1  0.66368386  0.48208241  0.45329507  1
  O  O666  1  0.66242236  0.48296074  0.70353364  1
  O  O667  1  0.66149245  0.48093305  0.95198031  1
  O  O668  1  0.66419246  0.81401867  0.20232872  1
  O  O669  1  0.66347922  0.81490158  0.45310487  1
  O  O670  1  0.66193027  0.81420362  0.70201144  1
  O  O671  1  0.66315020  0.81662139  0.95187707  1
