# generated using pymatgen
data_Na2MnFe(PO4)2
_symmetry_space_group_name_H-M   'P 1'
_cell_length_a   21.08714055
_cell_length_b   18.93928126
_cell_length_c   20.04609340
_cell_angle_alpha   89.99985129
_cell_angle_beta   90.00113943
_cell_angle_gamma   90.00042979
_symmetry_Int_Tables_number   1
_chemical_formula_structural   Na2MnFe(PO4)2
_chemical_formula_sum   'Na96 Mn48 Fe48 P96 O384'
_cell_volume   8005.91428274
_cell_formula_units_Z   48
loop_
 _symmetry_equiv_pos_site_id
 _symmetry_equiv_pos_as_xyz
  1  'x, y, z'
loop_
 _atom_site_type_symbol
 _atom_site_label
 _atom_site_symmetry_multiplicity
 _atom_site_fract_x
 _atom_site_fract_y
 _atom_site_fract_z
 _atom_site_occupancy
  Na  Na0  1  0.00063303  0.00083009  -0.00063932  1
  Na  Na1  1  -0.00030863  -0.00007712  0.25039519  1
  Na  Na2  1  0.00002038  -0.00013411  0.49950459  1
  Na  Na3  1  -0.00064687  -0.00029710  0.75046898  1
  Na  Na4  1  -0.00069149  0.33321972  0.00005199  1
  Na  Na5  1  -0.00041553  0.33376711  0.24925546  1
  Na  Na6  1  0.00096203  0.33422301  0.49996298  1
  Na  Na7  1  0.00035496  0.33334966  0.75046680  1
  Na  Na8  1  -0.00094376  0.66571793  0.00067442  1
  Na  Na9  1  0.00182984  0.66715563  0.25081787  1
  Na  Na10  1  0.00099562  0.66650979  0.49958784  1
  Na  Na11  1  -0.00113046  0.66588195  0.74936566  1
  Na  Na12  1  0.50039128  0.00020768  -0.00086122  1
  Na  Na13  1  0.49842955  -0.00076812  0.24999266  1
  Na  Na14  1  0.49856049  0.00056089  0.50056025  1
  Na  Na15  1  0.49718813  -0.00022002  0.75019601  1
  Na  Na16  1  0.49848240  0.33240030  0.00093158  1
  Na  Na17  1  0.49987748  0.33303041  0.24984827  1
  Na  Na18  1  0.49785914  0.33234600  0.49985667  1
  Na  Na19  1  0.49813058  0.33282549  0.74942869  1
  Na  Na20  1  0.50131220  0.66675961  -0.00030698  1
  Na  Na21  1  0.50081932  0.66647394  0.25081497  1
  Na  Na22  1  0.49870787  0.66657188  0.49953315  1
  Na  Na23  1  0.49820023  0.66592829  0.74991275  1
  Na  Na24  1  0.24809663  -0.00016470  0.12496455  1
  Na  Na25  1  0.24967945  0.00009205  0.37418649  1
  Na  Na26  1  0.25006626  0.00032639  0.62532879  1
  Na  Na27  1  0.24941870  0.00086862  0.87599026  1
  Na  Na28  1  0.24889543  0.33341563  0.12539330  1
  Na  Na29  1  0.25072400  0.33390977  0.37608058  1
  Na  Na30  1  0.25006046  0.33334686  0.62485553  1
  Na  Na31  1  0.24894689  0.33306374  0.87394499  1
  Na  Na32  1  0.25098915  0.66642848  0.12485457  1
  Na  Na33  1  0.24943893  0.66621055  0.37527387  1
  Na  Na34  1  0.25150155  0.66715209  0.62432692  1
  Na  Na35  1  0.25159009  0.66686636  0.87575979  1
  Na  Na36  1  0.75221421  0.00070047  0.12594182  1
  Na  Na37  1  0.75226037  0.00027679  0.37539435  1
  Na  Na38  1  0.75279485  0.00059742  0.62408630  1
  Na  Na39  1  0.75113409  -0.00023574  0.87421731  1
  Na  Na40  1  0.75146564  0.33351339  0.12392857  1
  Na  Na41  1  0.74900057  0.33281046  0.37549928  1
  Na  Na42  1  0.75148667  0.33340084  0.62558235  1
  Na  Na43  1  0.75350727  0.33396962  0.87447372  1
  Na  Na44  1  0.74809516  0.66615228  0.12527632  1
  Na  Na45  1  0.74907429  0.66586920  0.37441990  1
  Na  Na46  1  0.75085436  0.66657430  0.62546347  1
  Na  Na47  1  0.74953936  0.66629461  0.87498776  1
  Na  Na48  1  0.00100786  0.16596539  -0.00034583  1
  Na  Na49  1  0.00165397  0.16581453  0.24915331  1
  Na  Na50  1  0.00003219  0.16688564  0.50014092  1
  Na  Na51  1  -0.00145781  0.16761289  0.75065722  1
  Na  Na52  1  -0.00078324  0.49970516  0.00063319  1
  Na  Na53  1  0.00055644  0.50018952  0.25025619  1
  Na  Na54  1  0.00166012  0.49954134  0.49873141  1
  Na  Na55  1  0.00047886  0.49943823  0.75000787  1
  Na  Na56  1  0.00020436  0.83335844  0.00001872  1
  Na  Na57  1  -0.00207839  0.83461735  0.25063882  1
  Na  Na58  1  -0.00035212  0.83356701  0.50021378  1
  Na  Na59  1  -0.00037910  0.83385560  0.74981487  1
  Na  Na60  1  0.49965509  0.16681328  0.00004137  1
  Na  Na61  1  0.49972786  0.16701716  0.25043910  1
  Na  Na62  1  0.49776414  0.16743310  0.50007866  1
  Na  Na63  1  0.49740281  0.16752116  0.74943744  1
  Na  Na64  1  0.49926357  0.50035845  0.00090209  1
  Na  Na65  1  0.50004360  0.50042445  0.24982789  1
  Na  Na66  1  0.50005352  0.49993411  0.49986536  1
  Na  Na67  1  0.49827718  0.49999847  0.75002386  1
  Na  Na68  1  0.50174715  0.83256895  -0.00098730  1
  Na  Na69  1  0.49927784  0.83339005  0.25040662  1
  Na  Na70  1  0.49674286  0.83386854  0.49977932  1
  Na  Na71  1  0.49828874  0.83373090  0.74998341  1
  Na  Na72  1  0.24741527  0.16729912  0.12464268  1
  Na  Na73  1  0.25059058  0.16611564  0.37506345  1
  Na  Na74  1  0.25239443  0.16577868  0.62489607  1
  Na  Na75  1  0.24798270  0.16760763  0.87573590  1
  Na  Na76  1  0.25042471  0.49968288  0.12512635  1
  Na  Na77  1  0.24944289  0.49965905  0.37560686  1
  Na  Na78  1  0.24776959  0.50037870  0.62508933  1
  Na  Na79  1  0.25002460  0.49931794  0.87457860  1
  Na  Na80  1  0.24975313  0.83351581  0.12543460  1
  Na  Na81  1  0.25127038  0.83242991  0.37475906  1
  Na  Na82  1  0.25089828  0.83348598  0.62442752  1
  Na  Na83  1  0.25147413  0.83304132  0.87546297  1
  Na  Na84  1  0.75079727  0.16690236  0.12395508  1
  Na  Na85  1  0.74944861  0.16733420  0.37539912  1
  Na  Na86  1  0.75114698  0.16714504  0.62546996  1
  Na  Na87  1  0.75368111  0.16560271  0.87429322  1
  Na  Na88  1  0.75054720  0.49999029  0.12564373  1
  Na  Na89  1  0.74886792  0.50057328  0.37499269  1
  Na  Na90  1  0.75149333  0.49972002  0.62531946  1
  Na  Na91  1  0.75137641  0.49997377  0.87426994  1
  Na  Na92  1  0.74913647  0.83421654  0.12593907  1
  Na  Na93  1  0.75253029  0.83282937  0.37459369  1
  Na  Na94  1  0.75209222  0.83326033  0.62459686  1
  Na  Na95  1  0.74976033  0.83368502  0.87495089  1
  Mn  Mn96  1  0.35727557  0.08299110  0.25187299  1
  Mn  Mn97  1  0.10761721  0.75056564  0.12315251  1
  Mn  Mn98  1  0.14300138  0.91671584  0.74788466  1
  Mn  Mn99  1  0.10765839  0.08363450  0.62293169  1
  Mn  Mn100  1  0.60715367  0.75058829  0.37389629  1
  Mn  Mn101  1  0.64226656  0.91717989  0.74743255  1
  Mn  Mn102  1  0.35778575  0.41715505  0.25262984  1
  Mn  Mn103  1  0.64255875  0.91719646  0.24839093  1
  Mn  Mn104  1  0.64223043  0.58290895  0.74770601  1
  Mn  Mn105  1  0.60715776  0.41651165  0.37334824  1
  Mn  Mn106  1  0.39088653  0.91731775  0.62727770  1
  Mn  Mn107  1  0.39174146  0.24959935  0.12714294  1
  Mn  Mn108  1  0.39139765  0.58279188  0.62672153  1
  Mn  Mn109  1  0.35810214  0.74986865  0.00292149  1
  Mn  Mn110  1  0.10828803  0.74964753  0.87249432  1
  Mn  Mn111  1  0.60727609  0.08352244  0.62325100  1
  Mn  Mn112  1  0.85852804  0.08358608  0.50235004  1
  Mn  Mn113  1  0.60740646  0.75019425  0.62218370  1
  Mn  Mn114  1  0.60773360  0.08394990  0.87257454  1
  Mn  Mn115  1  0.64323667  0.24993271  0.99659868  1
  Mn  Mn116  1  0.35688608  0.41664410  0.75268427  1
  Mn  Mn117  1  0.39292888  0.58373025  0.12745901  1
  Mn  Mn118  1  0.89223326  0.58295304  0.87776571  1
  Mn  Mn119  1  0.14251213  0.24954913  0.49786970  1
  Mn  Mn120  1  0.60892599  0.08235279  0.12283584  1
  Mn  Mn121  1  0.89286516  0.58387542  0.37710979  1
  Mn  Mn122  1  0.60754263  0.41595482  0.87327369  1
  Mn  Mn123  1  0.60710558  0.74999099  0.87231929  1
  Mn  Mn124  1  0.10804372  0.74953936  0.62261090  1
  Mn  Mn125  1  0.85838962  0.74999693  0.75223897  1
  Mn  Mn126  1  0.14232674  0.58359494  0.74768345  1
  Mn  Mn127  1  0.14207346  0.25056240  0.24831384  1
  Mn  Mn128  1  0.85712132  0.75006225  0.00276514  1
  Mn  Mn129  1  0.60725211  0.08294811  0.37322340  1
  Mn  Mn130  1  0.85761945  0.74970797  0.25242169  1
  Mn  Mn131  1  0.10712765  0.41658663  0.12249100  1
  Mn  Mn132  1  0.89230993  0.24997906  0.37698758  1
  Mn  Mn133  1  0.64283226  0.91651809  0.49763420  1
  Mn  Mn134  1  0.89244170  0.91693007  0.87796537  1
  Mn  Mn135  1  0.14196833  0.91562721  0.24769812  1
  Mn  Mn136  1  0.60852776  0.41677574  0.12230869  1
  Mn  Mn137  1  0.60791078  0.41622668  0.62306086  1
  Mn  Mn138  1  0.89246557  0.24978747  0.12747139  1
  Mn  Mn139  1  0.35637812  0.08400885  0.00241656  1
  Mn  Mn140  1  0.39237478  0.91639564  0.12633407  1
  Mn  Mn141  1  0.85819211  0.41719288  0.50194508  1
  Mn  Mn142  1  0.14199604  0.58306196  0.99797937  1
  Mn  Mn143  1  0.64288369  0.24986792  0.74837927  1
  Fe  Fe144  1  0.14197692  0.25048558  0.99758934  1
  Fe  Fe145  1  0.64267923  0.24999569  0.24877317  1
  Fe  Fe146  1  0.64235058  0.58283626  0.24838671  1
  Fe  Fe147  1  0.85875906  0.41646121  0.75173861  1
  Fe  Fe148  1  0.10769277  0.08323260  0.37337332  1
  Fe  Fe149  1  0.35663300  0.08335045  0.75280595  1
  Fe  Fe150  1  0.14255568  0.58380447  0.49815208  1
  Fe  Fe151  1  0.39233723  0.58260937  0.87739845  1
  Fe  Fe152  1  0.35763991  0.75039840  0.75189327  1
  Fe  Fe153  1  0.39127818  0.25021606  0.87709242  1
  Fe  Fe154  1  0.64323577  0.91697162  0.99835177  1
  Fe  Fe155  1  0.85682149  0.41644689  0.25175253  1
  Fe  Fe156  1  0.35673921  0.08316132  0.50134690  1
  Fe  Fe157  1  0.89264669  0.25036306  0.62687872  1
  Fe  Fe158  1  0.14249046  0.91639003  0.49810874  1
  Fe  Fe159  1  0.10650616  0.08292140  0.12330758  1
  Fe  Fe160  1  0.39149741  0.91694772  0.37703345  1
  Fe  Fe161  1  0.64218285  0.25030900  0.49889965  1
  Fe  Fe162  1  0.64327846  0.58315317  0.99804331  1
  Fe  Fe163  1  0.35662116  0.41625327  0.00114937  1
  Fe  Fe164  1  0.39234290  0.91700771  0.87759678  1
  Fe  Fe165  1  0.39227136  0.58307962  0.37725841  1
  Fe  Fe166  1  0.14334047  0.58348141  0.24848160  1
  Fe  Fe167  1  0.10795277  0.41662730  0.37289244  1
  Fe  Fe168  1  0.60768522  0.75043139  0.12371286  1
  Fe  Fe169  1  0.85785271  0.41707404  0.00179550  1
  Fe  Fe170  1  0.89411973  0.25010514  0.87654310  1
  Fe  Fe171  1  0.85832896  0.74920142  0.50133598  1
  Fe  Fe172  1  0.85810070  0.08302059  0.00186449  1
  Fe  Fe173  1  0.64294287  0.58335522  0.49895273  1
  Fe  Fe174  1  0.89254529  0.91629875  0.12619994  1
  Fe  Fe175  1  0.10787396  0.75023100  0.37331460  1
  Fe  Fe176  1  0.85813294  0.08438150  0.25183561  1
  Fe  Fe177  1  0.35790136  0.74955173  0.25189023  1
  Fe  Fe178  1  0.39210004  0.25023360  0.62691714  1
  Fe  Fe179  1  0.10669517  0.41652726  0.62354294  1
  Fe  Fe180  1  0.89311247  0.58308681  0.62578361  1
  Fe  Fe181  1  0.35617824  0.74975376  0.50119481  1
  Fe  Fe182  1  0.10674964  0.08385133  0.87287786  1
  Fe  Fe183  1  0.39235463  0.24998645  0.37705091  1
  Fe  Fe184  1  0.10709667  0.41636353  0.87357026  1
  Fe  Fe185  1  0.35643994  0.41670582  0.50189878  1
  Fe  Fe186  1  0.89347280  0.91667319  0.62651169  1
  Fe  Fe187  1  0.89195985  0.58406037  0.12747318  1
  Fe  Fe188  1  0.85833775  0.08360465  0.75163611  1
  Fe  Fe189  1  0.14256098  0.24968619  0.74803788  1
  Fe  Fe190  1  0.14181171  0.91677682  0.99808240  1
  Fe  Fe191  1  0.89367734  0.91647611  0.37690562  1
  P  P192  1  0.05393646  0.24944490  0.10930559  1
  P  P193  1  0.05354916  0.25007467  0.36007340  1
  P  P194  1  0.05313485  0.25057312  0.61140497  1
  P  P195  1  0.05453862  0.25016108  0.86072657  1
  P  P196  1  0.05291739  0.58345885  0.11150400  1
  P  P197  1  0.05606429  0.58366627  0.36066921  1
  P  P198  1  0.05300708  0.58237231  0.60935064  1
  P  P199  1  0.05328573  0.58229380  0.86001170  1
  P  P200  1  0.05239918  0.91721741  0.10971506  1
  P  P201  1  0.05418036  0.91636677  0.36149833  1
  P  P202  1  0.05334357  0.91681463  0.60950673  1
  P  P203  1  0.05463919  0.91744834  0.86090474  1
  P  P204  1  0.55511068  0.24958596  0.11073309  1
  P  P205  1  0.55342421  0.25000051  0.36094310  1
  P  P206  1  0.55233947  0.24985072  0.60963661  1
  P  P207  1  0.55138063  0.25010875  0.85975879  1
  P  P208  1  0.55577134  0.58423972  0.11060110  1
  P  P209  1  0.55386381  0.58338989  0.36116012  1
  P  P210  1  0.55346152  0.58320120  0.60921069  1
  P  P211  1  0.55299108  0.58252583  0.86104304  1
  P  P212  1  0.55420655  0.91577232  0.10926513  1
  P  P213  1  0.55141368  0.91667559  0.36046181  1
  P  P214  1  0.55251042  0.91695522  0.60965761  1
  P  P215  1  0.55307946  0.91722434  0.86069466  1
  P  P216  1  0.44690233  0.08314898  0.13990831  1
  P  P217  1  0.44531844  0.08330471  0.39048201  1
  P  P218  1  0.44376664  0.08435411  0.63961683  1
  P  P219  1  0.44464212  0.08384640  0.88911250  1
  P  P220  1  0.44569894  0.41649983  0.13911058  1
  P  P221  1  0.44537556  0.41696745  0.39058669  1
  P  P222  1  0.44481984  0.41603673  0.63877812  1
  P  P223  1  0.44551947  0.41614908  0.89089745  1
  P  P224  1  0.44773802  0.74994967  0.14074859  1
  P  P225  1  0.44398722  0.74967367  0.38932697  1
  P  P226  1  0.44407784  0.74990795  0.63926701  1
  P  P227  1  0.44480389  0.74990493  0.88889130  1
  P  P228  1  0.94601383  0.08240994  0.13922976  1
  P  P229  1  0.94711092  0.08312939  0.38868380  1
  P  P230  1  0.94645570  0.08331131  0.64037631  1
  P  P231  1  0.94624979  0.08435780  0.88931356  1
  P  P232  1  0.94428161  0.41770554  0.13974508  1
  P  P233  1  0.94705684  0.41687289  0.38845128  1
  P  P234  1  0.94724555  0.41704919  0.63991740  1
  P  P235  1  0.94650427  0.41567751  0.88948917  1
  P  P236  1  0.94640177  0.74999972  0.14030551  1
  P  P237  1  0.94769802  0.75029992  0.39035624  1
  P  P238  1  0.94596696  0.74969377  0.63836029  1
  P  P239  1  0.94697331  0.74990423  0.89058213  1
  P  P240  1  0.19432553  0.08318892  0.23525191  1
  P  P241  1  0.19698917  0.08264316  0.48473220  1
  P  P242  1  0.19646235  0.08435156  0.73637510  1
  P  P243  1  0.19341407  0.08353908  0.98596404  1
  P  P244  1  0.19540587  0.41764850  0.23617776  1
  P  P245  1  0.19531994  0.41696431  0.48622154  1
  P  P246  1  0.19416919  0.41562071  0.73544164  1
  P  P247  1  0.19658254  0.41602453  0.98432295  1
  P  P248  1  0.19708932  0.74886419  0.23624474  1
  P  P249  1  0.19672468  0.75020128  0.48469425  1
  P  P250  1  0.19859287  0.75010789  0.73479605  1
  P  P251  1  0.19655662  0.75048391  0.98534736  1
  P  P252  1  0.69834847  0.08412884  0.23559018  1
  P  P253  1  0.69680694  0.08427381  0.48532188  1
  P  P254  1  0.69853364  0.08360386  0.73481333  1
  P  P255  1  0.69855243  0.08237357  0.98461539  1
  P  P256  1  0.69725156  0.41610556  0.23538880  1
  P  P257  1  0.69657852  0.41665496  0.48553968  1
  P  P258  1  0.69851558  0.41615153  0.73530718  1
  P  P259  1  0.69856484  0.41747580  0.98464305  1
  P  P260  1  0.69560488  0.74962143  0.23522836  1
  P  P261  1  0.69844457  0.74935279  0.48506910  1
  P  P262  1  0.69661820  0.75017010  0.73466900  1
  P  P263  1  0.69510970  0.75027059  0.98635594  1
  P  P264  1  0.30228830  0.25102183  0.01394568  1
  P  P265  1  0.30358824  0.25004447  0.26586709  1
  P  P266  1  0.30503925  0.24997099  0.51425120  1
  P  P267  1  0.30335322  0.24938678  0.76446722  1
  P  P268  1  0.30450081  0.58189599  0.01421656  1
  P  P269  1  0.30327075  0.58386412  0.26579611  1
  P  P270  1  0.30284024  0.58293227  0.51344782  1
  P  P271  1  0.30380321  0.58382967  0.76559142  1
  P  P272  1  0.30243745  0.91720018  0.01429351  1
  P  P273  1  0.30389045  0.91581850  0.26510586  1
  P  P274  1  0.30280351  0.91682882  0.51336108  1
  P  P275  1  0.30399566  0.91705354  0.76595939  1
  P  P276  1  0.80580648  0.24982407  0.01307928  1
  P  P277  1  0.80260528  0.25023169  0.26478636  1
  P  P278  1  0.80305694  0.25039068  0.51564318  1
  P  P279  1  0.80648653  0.25011604  0.76432677  1
  P  P280  1  0.80294362  0.58298066  0.01574978  1
  P  P281  1  0.80316251  0.58260285  0.26408606  1
  P  P282  1  0.80318569  0.58396416  0.51511761  1
  P  P283  1  0.80529141  0.58251218  0.76377728  1
  P  P284  1  0.80293566  0.91723436  0.01571324  1
  P  P285  1  0.80596423  0.91770552  0.26465273  1
  P  P286  1  0.80620811  0.91556819  0.51402391  1
  P  P287  1  0.80523746  0.91742333  0.76377720  1
  O  O288  1  0.05691180  0.25061321  0.18606692  1
  O  O289  1  0.05628466  0.25023870  0.43688399  1
  O  O290  1  0.05786935  0.24956919  0.68804183  1
  O  O291  1  0.05844007  0.25040650  0.93746006  1
  O  O292  1  0.05838385  0.58351448  0.18809432  1
  O  O293  1  0.05995781  0.58354855  0.43750063  1
  O  O294  1  0.05651244  0.58343451  0.68605557  1
  O  O295  1  0.05626105  0.58279570  0.93681400  1
  O  O296  1  0.05593940  0.91647131  0.18648289  1
  O  O297  1  0.05878508  0.91633163  0.43816500  1
  O  O298  1  0.05734091  0.91677134  0.68622674  1
  O  O299  1  0.05850206  0.91667701  0.93766572  1
  O  O300  1  0.55975163  0.24984700  0.18753319  1
  O  O301  1  0.55840553  0.25008794  0.43758852  1
  O  O302  1  0.55675671  0.24995458  0.68630844  1
  O  O303  1  0.55633360  0.24992774  0.93643449  1
  O  O304  1  0.55965283  0.58284329  0.18746575  1
  O  O305  1  0.55918771  0.58347764  0.43780092  1
  O  O306  1  0.55654522  0.58315219  0.68605165  1
  O  O307  1  0.55861569  0.58249228  0.93767175  1
  O  O308  1  0.55694723  0.91693139  0.18607969  1
  O  O309  1  0.55589212  0.91664327  0.43708770  1
  O  O310  1  0.55593640  0.91695099  0.68645318  1
  O  O311  1  0.55885798  0.91734024  0.93727709  1
  O  O312  1  0.44307553  0.08347014  0.06316034  1
  O  O313  1  0.44279944  0.08319153  0.31370325  1
  O  O314  1  0.43968420  0.08328233  0.56286354  1
  O  O315  1  0.44059979  0.08393291  0.81232930  1
  O  O316  1  0.44082320  0.41624543  0.06247386  1
  O  O317  1  0.44326298  0.41718656  0.31374299  1
  O  O318  1  0.44047003  0.41696483  0.56208886  1
  O  O319  1  0.44267166  0.41619385  0.81406927  1
  O  O320  1  0.44388970  0.74964505  0.06398139  1
  O  O321  1  0.44084775  0.74940454  0.31250941  1
  O  O322  1  0.43925823  0.74985578  0.56247940  1
  O  O323  1  0.44105179  0.75000293  0.81209672  1
  O  O324  1  0.94159352  0.08313619  0.06249894  1
  O  O325  1  0.94244963  0.08411521  0.31199621  1
  O  O326  1  0.94405927  0.08360109  0.56353584  1
  O  O327  1  0.94176600  0.08335140  0.81264776  1
  O  O328  1  0.94038045  0.41721382  0.06290758  1
  O  O329  1  0.94140429  0.41677927  0.31186484  1
  O  O330  1  0.94411482  0.41691560  0.56314371  1
  O  O331  1  0.94232571  0.41659278  0.81278455  1
  O  O332  1  0.94337766  0.74955555  0.06356674  1
  O  O333  1  0.94361261  0.74941248  0.31368757  1
  O  O334  1  0.94247326  0.74935514  0.56161341  1
  O  O335  1  0.94386616  0.75008438  0.81377429  1
  O  O336  1  0.18968671  0.08316710  0.06279366  1
  O  O337  1  0.19037908  0.08314671  0.31206348  1
  O  O338  1  0.19347098  0.08329544  0.56148396  1
  O  O339  1  0.19138049  0.08422260  0.81299963  1
  O  O340  1  0.19301360  0.41666508  0.06109044  1
  O  O341  1  0.19151930  0.41660888  0.31295851  1
  O  O342  1  0.19051461  0.41630929  0.56291744  1
  O  O343  1  0.19018284  0.41630548  0.81217545  1
  O  O344  1  0.19332459  0.74995185  0.06216496  1
  O  O345  1  0.19216603  0.74998571  0.31286550  1
  O  O346  1  0.19353478  0.75035540  0.56140264  1
  O  O347  1  0.19466068  0.74984133  0.81146889  1
  O  O348  1  0.69476560  0.08306236  0.06130945  1
  O  O349  1  0.69409934  0.08322838  0.31224698  1
  O  O350  1  0.69361071  0.08348503  0.56205146  1
  O  O351  1  0.69424756  0.08352749  0.81150727  1
  O  O352  1  0.69467006  0.41672457  0.06131292  1
  O  O353  1  0.69343743  0.41626678  0.31206714  1
  O  O354  1  0.69404681  0.41656712  0.56228926  1
  O  O355  1  0.69424295  0.41612752  0.81195757  1
  O  O356  1  0.69177833  0.75049179  0.06309938  1
  O  O357  1  0.69266228  0.75029856  0.31201651  1
  O  O358  1  0.69463903  0.75027360  0.56173866  1
  O  O359  1  0.69290677  0.75021847  0.81149974  1
  O  O360  1  0.30616820  0.25004398  0.18901480  1
  O  O361  1  0.30871688  0.25011073  0.43747445  1
  O  O362  1  0.30792696  0.25009182  0.68778668  1
  O  O363  1  0.30697929  0.25030410  0.93727747  1
  O  O364  1  0.30702866  0.58329338  0.18905259  1
  O  O365  1  0.30734347  0.58257072  0.43684176  1
  O  O366  1  0.30622223  0.58275311  0.68875716  1
  O  O367  1  0.30856120  0.58258195  0.93749067  1
  O  O368  1  0.30675557  0.91667606  0.18831748  1
  O  O369  1  0.30714765  0.91707391  0.43669748  1
  O  O370  1  0.30598326  0.91711727  0.68908937  1
  O  O371  1  0.30777594  0.91725644  0.93768903  1
  O  O372  1  0.80633512  0.24993486  0.18808337  1
  O  O373  1  0.80693847  0.25033756  0.43892173  1
  O  O374  1  0.81001472  0.25030483  0.68748712  1
  O  O375  1  0.80997484  0.24976176  0.93636321  1
  O  O376  1  0.80791356  0.58371638  0.18747021  1
  O  O377  1  0.80680584  0.58331732  0.43838087  1
  O  O378  1  0.80970152  0.58300267  0.68707337  1
  O  O379  1  0.80660486  0.58373610  0.93898336  1
  O  O380  1  0.80974419  0.91675684  0.18788385  1
  O  O381  1  0.81048331  0.91638791  0.43720143  1
  O  O382  1  0.80960747  0.91683361  0.68703645  1
  O  O383  1  0.80653315  0.91640926  0.93895496  1
  O  O384  1  0.23196323  0.25039954  0.03769757  1
  O  O385  1  0.23397219  0.25016805  0.29115100  1
  O  O386  1  0.23499364  0.24971466  0.53872644  1
  O  O387  1  0.23297435  0.25008281  0.78811722  1
  O  O388  1  0.23459066  0.58274114  0.03874443  1
  O  O389  1  0.23322049  0.58311047  0.29023009  1
  O  O390  1  0.23254269  0.58363597  0.53764085  1
  O  O391  1  0.23414778  0.58313783  0.79091823  1
  O  O392  1  0.23207702  0.91711180  0.03782206  1
  O  O393  1  0.23409415  0.91610906  0.28998683  1
  O  O394  1  0.23262346  0.91664714  0.53785106  1
  O  O395  1  0.23443064  0.91711021  0.79157632  1
  O  O396  1  0.73587074  0.25006220  0.03753545  1
  O  O397  1  0.73264980  0.25007500  0.28961787  1
  O  O398  1  0.73298449  0.25041328  0.54005377  1
  O  O399  1  0.73655916  0.24991452  0.78904254  1
  O  O400  1  0.73282461  0.58324972  0.04001692  1
  O  O401  1  0.73276961  0.58297486  0.28776049  1
  O  O402  1  0.73314838  0.58318120  0.53976462  1
  O  O403  1  0.73530145  0.58301866  0.78810514  1
  O  O404  1  0.73298277  0.91735579  0.04039817  1
  O  O405  1  0.73590539  0.91668612  0.28901160  1
  O  O406  1  0.73614378  0.91679519  0.53808991  1
  O  O407  1  0.73527638  0.91676560  0.78812999  1
  O  O408  1  0.26431251  0.08336033  0.21101421  1
  O  O409  1  0.26709007  0.08329602  0.46032832  1
  O  O410  1  0.26678548  0.08341658  0.71277874  1
  O  O411  1  0.26347305  0.08409513  0.96177953  1
  O  O412  1  0.26529959  0.41712469  0.21175576  1
  O  O413  1  0.26579924  0.41641385  0.46280179  1
  O  O414  1  0.26426541  0.41654111  0.71145307  1
  O  O415  1  0.26651736  0.41625334  0.95955642  1
  O  O416  1  0.26734426  0.74950615  0.21225414  1
  O  O417  1  0.26684714  0.74967800  0.46016353  1
  O  O418  1  0.26856931  0.75031949  0.71025246  1
  O  O419  1  0.26632764  0.75009257  0.96062009  1
  O  O420  1  0.76844356  0.08405360  0.21113517  1
  O  O421  1  0.76662332  0.08387994  0.46040673  1
  O  O422  1  0.76867671  0.08409971  0.71071350  1
  O  O423  1  0.76870722  0.08254150  0.96028046  1
  O  O424  1  0.76724308  0.41638799  0.21058084  1
  O  O425  1  0.76613455  0.41682233  0.45982306  1
  O  O426  1  0.76867738  0.41606127  0.71115402  1
  O  O427  1  0.76872006  0.41714355  0.96033572  1
  O  O428  1  0.76540240  0.75002486  0.21033047  1
  O  O429  1  0.76840377  0.74925309  0.46014135  1
  O  O430  1  0.76647115  0.75006113  0.71031176  1
  O  O431  1  0.76491091  0.74994931  0.96119688  1
  O  O432  1  0.01640780  0.08299662  0.16290243  1
  O  O433  1  0.01734560  0.08306757  0.41283316  1
  O  O434  1  0.01605978  0.08338298  0.66595542  1
  O  O435  1  0.01664971  0.08399494  0.91279054  1
  O  O436  1  0.01443273  0.41692885  0.16352462  1
  O  O437  1  0.01751709  0.41720826  0.41166118  1
  O  O438  1  0.01725161  0.41675487  0.66481550  1
  O  O439  1  0.01677136  0.41602685  0.91358645  1
  O  O440  1  0.01597669  0.75066729  0.16585095  1
  O  O441  1  0.01790608  0.74992077  0.41441184  1
  O  O442  1  0.01578561  0.74984067  0.66349128  1
  O  O443  1  0.01656311  0.74959800  0.91575381  1
  O  O444  1  0.51659721  0.08294975  0.16484867  1
  O  O445  1  0.51492960  0.08361627  0.41604866  1
  O  O446  1  0.51378563  0.08370205  0.66394482  1
  O  O447  1  0.51461657  0.08384701  0.91355000  1
  O  O448  1  0.51579300  0.41675839  0.16298773  1
  O  O449  1  0.51496467  0.41655945  0.41610985  1
  O  O450  1  0.51474542  0.41624783  0.66327402  1
  O  O451  1  0.51516513  0.41603722  0.91635453  1
  O  O452  1  0.51773630  0.74998267  0.16517496  1
  O  O453  1  0.51388093  0.75004588  0.41422801  1
  O  O454  1  0.51418535  0.74971620  0.66305421  1
  O  O455  1  0.51477479  0.74973270  0.91329588  1
  O  O456  1  0.48492771  0.24942515  0.08709168  1
  O  O457  1  0.48287252  0.25015801  0.33770865  1
  O  O458  1  0.48203870  0.24990135  0.58592945  1
  O  O459  1  0.48113666  0.25026512  0.83608053  1
  O  O460  1  0.48567525  0.58374808  0.08661006  1
  O  O461  1  0.48330470  0.58336163  0.33805150  1
  O  O462  1  0.48363544  0.58326235  0.58452890  1
  O  O463  1  0.48250036  0.58267234  0.83786671  1
  O  O464  1  0.48458771  0.91632718  0.08378494  1
  O  O465  1  0.48123158  0.91646473  0.33648184  1
  O  O466  1  0.48262199  0.91711518  0.58515154  1
  O  O467  1  0.48254368  0.91699792  0.83772630  1
  O  O468  1  0.98412933  0.24976766  0.08455162  1
  O  O469  1  0.98409856  0.24994366  0.33419451  1
  O  O470  1  0.98283572  0.25040685  0.58743277  1
  O  O471  1  0.98422735  0.25006102  0.83677277  1
  O  O472  1  0.98252985  0.58302203  0.08804130  1
  O  O473  1  0.98592983  0.58368403  0.33663413  1
  O  O474  1  0.98297926  0.58275589  0.58458642  1
  O  O475  1  0.98368231  0.58256760  0.83480615  1
  O  O476  1  0.98233163  0.91679060  0.08512381  1
  O  O477  1  0.98387286  0.91661797  0.33754389  1
  O  O478  1  0.98316674  0.91695308  0.58550671  1
  O  O479  1  0.98469703  0.91725523  0.83659410  1
  O  O480  1  0.08813976  0.31428139  0.07633679  1
  O  O481  1  0.08767468  0.31524694  0.32779796  1
  O  O482  1  0.08649162  0.31568129  0.57841855  1
  O  O483  1  0.08791124  0.31514025  0.82745323  1
  O  O484  1  0.08598093  0.64854549  0.07804178  1
  O  O485  1  0.08959959  0.64892236  0.32787932  1
  O  O486  1  0.08735102  0.64716221  0.57643127  1
  O  O487  1  0.08743777  0.64726266  0.82729712  1
  O  O488  1  0.08618616  0.98231283  0.07723470  1
  O  O489  1  0.08753226  0.98131610  0.32823060  1
  O  O490  1  0.08723060  0.98176088  0.57663371  1
  O  O491  1  0.08802820  0.98285165  0.82828842  1
  O  O492  1  0.58834664  0.31467460  0.07730886  1
  O  O493  1  0.58675377  0.31498355  0.32740871  1
  O  O494  1  0.58607293  0.31479349  0.57650276  1
  O  O495  1  0.58506625  0.31516016  0.82687928  1
  O  O496  1  0.58897021  0.64973385  0.07820544  1
  O  O497  1  0.58724904  0.64830676  0.32772728  1
  O  O498  1  0.58760374  0.64810090  0.57649675  1
  O  O499  1  0.58615971  0.64751676  0.82744575  1
  O  O500  1  0.58894659  0.98041061  0.07642445  1
  O  O501  1  0.58502521  0.98171276  0.32736520  1
  O  O502  1  0.58653283  0.98202053  0.57731103  1
  O  O503  1  0.58594715  0.98235541  0.82695880  1
  O  O504  1  0.41271373  0.01801837  0.17207227  1
  O  O505  1  0.41109277  0.01817312  0.42289335  1
  O  O506  1  0.40962421  0.01968289  0.67295745  1
  O  O507  1  0.41102641  0.01866836  0.92201188  1
  O  O508  1  0.41227944  0.35152521  0.17244701  1
  O  O509  1  0.41071934  0.35200747  0.42255889  1
  O  O510  1  0.41118552  0.35081381  0.67149134  1
  O  O511  1  0.41103304  0.35105712  0.92310865  1
  O  O512  1  0.41371108  0.68507616  0.17373333  1
  O  O513  1  0.41035105  0.68446504  0.42223308  1
  O  O514  1  0.41034149  0.68502989  0.67244769  1
  O  O515  1  0.41133000  0.68471063  0.92181437  1
  O  O516  1  0.91286691  0.01732808  0.17228244  1
  O  O517  1  0.91364796  0.01804811  0.42153300  1
  O  O518  1  0.91228479  0.01806554  0.67240172  1
  O  O519  1  0.91270085  0.01965864  0.92321626  1
  O  O520  1  0.91047324  0.35265622  0.17280611  1
  O  O521  1  0.91416000  0.35183330  0.42215058  1
  O  O522  1  0.91313473  0.35218481  0.67270902  1
  O  O523  1  0.91321255  0.35041132  0.92226210  1
  O  O524  1  0.91264509  0.68481391  0.17306580  1
  O  O525  1  0.91372172  0.68541938  0.42348115  1
  O  O526  1  0.91236443  0.68446955  0.67105361  1
  O  O527  1  0.91257333  0.68496010  0.92280276  1
  O  O528  1  0.16064522  0.01810777  0.20231709  1
  O  O529  1  0.16322767  0.01760379  0.45205762  1
  O  O530  1  0.16294888  0.01942633  0.70299294  1
  O  O531  1  0.16006020  0.01844842  0.95275693  1
  O  O532  1  0.16150926  0.35287654  0.20292455  1
  O  O533  1  0.16186905  0.35209032  0.45254049  1
  O  O534  1  0.16106069  0.35024739  0.70247086  1
  O  O535  1  0.16252140  0.35099226  0.95177053  1
  O  O536  1  0.16402372  0.68352177  0.20327634  1
  O  O537  1  0.16254195  0.68528304  0.45218573  1
  O  O538  1  0.16483262  0.68506802  0.70192084  1
  O  O539  1  0.16264508  0.68535003  0.95277104  1
  O  O540  1  0.66478480  0.01890126  0.20263570  1
  O  O541  1  0.66277822  0.01935372  0.45237354  1
  O  O542  1  0.66501337  0.01857817  0.70178964  1
  O  O543  1  0.66468528  0.01726084  0.95214791  1
  O  O544  1  0.66373071  0.35092093  0.20259461  1
  O  O545  1  0.66239179  0.35141604  0.45342262  1
  O  O546  1  0.66472159  0.35111947  0.70251350  1
  O  O547  1  0.66483559  0.35248195  0.95155463  1
  O  O548  1  0.66159188  0.68446866  0.20307221  1
  O  O549  1  0.66424717  0.68421793  0.45297245  1
  O  O550  1  0.66269985  0.68500349  0.70232678  1
  O  O551  1  0.66123873  0.68499622  0.95377335  1
  O  O552  1  0.33545967  0.31623151  0.04698643  1
  O  O553  1  0.33802018  0.31491247  0.29823274  1
  O  O554  1  0.33849347  0.31511521  0.54736926  1
  O  O555  1  0.33699287  0.31424265  0.79799903  1
  O  O556  1  0.33855067  0.64671544  0.04740611  1
  O  O557  1  0.33694150  0.64903098  0.29834616  1
  O  O558  1  0.33650724  0.64799408  0.54624673  1
  O  O559  1  0.33781714  0.64908662  0.79746098  1
  O  O560  1  0.33553621  0.98224337  0.04774193  1
  O  O561  1  0.33807059  0.98072748  0.29792055  1
  O  O562  1  0.33608802  0.98189523  0.54669647  1
  O  O563  1  0.33833182  0.98211149  0.79816904  1
  O  O564  1  0.83944132  0.31489860  0.04600624  1
  O  O565  1  0.83629293  0.31547843  0.29740210  1
  O  O566  1  0.83722478  0.31535551  0.54821949  1
  O  O567  1  0.84039335  0.31520833  0.79704383  1
  O  O568  1  0.83681985  0.64788085  0.04896232  1
  O  O569  1  0.83656475  0.64747896  0.29776670  1
  O  O570  1  0.83709058  0.64905809  0.54758575  1
  O  O571  1  0.83892373  0.64736858  0.79718920  1
  O  O572  1  0.83742349  0.98217277  0.04787190  1
  O  O573  1  0.83925802  0.98315142  0.29719946  1
  O  O574  1  0.84055758  0.98020082  0.54720986  1
  O  O575  1  0.83846479  0.98286909  0.79656172  1
  O  O576  1  0.41279870  0.14805653  0.17258935  1
  O  O577  1  0.41085303  0.14832605  0.42265259  1
  O  O578  1  0.41035244  0.14974603  0.67221757  1
  O  O579  1  0.41098758  0.14904843  0.92200844  1
  O  O580  1  0.41231468  0.48162556  0.17231161  1
  O  O581  1  0.41113929  0.48212245  0.42290997  1
  O  O582  1  0.41112497  0.48086646  0.67213558  1
  O  O583  1  0.41126748  0.48122945  0.92320947  1
  O  O584  1  0.41349771  0.81494462  0.17303845  1
  O  O585  1  0.40979773  0.81465560  0.42191094  1
  O  O586  1  0.41060495  0.81503984  0.67240565  1
  O  O587  1  0.41147914  0.81519922  0.92194056  1
  O  O588  1  0.91256494  0.14739083  0.17288609  1
  O  O589  1  0.91378707  0.14806123  0.42228419  1
  O  O590  1  0.91207934  0.14830807  0.67258926  1
  O  O591  1  0.91322636  0.14960802  0.92234813  1
  O  O592  1  0.91091741  0.48271221  0.17290512  1
  O  O593  1  0.91390374  0.48187830  0.42199464  1
  O  O594  1  0.91349360  0.48229534  0.67237991  1
  O  O595  1  0.91270230  0.48035669  0.92315515  1
  O  O596  1  0.91203738  0.81517841  0.17210980  1
  O  O597  1  0.91387519  0.81533919  0.42285219  1
  O  O598  1  0.91234923  0.81502592  0.67093172  1
  O  O599  1  0.91291709  0.81499465  0.92298937  1
  O  O600  1  0.08776553  0.18418366  0.07730895  1
  O  O601  1  0.08784150  0.18487568  0.32821041  1
  O  O602  1  0.08658009  0.18572061  0.57773410  1
  O  O603  1  0.08796559  0.18505681  0.82745133  1
  O  O604  1  0.08631386  0.51856262  0.07792013  1
  O  O605  1  0.08968084  0.51869602  0.32756823  1
  O  O606  1  0.08687724  0.51716123  0.57709492  1
  O  O607  1  0.08723901  0.51704621  0.82797292  1
  O  O608  1  0.08668976  0.85243507  0.07689712  1
  O  O609  1  0.08711368  0.85104781  0.32809477  1
  O  O610  1  0.08719095  0.85183880  0.57660814  1
  O  O611  1  0.08824265  0.85251543  0.82760475  1
  O  O612  1  0.58861626  0.18454587  0.07759811  1
  O  O613  1  0.58669484  0.18502180  0.32742561  1
  O  O614  1  0.58593307  0.18484242  0.57657253  1
  O  O615  1  0.58499786  0.18510857  0.82664707  1
  O  O616  1  0.58969966  0.51960747  0.07691676  1
  O  O617  1  0.58705141  0.51832507  0.32753624  1
  O  O618  1  0.58766249  0.51816441  0.57688909  1
  O  O619  1  0.58594096  0.51739799  0.82744494  1
  O  O620  1  0.58808290  0.85029452  0.07745945  1
  O  O621  1  0.58528120  0.85175631  0.32764606  1
  O  O622  1  0.58624648  0.85187002  0.57692283  1
  O  O623  1  0.58618005  0.85217637  0.82712795  1
  O  O624  1  0.33577145  0.18616309  0.04758948  1
  O  O625  1  0.33786496  0.18497875  0.29800269  1
  O  O626  1  0.33873065  0.18486650  0.54702530  1
  O  O627  1  0.33642658  0.18430664  0.79789754  1
  O  O628  1  0.33759795  0.51646260  0.04691354  1
  O  O629  1  0.33751419  0.51913675  0.29885712  1
  O  O630  1  0.33568734  0.51779980  0.54713106  1
  O  O631  1  0.33837830  0.51900894  0.79817306  1
  O  O632  1  0.33584865  0.85217079  0.04759659  1
  O  O633  1  0.33799797  0.85072548  0.29726075  1
  O  O634  1  0.33636256  0.85169475  0.54620457  1
  O  O635  1  0.33839867  0.85193425  0.79791627  1
  O  O636  1  0.83910562  0.18456190  0.04619972  1
  O  O637  1  0.83670004  0.18528526  0.29754291  1
  O  O638  1  0.83728854  0.18549874  0.54826706  1
  O  O639  1  0.84052862  0.18507202  0.79697010  1
  O  O640  1  0.83692849  0.51787850  0.04801071  1
  O  O641  1  0.83630421  0.51739863  0.29714845  1
  O  O642  1  0.83762597  0.51917535  0.54791206  1
  O  O643  1  0.83859387  0.51709942  0.79656116  1
  O  O644  1  0.83678169  0.85225979  0.04876929  1
  O  O645  1  0.84027254  0.85302807  0.29787015  1
  O  O646  1  0.83921857  0.85007742  0.54670850  1
  O  O647  1  0.83908841  0.85266292  0.79717020  1
  O  O648  1  0.16040673  0.14806477  0.20236336  1
  O  O649  1  0.16281500  0.14753002  0.45189614  1
  O  O650  1  0.16368407  0.14954240  0.70269484  1
  O  O651  1  0.15961964  0.14859913  0.95304183  1
  O  O652  1  0.16208084  0.48302247  0.20352232  1
  O  O653  1  0.16226459  0.48210697  0.45298792  1
  O  O654  1  0.16008897  0.48031941  0.70212785  1
  O  O655  1  0.16236946  0.48089574  0.95152433  1
  O  O656  1  0.16333199  0.81364485  0.20272945  1
  O  O657  1  0.16314254  0.81528235  0.45168357  1
  O  O658  1  0.16468248  0.81513015  0.70218057  1
  O  O659  1  0.16272514  0.81565059  0.95304399  1
  O  O660  1  0.66455827  0.14910036  0.20290403  1
  O  O661  1  0.66303611  0.14971952  0.45334630  1
  O  O662  1  0.66451915  0.14863524  0.70230822  1
  O  O663  1  0.66486506  0.14742312  0.95148888  1
  O  O664  1  0.66329655  0.48117172  0.20275549  1
  O  O665  1  0.66227324  0.48174824  0.45336401  1
  O  O666  1  0.66469244  0.48109237  0.70244515  1
  O  O667  1  0.66490698  0.48271695  0.95223194  1
  O  O668  1  0.66133724  0.81456491  0.20262793  1
  O  O669  1  0.66461525  0.81439266  0.45203129  1
  O  O670  1  0.66282039  0.81521456  0.70196246  1
  O  O671  1  0.66159580  0.81560430  0.95354114  1
