# generated using pymatgen
data_Na2MnFe(PO4)2
_symmetry_space_group_name_H-M   'P 1'
_cell_length_a   21.08825834
_cell_length_b   18.94084029
_cell_length_c   20.04663102
_cell_angle_alpha   90.00004223
_cell_angle_beta   89.99607278
_cell_angle_gamma   90.00101528
_symmetry_Int_Tables_number   1
_chemical_formula_structural   Na2MnFe(PO4)2
_chemical_formula_sum   'Na96 Mn48 Fe48 P96 O384'
_cell_volume   8007.21244003
_cell_formula_units_Z   48
loop_
 _symmetry_equiv_pos_site_id
 _symmetry_equiv_pos_as_xyz
  1  'x, y, z'
loop_
 _atom_site_type_symbol
 _atom_site_label
 _atom_site_symmetry_multiplicity
 _atom_site_fract_x
 _atom_site_fract_y
 _atom_site_fract_z
 _atom_site_occupancy
  Na  Na0  1  -0.00069248  0.00055523  -0.00051487  1
  Na  Na1  1  -0.00157249  -0.00019706  0.25136028  1
  Na  Na2  1  0.00109467  0.00095239  0.50018902  1
  Na  Na3  1  0.00076230  0.00073819  0.74880032  1
  Na  Na4  1  -0.00160739  0.33232485  0.00074543  1
  Na  Na5  1  0.00025255  0.33347806  0.25076314  1
  Na  Na6  1  0.00056145  0.33317158  0.49926098  1
  Na  Na7  1  -0.00083919  0.33269292  0.74985103  1
  Na  Na8  1  -0.00138354  0.66620986  0.00023651  1
  Na  Na9  1  -0.00172004  0.66644224  0.25068519  1
  Na  Na10  1  -0.00163604  0.66674908  0.49956888  1
  Na  Na11  1  -0.00066856  0.66665328  0.74925870  1
  Na  Na12  1  0.50299353  0.00046834  0.00012061  1
  Na  Na13  1  0.50155772  -0.00007368  0.25110423  1
  Na  Na14  1  0.49997648  -0.00042363  0.50024762  1
  Na  Na15  1  0.50113126  0.00002843  0.74933616  1
  Na  Na16  1  0.50140458  0.33360815  0.00092288  1
  Na  Na17  1  0.49986357  0.33340892  0.25036323  1
  Na  Na18  1  0.50012880  0.33351159  0.49864802  1
  Na  Na19  1  0.49999049  0.33244465  0.74995129  1
  Na  Na20  1  0.49854784  0.66671858  -0.00026032  1
  Na  Na21  1  0.49712752  0.66641747  0.25024425  1
  Na  Na22  1  0.49885646  0.66743526  0.49992347  1
  Na  Na23  1  0.50002500  0.66738390  0.74947168  1
  Na  Na24  1  0.24742234  -0.00027018  0.12443940  1
  Na  Na25  1  0.24974773  0.00054777  0.37495852  1
  Na  Na26  1  0.24983292  0.00016000  0.62633211  1
  Na  Na27  1  0.24951716  0.00019216  0.87473626  1
  Na  Na28  1  0.24990826  0.33311223  0.12367019  1
  Na  Na29  1  0.25069200  0.33307116  0.37483710  1
  Na  Na30  1  0.25301263  0.33354476  0.62588672  1
  Na  Na31  1  0.25276632  0.33382846  0.87543618  1
  Na  Na32  1  0.25060776  0.66692173  0.12481841  1
  Na  Na33  1  0.25221772  0.66780511  0.37474904  1
  Na  Na34  1  0.25144552  0.66761824  0.62387203  1
  Na  Na35  1  0.25070381  0.66729683  0.87633323  1
  Na  Na36  1  0.75065747  0.00029439  0.12534063  1
  Na  Na37  1  0.75140464  0.00029828  0.37504344  1
  Na  Na38  1  0.74910840  0.00024401  0.62438437  1
  Na  Na39  1  0.74715053  -0.00036494  0.87549019  1
  Na  Na40  1  0.74942029  0.33301470  0.12409606  1
  Na  Na41  1  0.74965375  0.33323952  0.37457460  1
  Na  Na42  1  0.74804609  0.33289229  0.62562795  1
  Na  Na43  1  0.74955594  0.33352295  0.87546953  1
  Na  Na44  1  0.75270736  0.66723910  0.12569976  1
  Na  Na45  1  0.75192815  0.66719452  0.37498920  1
  Na  Na46  1  0.74856195  0.66665644  0.62389356  1
  Na  Na47  1  0.75107994  0.66728939  0.87527096  1
  Na  Na48  1  -0.00021133  0.16636691  0.00037127  1
  Na  Na49  1  0.00059658  0.16626736  0.25038047  1
  Na  Na50  1  0.00067669  0.16559806  0.49977240  1
  Na  Na51  1  -0.00052442  0.16579819  0.74925328  1
  Na  Na52  1  -0.00178920  0.50022839  0.00039906  1
  Na  Na53  1  -0.00215383  0.50071788  0.25043504  1
  Na  Na54  1  -0.00005343  0.49984026  0.49980587  1
  Na  Na55  1  -0.00067929  0.50020809  0.74967601  1
  Na  Na56  1  -0.00061800  0.83319646  -0.00021892  1
  Na  Na57  1  -0.00247347  0.83446372  0.25174638  1
  Na  Na58  1  0.00033888  0.83327417  0.49955320  1
  Na  Na59  1  0.00159618  0.83269395  0.74907488  1
  Na  Na60  1  0.50256075  0.16583668  0.00050501  1
  Na  Na61  1  0.50100997  0.16638047  0.25086613  1
  Na  Na62  1  0.49914032  0.16666575  0.49974045  1
  Na  Na63  1  0.50078153  0.16618019  0.74981250  1
  Na  Na64  1  0.49945341  0.49962964  0.00064271  1
  Na  Na65  1  0.49744998  0.50038803  0.25007030  1
  Na  Na66  1  0.49831271  0.50038452  0.49899341  1
  Na  Na67  1  0.50211787  0.49825894  0.74921491  1
  Na  Na68  1  0.50110460  0.83343886  -0.00038146  1
  Na  Na69  1  0.49947011  0.83371302  0.25073701  1
  Na  Na70  1  0.50068439  0.83312546  0.49987024  1
  Na  Na71  1  0.49982594  0.83417339  0.74986624  1
  Na  Na72  1  0.24738975  0.16687220  0.12386719  1
  Na  Na73  1  0.24833890  0.16632325  0.37509477  1
  Na  Na74  1  0.25099066  0.16582501  0.62619946  1
  Na  Na75  1  0.24965721  0.16669803  0.87513003  1
  Na  Na76  1  0.25107117  0.49926757  0.12505431  1
  Na  Na77  1  0.25387857  0.49872437  0.37392373  1
  Na  Na78  1  0.25034868  0.50093718  0.62453331  1
  Na  Na79  1  0.25125491  0.49959737  0.87567746  1
  Na  Na80  1  0.25023693  0.83304853  0.12382592  1
  Na  Na81  1  0.25061380  0.83333445  0.37529114  1
  Na  Na82  1  0.25141606  0.83376478  0.62553359  1
  Na  Na83  1  0.25205274  0.83287531  0.87560696  1
  Na  Na84  1  0.75051515  0.16686377  0.12448717  1
  Na  Na85  1  0.75109888  0.16611286  0.37468904  1
  Na  Na86  1  0.74909331  0.16622992  0.62579730  1
  Na  Na87  1  0.74953310  0.16614167  0.87570871  1
  Na  Na88  1  0.75108016  0.49983085  0.12431146  1
  Na  Na89  1  0.75182720  0.49912702  0.37510161  1
  Na  Na90  1  0.74884554  0.50013092  0.62461584  1
  Na  Na91  1  0.74897073  0.49993819  0.87570374  1
  Na  Na92  1  0.75088946  0.83342623  0.12644956  1
  Na  Na93  1  0.75134190  0.83271924  0.37441397  1
  Na  Na94  1  0.74723990  0.83445024  0.62356100  1
  Na  Na95  1  0.74825600  0.83423370  0.87464354  1
  Mn  Mn96  1  0.85723162  0.75086902  0.75115820  1
  Mn  Mn97  1  0.64193368  0.58371225  0.99827377  1
  Mn  Mn98  1  0.64173548  0.24963010  0.74781460  1
  Mn  Mn99  1  0.85732859  0.41640935  0.00229699  1
  Mn  Mn100  1  0.14332145  0.24991082  0.49857710  1
  Mn  Mn101  1  0.10759721  0.75000818  0.87217565  1
  Mn  Mn102  1  0.64182425  0.58358971  0.49680150  1
  Mn  Mn103  1  0.14181366  0.58291907  0.99859219  1
  Mn  Mn104  1  0.14256857  0.25054223  0.74810302  1
  Mn  Mn105  1  0.14159332  0.25045594  0.99742061  1
  Mn  Mn106  1  0.39197064  0.91652753  0.37751737  1
  Mn  Mn107  1  0.39295411  0.24927045  0.12748259  1
  Mn  Mn108  1  0.14340086  0.58367667  0.49719952  1
  Mn  Mn109  1  0.85733413  0.41599832  0.50263548  1
  Mn  Mn110  1  0.14211655  0.58377602  0.74821073  1
  Mn  Mn111  1  0.89216419  0.58333940  0.62716155  1
  Mn  Mn112  1  0.60779194  0.74983910  0.87245025  1
  Mn  Mn113  1  0.39276201  0.91702289  0.12707625  1
  Mn  Mn114  1  0.10849137  0.41674457  0.37261742  1
  Mn  Mn115  1  0.14266054  0.58296147  0.24788533  1
  Mn  Mn116  1  0.85710820  0.41624071  0.75229798  1
  Mn  Mn117  1  0.10752140  0.41617692  0.87289819  1
  Mn  Mn118  1  0.89236750  0.91652459  0.62683038  1
  Mn  Mn119  1  0.39136370  0.24971271  0.37703428  1
  Mn  Mn120  1  0.39250090  0.58284579  0.87746292  1
  Mn  Mn121  1  0.60720058  0.41780635  0.37213224  1
  Mn  Mn122  1  0.14099213  0.91657850  0.99781191  1
  Mn  Mn123  1  0.14121400  0.91650894  0.24743744  1
  Mn  Mn124  1  0.89161777  0.24983946  0.62692889  1
  Mn  Mn125  1  0.60811000  0.08297434  0.37316755  1
  Mn  Mn126  1  0.10860917  0.41650187  0.62261825  1
  Mn  Mn127  1  0.85812626  0.75073694  0.00229574  1
  Mn  Mn128  1  0.89133136  0.91669886  0.87643526  1
  Mn  Mn129  1  0.64190466  0.58424615  0.74774885  1
  Mn  Mn130  1  0.14299367  0.91622811  0.74793945  1
  Mn  Mn131  1  0.85718621  0.08304078  0.00191433  1
  Mn  Mn132  1  0.35720666  0.08324755  0.25138141  1
  Mn  Mn133  1  0.89249535  0.24998200  0.37776629  1
  Mn  Mn134  1  0.39257974  0.58347661  0.62768338  1
  Mn  Mn135  1  0.60804245  0.74959068  0.12355755  1
  Mn  Mn136  1  0.64298370  0.25026071  0.24770350  1
  Mn  Mn137  1  0.35813613  0.08353938  0.00241085  1
  Mn  Mn138  1  0.64378910  0.91663170  0.24818216  1
  Mn  Mn139  1  0.10743632  0.75018903  0.37294273  1
  Mn  Mn140  1  0.35855442  0.08274309  0.75265002  1
  Mn  Mn141  1  0.64270484  0.58310118  0.24782806  1
  Mn  Mn142  1  0.35798620  0.74988123  0.00264077  1
  Mn  Mn143  1  0.35918105  0.41734142  0.75255956  1
  Fe  Fe144  1  0.60704380  0.41633043  0.62251275  1
  Fe  Fe145  1  0.10729114  0.08308614  0.37366972  1
  Fe  Fe146  1  0.35826953  0.41635351  0.00238713  1
  Fe  Fe147  1  0.39378482  0.24916401  0.87699888  1
  Fe  Fe148  1  0.39337539  0.91734420  0.62643587  1
  Fe  Fe149  1  0.89212039  0.25004850  0.87645766  1
  Fe  Fe150  1  0.35721693  0.75039792  0.25149451  1
  Fe  Fe151  1  0.10841184  0.75033271  0.62259403  1
  Fe  Fe152  1  0.85634717  0.75066619  0.50218018  1
  Fe  Fe153  1  0.85645827  0.08306630  0.75156798  1
  Fe  Fe154  1  0.10653979  0.74996057  0.12457866  1
  Fe  Fe155  1  0.35711169  0.41619111  0.25076747  1
  Fe  Fe156  1  0.60725900  0.08341093  0.62242712  1
  Fe  Fe157  1  0.35800185  0.41591828  0.50220062  1
  Fe  Fe158  1  0.85841639  0.74982253  0.25232822  1
  Fe  Fe159  1  0.85782858  0.41641519  0.25137932  1
  Fe  Fe160  1  0.85704457  0.08320186  0.50190212  1
  Fe  Fe161  1  0.39242742  0.58384616  0.37644146  1
  Fe  Fe162  1  0.60720962  0.41682659  0.12374537  1
  Fe  Fe163  1  0.89282273  0.91677127  0.37807875  1
  Fe  Fe164  1  0.60732321  0.08370274  0.87300756  1
  Fe  Fe165  1  0.60675933  0.41631783  0.87374939  1
  Fe  Fe166  1  0.60686538  0.74951816  0.37314260  1
  Fe  Fe167  1  0.10695115  0.41694549  0.12366008  1
  Fe  Fe168  1  0.10580860  0.08308790  0.12346637  1
  Fe  Fe169  1  0.89265692  0.25007773  0.12710735  1
  Fe  Fe170  1  0.39236567  0.58323423  0.12689426  1
  Fe  Fe171  1  0.14359510  0.91673394  0.49915022  1
  Fe  Fe172  1  0.89263402  0.58310497  0.12708802  1
  Fe  Fe173  1  0.64275790  0.24970601  0.99834775  1
  Fe  Fe174  1  0.60667412  0.75013302  0.62242922  1
  Fe  Fe175  1  0.39367545  0.24921954  0.62630543  1
  Fe  Fe176  1  0.85825306  0.08381503  0.25186673  1
  Fe  Fe177  1  0.89252624  0.58349329  0.37706421  1
  Fe  Fe178  1  0.64200139  0.24933623  0.49853479  1
  Fe  Fe179  1  0.89196359  0.58279267  0.87631159  1
  Fe  Fe180  1  0.35699387  0.08304919  0.50201258  1
  Fe  Fe181  1  0.14219600  0.25041252  0.24794156  1
  Fe  Fe182  1  0.64274536  0.91689301  0.49804435  1
  Fe  Fe183  1  0.89213203  0.91672481  0.12652118  1
  Fe  Fe184  1  0.10740288  0.08304597  0.62300473  1
  Fe  Fe185  1  0.64171073  0.91674137  0.74772669  1
  Fe  Fe186  1  0.10636398  0.08355599  0.87331569  1
  Fe  Fe187  1  0.35772954  0.75114635  0.50229362  1
  Fe  Fe188  1  0.39396476  0.91767429  0.87707992  1
  Fe  Fe189  1  0.64270442  0.91664414  0.99879184  1
  Fe  Fe190  1  0.35791666  0.75017513  0.75138844  1
  Fe  Fe191  1  0.60900853  0.08351964  0.12390764  1
  P  P192  1  0.05326793  0.25024590  0.11161710  1
  P  P193  1  0.05470927  0.24895995  0.35990370  1
  P  P194  1  0.05334223  0.24895380  0.60986154  1
  P  P195  1  0.05170777  0.24921276  0.85994095  1
  P  P196  1  0.05201648  0.58331375  0.11098520  1
  P  P197  1  0.05235957  0.58366365  0.36014856  1
  P  P198  1  0.05397591  0.58426478  0.60938059  1
  P  P199  1  0.05161915  0.58297074  0.86016444  1
  P  P200  1  0.05125131  0.91647878  0.11064747  1
  P  P201  1  0.05361116  0.91742136  0.36210768  1
  P  P202  1  0.05466549  0.91673721  0.60928574  1
  P  P203  1  0.05272246  0.91764643  0.85944277  1
  P  P204  1  0.55479387  0.25012668  0.11015023  1
  P  P205  1  0.55435335  0.24982727  0.36087818  1
  P  P206  1  0.55312580  0.24949587  0.60928817  1
  P  P207  1  0.55379114  0.24994431  0.86163446  1
  P  P208  1  0.55191572  0.58290753  0.11061129  1
  P  P209  1  0.55182624  0.58454041  0.35964980  1
  P  P210  1  0.55340443  0.58357599  0.60954635  1
  P  P211  1  0.55303279  0.58243708  0.86006629  1
  P  P212  1  0.55480474  0.91699157  0.11010782  1
  P  P213  1  0.55502872  0.91565759  0.36144516  1
  P  P214  1  0.55436625  0.91685381  0.61039188  1
  P  P215  1  0.55461247  0.91744709  0.86044913  1
  P  P216  1  0.44918538  0.08316650  0.14031953  1
  P  P217  1  0.44575181  0.08299822  0.39075903  1
  P  P218  1  0.44680774  0.08308170  0.63844849  1
  P  P219  1  0.44837094  0.08303079  0.88999242  1
  P  P220  1  0.44627457  0.41673539  0.13952743  1
  P  P221  1  0.44407379  0.41719153  0.38877216  1
  P  P222  1  0.44708589  0.41541337  0.63838954  1
  P  P223  1  0.44743296  0.41541621  0.89084344  1
  P  P224  1  0.44622844  0.74979704  0.14067228  1
  P  P225  1  0.44551971  0.74976982  0.38947276  1
  P  P226  1  0.44608745  0.75161901  0.63907272  1
  P  P227  1  0.44557524  0.75126675  0.88859452  1
  P  P228  1  0.94654928  0.08341968  0.14026282  1
  P  P229  1  0.94579164  0.08284930  0.38987412  1
  P  P230  1  0.94543698  0.08294797  0.63914741  1
  P  P231  1  0.94562986  0.08393200  0.88844751  1
  P  P232  1  0.94699184  0.41625873  0.14045218  1
  P  P233  1  0.94564676  0.41720162  0.38910521  1
  P  P234  1  0.94678635  0.41636063  0.64008498  1
  P  P235  1  0.94600773  0.41611516  0.89000336  1
  P  P236  1  0.94687468  0.75024137  0.14072485  1
  P  P237  1  0.94428275  0.75013565  0.38985534  1
  P  P238  1  0.94707493  0.75061504  0.63839974  1
  P  P239  1  0.94617588  0.74955021  0.88941645  1
  P  P240  1  0.19420489  0.08398172  0.23521808  1
  P  P241  1  0.19616155  0.08230632  0.48618385  1
  P  P242  1  0.19500518  0.08353047  0.73593736  1
  P  P243  1  0.19407863  0.08338085  0.98520151  1
  P  P244  1  0.19734122  0.41597772  0.23422705  1
  P  P245  1  0.19899494  0.41661051  0.48484220  1
  P  P246  1  0.19774414  0.41678242  0.73508404  1
  P  P247  1  0.19673018  0.41676657  0.98608905  1
  P  P248  1  0.19721867  0.74994502  0.23446548  1
  P  P249  1  0.19729057  0.75132687  0.48600012  1
  P  P250  1  0.19791324  0.75006044  0.73435971  1
  P  P251  1  0.19479685  0.74983467  0.98638880  1
  P  P252  1  0.69832334  0.08338694  0.23484115  1
  P  P253  1  0.69638471  0.08330809  0.48617006  1
  P  P254  1  0.69509153  0.08266970  0.73546213  1
  P  P255  1  0.69446696  0.08337729  0.98597395  1
  P  P256  1  0.69777097  0.41709140  0.23420923  1
  P  P257  1  0.69481692  0.41564292  0.48570363  1
  P  P258  1  0.69428684  0.41664491  0.73554823  1
  P  P259  1  0.69426386  0.41598946  0.98594624  1
  P  P260  1  0.69769979  0.74948858  0.23670043  1
  P  P261  1  0.69531114  0.75092206  0.48488600  1
  P  P262  1  0.69555586  0.75107262  0.73368365  1
  P  P263  1  0.69673023  0.75080039  0.98546111  1
  P  P264  1  0.30501187  0.25019554  0.01384936  1
  P  P265  1  0.30174982  0.24997531  0.26427017  1
  P  P266  1  0.30446336  0.24920269  0.51588830  1
  P  P267  1  0.30613435  0.24949610  0.76502479  1
  P  P268  1  0.30438535  0.58235968  0.01595222  1
  P  P269  1  0.30546526  0.58355607  0.26383437  1
  P  P270  1  0.30564846  0.58365070  0.51342697  1
  P  P271  1  0.30359049  0.58466633  0.76527339  1
  P  P272  1  0.30417434  0.91748188  0.01402530  1
  P  P273  1  0.30291799  0.91629355  0.26468951  1
  P  P274  1  0.30332786  0.91735887  0.51582158  1
  P  P275  1  0.30605413  0.91608236  0.76471668  1
  P  P276  1  0.80387640  0.24976818  0.01435757  1
  P  P277  1  0.80525411  0.25021400  0.26366074  1
  P  P278  1  0.80154677  0.24909293  0.51518425  1
  P  P279  1  0.80325191  0.24878173  0.76575208  1
  P  P280  1  0.80504512  0.58337007  0.01479770  1
  P  P281  1  0.80572923  0.58272062  0.26442485  1
  P  P282  1  0.80425170  0.58417437  0.51376667  1
  P  P283  1  0.80323939  0.58354879  0.76545290  1
  P  P284  1  0.80242308  0.91695694  0.01569204  1
  P  P285  1  0.80654165  0.91718470  0.26470773  1
  P  P286  1  0.80336429  0.91665470  0.51364706  1
  P  P287  1  0.80120398  0.91772835  0.76425956  1
  O  O288  1  0.05788990  0.25062922  0.18825306  1
  O  O289  1  0.05805156  0.24975543  0.43665304  1
  O  O290  1  0.05633847  0.24957727  0.68659611  1
  O  O291  1  0.05528318  0.24990000  0.93670913  1
  O  O292  1  0.05588757  0.58318992  0.18762955  1
  O  O293  1  0.05689667  0.58358130  0.43678924  1
  O  O294  1  0.05678476  0.58398684  0.68619577  1
  O  O295  1  0.05556526  0.58304685  0.93686414  1
  O  O296  1  0.05448194  0.91654826  0.18738720  1
  O  O297  1  0.05907682  0.91679573  0.43861725  1
  O  O298  1  0.05750875  0.91636819  0.68604200  1
  O  O299  1  0.05525272  0.91703416  0.93624264  1
  O  O300  1  0.55734387  0.25019165  0.18700607  1
  O  O301  1  0.55856434  0.24945898  0.43758331  1
  O  O302  1  0.55631750  0.24931416  0.68608801  1
  O  O303  1  0.55819175  0.24982758  0.93823072  1
  O  O304  1  0.55580385  0.58347652  0.18727730  1
  O  O305  1  0.55570107  0.58395490  0.43630459  1
  O  O306  1  0.55622546  0.58368657  0.68630268  1
  O  O307  1  0.55578584  0.58352553  0.93682997  1
  O  O308  1  0.55793197  0.91632611  0.18693358  1
  O  O309  1  0.55913230  0.91656109  0.43819170  1
  O  O310  1  0.55831314  0.91690732  0.68714267  1
  O  O311  1  0.55912872  0.91649737  0.93711163  1
  O  O312  1  0.44496842  0.08318039  0.06368686  1
  O  O313  1  0.44246863  0.08289747  0.31399312  1
  O  O314  1  0.44178331  0.08275699  0.56188710  1
  O  O315  1  0.44485998  0.08302486  0.81327207  1
  O  O316  1  0.44196573  0.41603933  0.06283841  1
  O  O317  1  0.43990176  0.41583067  0.31199025  1
  O  O318  1  0.44229466  0.41612794  0.56172722  1
  O  O319  1  0.44448682  0.41619101  0.81402564  1
  O  O320  1  0.44354210  0.75066076  0.06384072  1
  O  O321  1  0.44083481  0.75094931  0.31282102  1
  O  O322  1  0.44131528  0.75119766  0.56234118  1
  O  O323  1  0.44201118  0.75039162  0.81184447  1
  O  O324  1  0.94301201  0.08352864  0.06352653  1
  O  O325  1  0.94141083  0.08364799  0.31319238  1
  O  O326  1  0.94019343  0.08308553  0.56244647  1
  O  O327  1  0.94097994  0.08296354  0.81179630  1
  O  O328  1  0.94320599  0.41594153  0.06373643  1
  O  O329  1  0.94151702  0.41640469  0.31241782  1
  O  O330  1  0.94339447  0.41611003  0.56329021  1
  O  O331  1  0.94323186  0.41617282  0.81328054  1
  O  O332  1  0.94382010  0.75037294  0.06398402  1
  O  O333  1  0.94071032  0.75024748  0.31300324  1
  O  O334  1  0.94138674  0.75104586  0.56182042  1
  O  O335  1  0.94314505  0.75048009  0.81263763  1
  O  O336  1  0.18886832  0.08320084  0.06196471  1
  O  O337  1  0.19060999  0.08286747  0.31203981  1
  O  O338  1  0.19168893  0.08302813  0.56289008  1
  O  O339  1  0.19026960  0.08367892  0.81264853  1
  O  O340  1  0.19067411  0.41660061  0.06269549  1
  O  O341  1  0.19395470  0.41671925  0.31096549  1
  O  O342  1  0.19500696  0.41685166  0.56151480  1
  O  O343  1  0.19410939  0.41628084  0.81187694  1
  O  O344  1  0.18957514  0.75000274  0.06309063  1
  O  O345  1  0.19327418  0.75004509  0.31120888  1
  O  O346  1  0.19240045  0.75059340  0.56262786  1
  O  O347  1  0.19391537  0.75010582  0.81113390  1
  O  O348  1  0.69147809  0.08363575  0.06278942  1
  O  O349  1  0.69418221  0.08332810  0.31152456  1
  O  O350  1  0.69153154  0.08331723  0.56285486  1
  O  O351  1  0.69053111  0.08348662  0.81220575  1
  O  O352  1  0.69032441  0.41699470  0.06270236  1
  O  O353  1  0.69348874  0.41730469  0.31093968  1
  O  O354  1  0.69045123  0.41653736  0.56250587  1
  O  O355  1  0.69010739  0.41642197  0.81234173  1
  O  O356  1  0.69407872  0.74978899  0.06225323  1
  O  O357  1  0.69209064  0.74901268  0.31323631  1
  O  O358  1  0.69021663  0.75009395  0.56157147  1
  O  O359  1  0.69292560  0.75016484  0.81051601  1
  O  O360  1  0.30570212  0.24910264  0.18758928  1
  O  O361  1  0.30625369  0.24902258  0.43903645  1
  O  O362  1  0.31074677  0.24911167  0.68827494  1
  O  O363  1  0.30997437  0.24925867  0.93714714  1
  O  O364  1  0.30886046  0.58348922  0.18703043  1
  O  O365  1  0.30898348  0.58386590  0.43661934  1
  O  O366  1  0.30680793  0.58392045  0.68844610  1
  O  O367  1  0.30744563  0.58303006  0.93915880  1
  O  O368  1  0.30623796  0.91699725  0.18795190  1
  O  O369  1  0.30631860  0.91723576  0.43907360  1
  O  O370  1  0.31019323  0.91748682  0.68795812  1
  O  O371  1  0.30914854  0.91806653  0.93733745  1
  O  O372  1  0.80898807  0.25022212  0.18685981  1
  O  O373  1  0.80573168  0.24974941  0.43847716  1
  O  O374  1  0.80606961  0.24954696  0.68897525  1
  O  O375  1  0.80859752  0.24984198  0.93770178  1
  O  O376  1  0.80963368  0.58298945  0.18754602  1
  O  O377  1  0.80857640  0.58334205  0.43702341  1
  O  O378  1  0.80617889  0.58330238  0.68860644  1
  O  O379  1  0.80914208  0.58311597  0.93804509  1
  O  O380  1  0.81000769  0.91696652  0.18784048  1
  O  O381  1  0.80812341  0.91674582  0.43698649  1
  O  O382  1  0.80537083  0.91720318  0.68760641  1
  O  O383  1  0.80595152  0.91702079  0.93897281  1
  O  O384  1  0.23477576  0.24992598  0.03731771  1
  O  O385  1  0.23181794  0.25018392  0.28907827  1
  O  O386  1  0.23503214  0.24942434  0.54190832  1
  O  O387  1  0.23598031  0.24983896  0.78881223  1
  O  O388  1  0.23463506  0.58289987  0.04090387  1
  O  O389  1  0.23558299  0.58330966  0.28878012  1
  O  O390  1  0.23586044  0.58407209  0.53837161  1
  O  O391  1  0.23414907  0.58396568  0.79097992  1
  O  O392  1  0.23401097  0.91686226  0.03772534  1
  O  O393  1  0.23323844  0.91659855  0.28983675  1
  O  O394  1  0.23341605  0.91712538  0.54083578  1
  O  O395  1  0.23593253  0.91661036  0.78872081  1
  O  O396  1  0.73344751  0.24964346  0.03770030  1
  O  O397  1  0.73539852  0.24997220  0.28839638  1
  O  O398  1  0.73158122  0.24927524  0.53983206  1
  O  O399  1  0.73350027  0.24947458  0.79076571  1
  O  O400  1  0.73499147  0.58345542  0.03890825  1
  O  O401  1  0.73571701  0.58297694  0.28890902  1
  O  O402  1  0.73416881  0.58384505  0.53768240  1
  O  O403  1  0.73355082  0.58370301  0.79057283  1
  O  O404  1  0.73248548  0.91710557  0.04037420  1
  O  O405  1  0.73650255  0.91685602  0.28908352  1
  O  O406  1  0.73301400  0.91689713  0.53736579  1
  O  O407  1  0.73116703  0.91725416  0.78872520  1
  O  O408  1  0.26409697  0.08309208  0.21037264  1
  O  O409  1  0.26653024  0.08314611  0.46241473  1
  O  O410  1  0.26538179  0.08306059  0.71275513  1
  O  O411  1  0.26439087  0.08362825  0.96196557  1
  O  O412  1  0.26750854  0.41623251  0.20979181  1
  O  O413  1  0.26907828  0.41594954  0.46054295  1
  O  O414  1  0.26755088  0.41711845  0.71040394  1
  O  O415  1  0.26728308  0.41671008  0.96326053  1
  O  O416  1  0.26735669  0.74998946  0.21030381  1
  O  O417  1  0.26774637  0.75109379  0.46256147  1
  O  O418  1  0.26804787  0.75067828  0.71015206  1
  O  O419  1  0.26507415  0.74991033  0.96311501  1
  O  O420  1  0.76848145  0.08343786  0.21075050  1
  O  O421  1  0.76670509  0.08299824  0.46227476  1
  O  O422  1  0.76541231  0.08326198  0.71174219  1
  O  O423  1  0.76435924  0.08309768  0.96119414  1
  O  O424  1  0.76791882  0.41658508  0.21014024  1
  O  O425  1  0.76484078  0.41609274  0.46163043  1
  O  O426  1  0.76435397  0.41645310  0.71149853  1
  O  O427  1  0.76438107  0.41657665  0.96191021  1
  O  O428  1  0.76829489  0.75007535  0.21377901  1
  O  O429  1  0.76582913  0.75041848  0.46177672  1
  O  O430  1  0.76513776  0.75065298  0.70817353  1
  O  O431  1  0.76619754  0.75083081  0.95975925  1
  O  O432  1  0.01667426  0.08340460  0.16482828  1
  O  O433  1  0.01620303  0.08325079  0.41342898  1
  O  O434  1  0.01603111  0.08277822  0.66190189  1
  O  O435  1  0.01575647  0.08363657  0.91276185  1
  O  O436  1  0.01715662  0.41678962  0.16493012  1
  O  O437  1  0.01570225  0.41651074  0.41331771  1
  O  O438  1  0.01643324  0.41644750  0.66510427  1
  O  O439  1  0.01546519  0.41605214  0.91592960  1
  O  O440  1  0.01680838  0.75015291  0.16606020  1
  O  O441  1  0.01441194  0.75016951  0.41386173  1
  O  O442  1  0.01751830  0.75054080  0.66160245  1
  O  O443  1  0.01574414  0.74979986  0.91485555  1
  O  O444  1  0.51928328  0.08345399  0.16475234  1
  O  O445  1  0.51561982  0.08290274  0.41530076  1
  O  O446  1  0.51721278  0.08303137  0.66211480  1
  O  O447  1  0.51842338  0.08322758  0.91451209  1
  O  O448  1  0.51660658  0.41646307  0.16354828  1
  O  O449  1  0.51422335  0.41698565  0.41260166  1
  O  O450  1  0.51737961  0.41540140  0.66222455  1
  O  O451  1  0.51738926  0.41631534  0.91563367  1
  O  O452  1  0.51590317  0.75015338  0.16597061  1
  O  O453  1  0.51584565  0.75010593  0.41327102  1
  O  O454  1  0.51656574  0.75093907  0.66237309  1
  O  O455  1  0.51541590  0.75067528  0.91338780  1
  O  O456  1  0.48513815  0.24984327  0.08485225  1
  O  O457  1  0.48432532  0.24980363  0.33672265  1
  O  O458  1  0.48309585  0.24957705  0.58459604  1
  O  O459  1  0.48369737  0.24942689  0.83708225  1
  O  O460  1  0.48189805  0.58316055  0.08596669  1
  O  O461  1  0.48175393  0.58384107  0.33542359  1
  O  O462  1  0.48375298  0.58377373  0.58427314  1
  O  O463  1  0.48358103  0.58250224  0.83423489  1
  O  O464  1  0.48512133  0.91656483  0.08495687  1
  O  O465  1  0.48501505  0.91649243  0.33734698  1
  O  O466  1  0.48402959  0.91686524  0.58639536  1
  O  O467  1  0.48436705  0.91724430  0.83645651  1
  O  O468  1  0.98288850  0.24973948  0.08771100  1
  O  O469  1  0.98481529  0.24969449  0.33545568  1
  O  O470  1  0.98376438  0.24906657  0.58432123  1
  O  O471  1  0.98179621  0.24948978  0.83510952  1
  O  O472  1  0.98183582  0.58306357  0.08656454  1
  O  O473  1  0.98216142  0.58394765  0.33636116  1
  O  O474  1  0.98429377  0.58361633  0.58419325  1
  O  O475  1  0.98162434  0.58305824  0.83552905  1
  O  O476  1  0.98130746  0.91676995  0.08544809  1
  O  O477  1  0.98309188  0.91700037  0.33900972  1
  O  O478  1  0.98492826  0.91710966  0.58416689  1
  O  O479  1  0.98328350  0.91705951  0.83356547  1
  O  O480  1  0.08630870  0.31537460  0.07805149  1
  O  O481  1  0.08919957  0.31363001  0.32690290  1
  O  O482  1  0.08762312  0.31391531  0.57732589  1
  O  O483  1  0.08583638  0.31420656  0.82731575  1
  O  O484  1  0.08536411  0.64860684  0.07831087  1
  O  O485  1  0.08606511  0.64865625  0.32728610  1
  O  O486  1  0.08779915  0.64954669  0.57704269  1
  O  O487  1  0.08550773  0.64798229  0.82734120  1
  O  O488  1  0.08526896  0.98149781  0.07808773  1
  O  O489  1  0.08640155  0.98264791  0.32864107  1
  O  O490  1  0.08900123  0.98192483  0.57720045  1
  O  O491  1  0.08686636  0.98284583  0.82754510  1
  O  O492  1  0.58887498  0.31529626  0.07790317  1
  O  O493  1  0.58788045  0.31492363  0.32792636  1
  O  O494  1  0.58725995  0.31433594  0.57666212  1
  O  O495  1  0.58684464  0.31522602  0.82845781  1
  O  O496  1  0.58577618  0.64790535  0.07767494  1
  O  O497  1  0.58537948  0.64974192  0.32704308  1
  O  O498  1  0.58736477  0.64880916  0.57719358  1
  O  O499  1  0.58718465  0.64749178  0.82749222  1
  O  O500  1  0.58888251  0.98217952  0.07799096  1
  O  O501  1  0.58906279  0.98040569  0.32828176  1
  O  O502  1  0.58800827  0.98183256  0.57720540  1
  O  O503  1  0.58793133  0.98270515  0.82748682  1
  O  O504  1  0.41548001  0.01813518  0.17313045  1
  O  O505  1  0.41162398  0.01813381  0.42357821  1
  O  O506  1  0.41366279  0.01807693  0.67213154  1
  O  O507  1  0.41475685  0.01789409  0.92274919  1
  O  O508  1  0.41270870  0.35180976  0.17303350  1
  O  O509  1  0.41048320  0.35235409  0.42239373  1
  O  O510  1  0.41380300  0.35038618  0.67147268  1
  O  O511  1  0.41385434  0.35014819  0.92325071  1
  O  O512  1  0.41201782  0.68456435  0.17248341  1
  O  O513  1  0.41220749  0.68451493  0.42222989  1
  O  O514  1  0.41247268  0.68677715  0.67257603  1
  O  O515  1  0.41160653  0.68643413  0.92173780  1
  O  O516  1  0.91278055  0.01837131  0.17291780  1
  O  O517  1  0.91243620  0.01777131  0.42310921  1
  O  O518  1  0.91223528  0.01791700  0.67266844  1
  O  O519  1  0.91205712  0.01898835  0.92193980  1
  O  O520  1  0.91338207  0.35114680  0.17337687  1
  O  O521  1  0.91186872  0.35228816  0.42241009  1
  O  O522  1  0.91255780  0.35132505  0.67239798  1
  O  O523  1  0.91172614  0.35090379  0.92218978  1
  O  O524  1  0.91267673  0.68515261  0.17310313  1
  O  O525  1  0.91057330  0.68502316  0.42251674  1
  O  O526  1  0.91367924  0.68567294  0.67166349  1
  O  O527  1  0.91206385  0.68443820  0.92151836  1
  O  O528  1  0.15975302  0.01936615  0.20202283  1
  O  O529  1  0.16313202  0.01699194  0.45296736  1
  O  O530  1  0.16150729  0.01862284  0.70255899  1
  O  O531  1  0.16065617  0.01844158  0.95181357  1
  O  O532  1  0.16335351  0.35101249  0.20166300  1
  O  O533  1  0.16490212  0.35159308  0.45242111  1
  O  O534  1  0.16413030  0.35160711  0.70231353  1
  O  O535  1  0.16375586  0.35175910  0.95225835  1
  O  O536  1  0.16330688  0.68492575  0.20174992  1
  O  O537  1  0.16407492  0.68651924  0.45204986  1
  O  O538  1  0.16432643  0.68500938  0.70144878  1
  O  O539  1  0.16189229  0.68454477  0.95312165  1
  O  O540  1  0.66446422  0.01841484  0.20206255  1
  O  O541  1  0.66308678  0.01822290  0.45288105  1
  O  O542  1  0.66178005  0.01765604  0.70221984  1
  O  O543  1  0.66051595  0.01829844  0.95340422  1
  O  O544  1  0.66352789  0.35225876  0.20159527  1
  O  O545  1  0.66156583  0.35032093  0.45309223  1
  O  O546  1  0.66059490  0.35157849  0.70249666  1
  O  O547  1  0.66117627  0.35049864  0.95316645  1
  O  O548  1  0.66497648  0.68454750  0.20261141  1
  O  O549  1  0.66185409  0.68613240  0.45098337  1
  O  O550  1  0.66090756  0.68630015  0.70114231  1
  O  O551  1  0.66247337  0.68588421  0.95280236  1
  O  O552  1  0.33822190  0.31547633  0.04676400  1
  O  O553  1  0.33591862  0.31503294  0.29652129  1
  O  O554  1  0.33919279  0.31421536  0.54773017  1
  O  O555  1  0.34003732  0.31438222  0.79798051  1
  O  O556  1  0.33890872  0.64719706  0.04848936  1
  O  O557  1  0.33913442  0.64876891  0.29664340  1
  O  O558  1  0.33956288  0.64870896  0.54615267  1
  O  O559  1  0.33751301  0.65003432  0.79709548  1
  O  O560  1  0.33713826  0.98252126  0.04779710  1
  O  O561  1  0.33714761  0.98116362  0.29740111  1
  O  O562  1  0.33733416  0.98242199  0.54849449  1
  O  O563  1  0.33994889  0.98081700  0.79836519  1
  O  O564  1  0.83723847  0.31468812  0.04790353  1
  O  O565  1  0.83861057  0.31544731  0.29656152  1
  O  O566  1  0.83531109  0.31408905  0.54816243  1
  O  O567  1  0.83780135  0.31349576  0.79843743  1
  O  O568  1  0.83888708  0.64826655  0.04784199  1
  O  O569  1  0.83964890  0.64765064  0.29738375  1
  O  O570  1  0.83741242  0.64965657  0.54646770  1
  O  O571  1  0.83754226  0.64866644  0.79746700  1
  O  O572  1  0.83666638  0.98184551  0.04832022  1
  O  O573  1  0.83987471  0.98255529  0.29746353  1
  O  O574  1  0.83675456  0.98153599  0.54702630  1
  O  O575  1  0.83466219  0.98288159  0.79719025  1
  O  O576  1  0.41519002  0.14812205  0.17311988  1
  O  O577  1  0.41159223  0.14800696  0.42317069  1
  O  O578  1  0.41379591  0.14821421  0.67191547  1
  O  O579  1  0.41453831  0.14796640  0.92282101  1
  O  O580  1  0.41263851  0.48178764  0.17231029  1
  O  O581  1  0.41082777  0.48257978  0.42132176  1
  O  O582  1  0.41411225  0.48061017  0.67199404  1
  O  O583  1  0.41279488  0.48007456  0.92352776  1
  O  O584  1  0.41174401  0.81459316  0.17337251  1
  O  O585  1  0.41197910  0.81455498  0.42338371  1
  O  O586  1  0.41312128  0.81681162  0.67223957  1
  O  O587  1  0.41218430  0.81662585  0.92120609  1
  O  O588  1  0.91278747  0.14845600  0.17315428  1
  O  O589  1  0.91218032  0.14768570  0.42345053  1
  O  O590  1  0.91208249  0.14776168  0.67274780  1
  O  O591  1  0.91233918  0.14909383  0.92156294  1
  O  O592  1  0.91274113  0.48116636  0.17292720  1
  O  O593  1  0.91233903  0.48253373  0.42180188  1
  O  O594  1  0.91254801  0.48138955  0.67231611  1
  O  O595  1  0.91168068  0.48120510  0.92219549  1
  O  O596  1  0.91273716  0.81525981  0.17318689  1
  O  O597  1  0.91063077  0.81521571  0.42291024  1
  O  O598  1  0.91397499  0.81562071  0.67216101  1
  O  O599  1  0.91203639  0.81468631  0.92197856  1
  O  O600  1  0.08662805  0.18513586  0.07850036  1
  O  O601  1  0.08818817  0.18346871  0.32772764  1
  O  O602  1  0.08747529  0.18366182  0.57787963  1
  O  O603  1  0.08563056  0.18416723  0.82756626  1
  O  O604  1  0.08574275  0.51822751  0.07808146  1
  O  O605  1  0.08587463  0.51858797  0.32715355  1
  O  O606  1  0.08836467  0.51918971  0.57713449  1
  O  O607  1  0.08546033  0.51790638  0.82754488  1
  O  O608  1  0.08507600  0.85128168  0.07827319  1
  O  O609  1  0.08662016  0.85251232  0.32808860  1
  O  O610  1  0.08889929  0.85183220  0.57659067  1
  O  O611  1  0.08746888  0.85274761  0.82730004  1
  O  O612  1  0.58934464  0.18520510  0.07795800  1
  O  O613  1  0.58802232  0.18482249  0.32789348  1
  O  O614  1  0.58702903  0.18437145  0.57662906  1
  O  O615  1  0.58747758  0.18504055  0.82829697  1
  O  O616  1  0.58572877  0.51780216  0.07816157  1
  O  O617  1  0.58578045  0.51965278  0.32667625  1
  O  O618  1  0.58725006  0.51834955  0.57720147  1
  O  O619  1  0.58723111  0.51716722  0.82843817  1
  O  O620  1  0.58917689  0.85211745  0.07740585  1
  O  O621  1  0.58818303  0.85028103  0.32865252  1
  O  O622  1  0.58790519  0.85184826  0.57722201  1
  O  O623  1  0.58816765  0.85266413  0.82667121  1
  O  O624  1  0.33824510  0.18530083  0.04764852  1
  O  O625  1  0.33543751  0.18499479  0.29740507  1
  O  O626  1  0.33880580  0.18409531  0.54807647  1
  O  O627  1  0.33951132  0.18438748  0.79839461  1
  O  O628  1  0.33849400  0.51718832  0.04810456  1
  O  O629  1  0.33953958  0.51850245  0.29628408  1
  O  O630  1  0.33907504  0.51828401  0.54614041  1
  O  O631  1  0.33818111  0.51970094  0.79751932  1
  O  O632  1  0.33789685  0.85244988  0.04688268  1
  O  O633  1  0.33687503  0.85103180  0.29696930  1
  O  O634  1  0.33778074  0.85249970  0.54830900  1
  O  O635  1  0.33935136  0.85070753  0.79716561  1
  O  O636  1  0.83739756  0.18487580  0.04768637  1
  O  O637  1  0.83893678  0.18506639  0.29648260  1
  O  O638  1  0.83533433  0.18395748  0.54766322  1
  O  O639  1  0.83697132  0.18334698  0.79782216  1
  O  O640  1  0.83871685  0.51839401  0.04799724  1
  O  O641  1  0.83918585  0.51738286  0.29707191  1
  O  O642  1  0.83773107  0.51925966  0.54714342  1
  O  O643  1  0.83730817  0.51854304  0.79808347  1
  O  O644  1  0.83655155  0.85212045  0.04849981  1
  O  O645  1  0.84039942  0.85229549  0.29770350  1
  O  O646  1  0.83629929  0.85138367  0.54703685  1
  O  O647  1  0.83507853  0.85274113  0.79711747  1
  O  O648  1  0.16090256  0.14948669  0.20277748  1
  O  O649  1  0.16219578  0.14692217  0.45263523  1
  O  O650  1  0.16189619  0.14851599  0.70237525  1
  O  O651  1  0.16054140  0.14837964  0.95190307  1
  O  O652  1  0.16346176  0.48103210  0.20138998  1
  O  O653  1  0.16566319  0.48169027  0.45158028  1
  O  O654  1  0.16366525  0.48183294  0.70280093  1
  O  O655  1  0.16375733  0.48187306  0.95264130  1
  O  O656  1  0.16314853  0.81482262  0.20159541  1
  O  O657  1  0.16417036  0.81660673  0.45298146  1
  O  O658  1  0.16376344  0.81494292  0.70159630  1
  O  O659  1  0.16167751  0.81482806  0.95281547  1
  O  O660  1  0.66439651  0.14822336  0.20190441  1
  O  O661  1  0.66328275  0.14843826  0.45285063  1
  O  O662  1  0.66135529  0.14754109  0.70203852  1
  O  O663  1  0.66084256  0.14850190  0.95293416  1
  O  O664  1  0.66410899  0.48213506  0.20124804  1
  O  O665  1  0.66132076  0.48066654  0.45222250  1
  O  O666  1  0.66069380  0.48156401  0.70234296  1
  O  O667  1  0.66031343  0.48066923  0.95257220  1
  O  O668  1  0.66447822  0.81452022  0.20344630  1
  O  O669  1  0.66238116  0.81619896  0.45177423  1
  O  O670  1  0.66139502  0.81632292  0.70177101  1
  O  O671  1  0.66248455  0.81606713  0.95365330  1
