# generated using pymatgen
data_Na2MnFe(PO4)2
_symmetry_space_group_name_H-M   'P 1'
_cell_length_a   21.08632440
_cell_length_b   18.93902357
_cell_length_c   20.04506805
_cell_angle_alpha   90.00005967
_cell_angle_beta   89.99831263
_cell_angle_gamma   90.00323350
_symmetry_Int_Tables_number   1
_chemical_formula_structural   Na2MnFe(PO4)2
_chemical_formula_sum   'Na96 Mn48 Fe48 P96 O384'
_cell_volume   8005.08600234
_cell_formula_units_Z   48
loop_
 _symmetry_equiv_pos_site_id
 _symmetry_equiv_pos_as_xyz
  1  'x, y, z'
loop_
 _atom_site_type_symbol
 _atom_site_label
 _atom_site_symmetry_multiplicity
 _atom_site_fract_x
 _atom_site_fract_y
 _atom_site_fract_z
 _atom_site_occupancy
  Na  Na0  1  -0.00116682  -0.00066326  0.00009994  1
  Na  Na1  1  0.00098950  0.00046698  0.24902380  1
  Na  Na2  1  -0.00114616  -0.00061216  0.49950674  1
  Na  Na3  1  -0.00161490  -0.00029712  0.75024958  1
  Na  Na4  1  -0.00148319  0.33372555  0.00037418  1
  Na  Na5  1  -0.00280647  0.33371986  0.25079957  1
  Na  Na6  1  -0.00243027  0.33360217  0.49971938  1
  Na  Na7  1  -0.00086225  0.33398957  0.74920786  1
  Na  Na8  1  0.00017329  0.66568357  -0.00050912  1
  Na  Na9  1  0.00120818  0.66650546  0.25055770  1
  Na  Na10  1  0.00204196  0.66684294  0.50042609  1
  Na  Na11  1  0.00131907  0.66649678  0.74984477  1
  Na  Na12  1  0.50058816  -0.00010934  0.00104526  1
  Na  Na13  1  0.50009752  -0.00048616  0.25064507  1
  Na  Na14  1  0.50018241  -0.00092131  0.49947181  1
  Na  Na15  1  0.50047180  -0.00051328  0.74992542  1
  Na  Na16  1  0.49755835  0.33268822  0.00010410  1
  Na  Na17  1  0.50158605  0.33430004  0.25012801  1
  Na  Na18  1  0.50165888  0.33450084  0.49909812  1
  Na  Na19  1  0.50012882  0.33426983  0.74979204  1
  Na  Na20  1  0.50020567  0.66677762  0.00049948  1
  Na  Na21  1  0.50157831  0.66683225  0.24963630  1
  Na  Na22  1  0.50058738  0.66659559  0.49987748  1
  Na  Na23  1  0.49792796  0.66594214  0.75048150  1
  Na  Na24  1  0.24863716  0.00006465  0.12432929  1
  Na  Na25  1  0.24936698  -0.00000710  0.37624919  1
  Na  Na26  1  0.25014145  -0.00021527  0.62506637  1
  Na  Na27  1  0.24995778  0.00013855  0.87474873  1
  Na  Na28  1  0.25121078  0.33425620  0.12535330  1
  Na  Na29  1  0.25190318  0.33448784  0.37485170  1
  Na  Na30  1  0.25095476  0.33425497  0.62481158  1
  Na  Na31  1  0.25193045  0.33479146  0.87613602  1
  Na  Na32  1  0.24935419  0.66613862  0.12498614  1
  Na  Na33  1  0.25232921  0.66688754  0.37480915  1
  Na  Na34  1  0.25179006  0.66587075  0.62463980  1
  Na  Na35  1  0.25056626  0.66626172  0.87470099  1
  Na  Na36  1  0.75046288  -0.00064064  0.12439469  1
  Na  Na37  1  0.74941699  -0.00090646  0.37524743  1
  Na  Na38  1  0.75055093  -0.00086478  0.62430212  1
  Na  Na39  1  0.75256490  -0.00003091  0.87488019  1
  Na  Na40  1  0.75084052  0.33384409  0.12489784  1
  Na  Na41  1  0.74885683  0.33380388  0.37447555  1
  Na  Na42  1  0.74765370  0.33340774  0.62406277  1
  Na  Na43  1  0.75071305  0.33410690  0.87594720  1
  Na  Na44  1  0.74880005  0.66618508  0.12635371  1
  Na  Na45  1  0.74627456  0.66552886  0.37467974  1
  Na  Na46  1  0.74711150  0.66581530  0.62485295  1
  Na  Na47  1  0.75085445  0.66692078  0.87547375  1
  Na  Na48  1  -0.00218243  0.16747766  -0.00054497  1
  Na  Na49  1  -0.00081671  0.16723207  0.24932712  1
  Na  Na50  1  0.00020575  0.16613488  0.50016358  1
  Na  Na51  1  -0.00177630  0.16688219  0.75009405  1
  Na  Na52  1  0.00157389  0.50002463  -0.00058080  1
  Na  Na53  1  -0.00095912  0.50074358  0.25168832  1
  Na  Na54  1  0.00086571  0.49991850  0.49980318  1
  Na  Na55  1  0.00257464  0.49999747  0.74899095  1
  Na  Na56  1  -0.00126559  0.83298826  0.00137291  1
  Na  Na57  1  0.00100062  0.83233133  0.24904970  1
  Na  Na58  1  -0.00223437  0.83430458  0.50003990  1
  Na  Na59  1  -0.00305665  0.83397772  0.74999773  1
  Na  Na60  1  0.49895216  0.16723084  0.00128804  1
  Na  Na61  1  0.49932746  0.16774540  0.25093234  1
  Na  Na62  1  0.50193036  0.16617760  0.49868541  1
  Na  Na63  1  0.49993250  0.16684262  0.74988365  1
  Na  Na64  1  0.50050756  0.49935496  0.00043360  1
  Na  Na65  1  0.49985829  0.50001450  0.24969228  1
  Na  Na66  1  0.49943872  0.49985946  0.49948817  1
  Na  Na67  1  0.49785833  0.50030628  0.75078587  1
  Na  Na68  1  0.49902258  0.83394265  -0.00015571  1
  Na  Na69  1  0.50346501  0.83194783  0.24966202  1
  Na  Na70  1  0.50162517  0.83282738  0.50023652  1
  Na  Na71  1  0.50103981  0.83260307  0.74959544  1
  Na  Na72  1  0.25058109  0.16645654  0.12517745  1
  Na  Na73  1  0.25113199  0.16596573  0.37534584  1
  Na  Na74  1  0.24832674  0.16704266  0.62455643  1
  Na  Na75  1  0.24923938  0.16676923  0.87530697  1
  Na  Na76  1  0.25051024  0.49994570  0.12479012  1
  Na  Na77  1  0.25195362  0.49980619  0.37558826  1
  Na  Na78  1  0.25094078  0.50055007  0.62410158  1
  Na  Na79  1  0.25103363  0.49976304  0.87493143  1
  Na  Na80  1  0.24777789  0.83390589  0.12491581  1
  Na  Na81  1  0.25027617  0.83338436  0.37515232  1
  Na  Na82  1  0.25385836  0.83189095  0.62561213  1
  Na  Na83  1  0.25250182  0.83205531  0.87519024  1
  Na  Na84  1  0.75180843  0.16715009  0.12469427  1
  Na  Na85  1  0.74924225  0.16796729  0.37397498  1
  Na  Na86  1  0.75012787  0.16753391  0.62429535  1
  Na  Na87  1  0.75405839  0.16571887  0.87543334  1
  Na  Na88  1  0.74879001  0.50034151  0.12563028  1
  Na  Na89  1  0.74822723  0.49988064  0.37438224  1
  Na  Na90  1  0.74775831  0.50007919  0.62497226  1
  Na  Na91  1  0.74942348  0.50017133  0.87577977  1
  Na  Na92  1  0.74930354  0.83291922  0.12522988  1
  Na  Na93  1  0.74762467  0.83333522  0.37589560  1
  Na  Na94  1  0.74784287  0.83390086  0.62411511  1
  Na  Na95  1  0.75046837  0.83266868  0.87485183  1
  Mn  Mn96  1  0.39271765  0.24968396  0.62714290  1
  Mn  Mn97  1  0.60676196  0.41648794  0.87327261  1
  Mn  Mn98  1  0.14156001  0.25068693  0.74765551  1
  Mn  Mn99  1  0.39252081  0.91575896  0.37682037  1
  Mn  Mn100  1  0.10875496  0.75072122  0.62266690  1
  Mn  Mn101  1  0.14196673  0.91577951  0.74760135  1
  Mn  Mn102  1  0.85791143  0.08325263  0.25225402  1
  Mn  Mn103  1  0.60819877  0.08328315  0.37177881  1
  Mn  Mn104  1  0.35787672  0.08329636  0.00276335  1
  Mn  Mn105  1  0.64076497  0.58359415  0.74805699  1
  Mn  Mn106  1  0.14280397  0.58332458  0.24805084  1
  Mn  Mn107  1  0.35800290  0.75057573  0.25196881  1
  Mn  Mn108  1  0.89262207  0.58336701  0.87704478  1
  Mn  Mn109  1  0.89285792  0.91598697  0.12813590  1
  Mn  Mn110  1  0.39269411  0.91685051  0.87713506  1
  Mn  Mn111  1  0.89114801  0.58386599  0.37798854  1
  Mn  Mn112  1  0.60749002  0.74984476  0.87317303  1
  Mn  Mn113  1  0.10732335  0.08359711  0.37260563  1
  Mn  Mn114  1  0.64246300  0.24929329  0.74814646  1
  Mn  Mn115  1  0.35800943  0.08322921  0.50291633  1
  Mn  Mn116  1  0.14193041  0.25092915  0.49736091  1
  Mn  Mn117  1  0.85806066  0.41772961  0.00302513  1
  Mn  Mn118  1  0.10842370  0.41621995  0.87261796  1
  Mn  Mn119  1  0.89168148  0.25010257  0.62699069  1
  Mn  Mn120  1  0.10773754  0.75050595  0.87276880  1
  Mn  Mn121  1  0.14196075  0.25076036  0.99845262  1
  Mn  Mn122  1  0.60870077  0.08350930  0.62266770  1
  Mn  Mn123  1  0.85714941  0.74950706  0.75156459  1
  Mn  Mn124  1  0.39148231  0.24955711  0.87731088  1
  Mn  Mn125  1  0.10627733  0.08322948  0.87271126  1
  Mn  Mn126  1  0.39313048  0.25041435  0.37714713  1
  Mn  Mn127  1  0.85732641  0.08378090  0.50198542  1
  Mn  Mn128  1  0.89235885  0.58373791  0.62647905  1
  Mn  Mn129  1  0.60778841  0.08374480  0.12277523  1
  Mn  Mn130  1  0.85702738  0.74955352  0.25243425  1
  Mn  Mn131  1  0.10847293  0.75057394  0.37359097  1
  Mn  Mn132  1  0.39224959  0.91708524  0.12799248  1
  Mn  Mn133  1  0.64278720  0.24992578  0.99797511  1
  Mn  Mn134  1  0.35782827  0.08369600  0.75216433  1
  Mn  Mn135  1  0.10730758  0.41643141  0.37309605  1
  Mn  Mn136  1  0.14225565  0.91555414  0.49863516  1
  Mn  Mn137  1  0.60918516  0.08346995  0.87288857  1
  Mn  Mn138  1  0.85630274  0.74872304  0.50199126  1
  Mn  Mn139  1  0.85760835  0.41686964  0.75131776  1
  Mn  Mn140  1  0.39296026  0.58315388  0.12713465  1
  Mn  Mn141  1  0.14212575  0.25015324  0.24783090  1
  Mn  Mn142  1  0.64329211  0.91659260  0.99742847  1
  Mn  Mn143  1  0.14191947  0.91600563  0.99717840  1
  Fe  Fe144  1  0.14472594  0.58354599  0.49870002  1
  Fe  Fe145  1  0.60699468  0.41661165  0.12314061  1
  Fe  Fe146  1  0.64257637  0.25037989  0.49787744  1
  Fe  Fe147  1  0.10647665  0.08328173  0.62416223  1
  Fe  Fe148  1  0.39258798  0.24988013  0.12754784  1
  Fe  Fe149  1  0.89156054  0.91629911  0.62636356  1
  Fe  Fe150  1  0.35700129  0.74985021  0.00245453  1
  Fe  Fe151  1  0.85818259  0.08282975  0.00235753  1
  Fe  Fe152  1  0.10734052  0.74891051  0.12284369  1
  Fe  Fe153  1  0.60699137  0.74942035  0.37336248  1
  Fe  Fe154  1  0.14299291  0.58326630  0.99874069  1
  Fe  Fe155  1  0.64207243  0.58289195  0.24756678  1
  Fe  Fe156  1  0.89175716  0.91612765  0.87687563  1
  Fe  Fe157  1  0.89210880  0.91651121  0.37594700  1
  Fe  Fe158  1  0.10825316  0.41642656  0.62255259  1
  Fe  Fe159  1  0.85744701  0.74914513  0.00228722  1
  Fe  Fe160  1  0.89301206  0.25123294  0.12701098  1
  Fe  Fe161  1  0.10726936  0.08413512  0.12317916  1
  Fe  Fe162  1  0.14204090  0.91688970  0.24895662  1
  Fe  Fe163  1  0.39385458  0.91658123  0.62680170  1
  Fe  Fe164  1  0.85641475  0.41731688  0.25144182  1
  Fe  Fe165  1  0.10716473  0.41697368  0.12442634  1
  Fe  Fe166  1  0.39317882  0.58349605  0.62670690  1
  Fe  Fe167  1  0.60660592  0.41716967  0.62317907  1
  Fe  Fe168  1  0.35731809  0.41671600  0.75112991  1
  Fe  Fe169  1  0.35709914  0.41711248  0.00268743  1
  Fe  Fe170  1  0.85777959  0.08315330  0.75111624  1
  Fe  Fe171  1  0.35825952  0.41682622  0.50200204  1
  Fe  Fe172  1  0.35908913  0.74987718  0.50170093  1
  Fe  Fe173  1  0.64282004  0.91705672  0.24800924  1
  Fe  Fe174  1  0.64340454  0.91710921  0.74822961  1
  Fe  Fe175  1  0.60718297  0.41728654  0.37252796  1
  Fe  Fe176  1  0.35666545  0.08323831  0.25136118  1
  Fe  Fe177  1  0.64242740  0.91688289  0.49811342  1
  Fe  Fe178  1  0.64307322  0.58349467  0.99854767  1
  Fe  Fe179  1  0.60770600  0.74961702  0.12246395  1
  Fe  Fe180  1  0.39382248  0.58347219  0.37633090  1
  Fe  Fe181  1  0.39196656  0.58342967  0.87794653  1
  Fe  Fe182  1  0.89219440  0.25044451  0.87663688  1
  Fe  Fe183  1  0.14436721  0.58342204  0.74803217  1
  Fe  Fe184  1  0.35799736  0.41629138  0.25169898  1
  Fe  Fe185  1  0.64080742  0.58274402  0.49820111  1
  Fe  Fe186  1  0.89145599  0.24986972  0.37680965  1
  Fe  Fe187  1  0.64338694  0.24998267  0.24720830  1
  Fe  Fe188  1  0.60633896  0.74936233  0.62347086  1
  Fe  Fe189  1  0.89290688  0.58285426  0.12663113  1
  Fe  Fe190  1  0.85550911  0.41757563  0.50156597  1
  Fe  Fe191  1  0.35816083  0.74972964  0.75198407  1
  P  P192  1  0.05209243  0.25109246  0.11056918  1
  P  P193  1  0.05120152  0.25047728  0.35989841  1
  P  P194  1  0.05310406  0.25014545  0.60982787  1
  P  P195  1  0.05145875  0.25017451  0.86001819  1
  P  P196  1  0.05323206  0.58267704  0.11007836  1
  P  P197  1  0.05470666  0.58344739  0.36165123  1
  P  P198  1  0.05640821  0.58282780  0.61030064  1
  P  P199  1  0.05588177  0.58343390  0.86001191  1
  P  P200  1  0.05517319  0.91652700  0.11131994  1
  P  P201  1  0.05238014  0.91651180  0.35940500  1
  P  P202  1  0.05154472  0.91726277  0.61017667  1
  P  P203  1  0.05126917  0.91623595  0.85999106  1
  P  P204  1  0.55344434  0.25093362  0.11129322  1
  P  P205  1  0.55602690  0.25124777  0.36014457  1
  P  P206  1  0.55417651  0.25083214  0.60910755  1
  P  P207  1  0.55293042  0.25004042  0.86010956  1
  P  P208  1  0.55565295  0.58289385  0.11057535  1
  P  P209  1  0.55415605  0.58298310  0.36043119  1
  P  P210  1  0.55217828  0.58309211  0.60991343  1
  P  P211  1  0.55238166  0.58332338  0.86166023  1
  P  P212  1  0.55500403  0.91611541  0.11096571  1
  P  P213  1  0.55535540  0.91564354  0.36047008  1
  P  P214  1  0.55457298  0.91599322  0.61084350  1
  P  P215  1  0.55457887  0.91654255  0.85924909  1
  P  P216  1  0.44615087  0.08409014  0.14146484  1
  P  P217  1  0.44556838  0.08302779  0.38874324  1
  P  P218  1  0.44759802  0.08252901  0.63989457  1
  P  P219  1  0.44751060  0.08308230  0.89069431  1
  P  P220  1  0.44606608  0.41610314  0.13956396  1
  P  P221  1  0.44631839  0.41748869  0.38893525  1
  P  P222  1  0.44615354  0.41735703  0.63906025  1
  P  P223  1  0.44385299  0.41744039  0.88981389  1
  P  P224  1  0.44723568  0.74982635  0.13902555  1
  P  P225  1  0.44769863  0.74917694  0.38998592  1
  P  P226  1  0.44620761  0.74982754  0.63906213  1
  P  P227  1  0.44458155  0.74922869  0.88990740  1
  P  P228  1  0.94669371  0.08406166  0.13877037  1
  P  P229  1  0.94594941  0.08311998  0.38948239  1
  P  P230  1  0.94636744  0.08258760  0.64007365  1
  P  P231  1  0.94382078  0.08305978  0.88917868  1
  P  P232  1  0.94706206  0.41794897  0.14128688  1
  P  P233  1  0.94358767  0.41649897  0.38967382  1
  P  P234  1  0.94680214  0.41759809  0.63820295  1
  P  P235  1  0.94671677  0.41678821  0.88959058  1
  P  P236  1  0.94670141  0.74800093  0.13909178  1
  P  P237  1  0.94637927  0.75067596  0.39014952  1
  P  P238  1  0.94663687  0.75000577  0.63965452  1
  P  P239  1  0.94571892  0.75025114  0.89071524  1
  P  P240  1  0.19670833  0.08298020  0.23469257  1
  P  P241  1  0.19501647  0.08302027  0.48640005  1
  P  P242  1  0.19561623  0.08314818  0.73440846  1
  P  P243  1  0.19502391  0.08380750  0.98581768  1
  P  P244  1  0.19768272  0.41684705  0.23488059  1
  P  P245  1  0.19730540  0.41774609  0.48589561  1
  P  P246  1  0.19764996  0.41773721  0.73439554  1
  P  P247  1  0.19641271  0.41758165  0.98681645  1
  P  P248  1  0.19611876  0.75049150  0.23457470  1
  P  P249  1  0.19920972  0.74903833  0.48540589  1
  P  P250  1  0.19870844  0.74908910  0.73511681  1
  P  P251  1  0.19650219  0.74874543  0.98590635  1
  P  P252  1  0.69705631  0.08344792  0.23440672  1
  P  P253  1  0.69645587  0.08352659  0.48475880  1
  P  P254  1  0.69890461  0.08259295  0.73489197  1
  P  P255  1  0.69897777  0.08349640  0.98511540  1
  P  P256  1  0.69530528  0.41650584  0.23543112  1
  P  P257  1  0.69452191  0.41714583  0.48531554  1
  P  P258  1  0.69534375  0.41658211  0.73447727  1
  P  P259  1  0.69519363  0.41751639  0.98679437  1
  P  P260  1  0.69403594  0.74997803  0.23594127  1
  P  P261  1  0.69329266  0.74936177  0.48598609  1
  P  P262  1  0.69534005  0.75072525  0.73439340  1
  P  P263  1  0.69688252  0.74883571  0.98632227  1
  P  P264  1  0.30401383  0.25082894  0.01623171  1
  P  P265  1  0.30467116  0.24994068  0.26401967  1
  P  P266  1  0.30371792  0.25094934  0.51491118  1
  P  P267  1  0.30274413  0.25092192  0.76488948  1
  P  P268  1  0.30369382  0.58354198  0.01414231  1
  P  P269  1  0.30494996  0.58256264  0.26545970  1
  P  P270  1  0.30608126  0.58343307  0.51383719  1
  P  P271  1  0.30525627  0.58302280  0.76398176  1
  P  P272  1  0.30352752  0.91582353  0.01516566  1
  P  P273  1  0.30173713  0.91767554  0.26498247  1
  P  P274  1  0.30472181  0.91553768  0.51576354  1
  P  P275  1  0.30485392  0.91611515  0.76388411  1
  P  P276  1  0.80572123  0.24981826  0.01478242  1
  P  P277  1  0.80424407  0.25139449  0.26385728  1
  P  P278  1  0.80282116  0.25151654  0.51322410  1
  P  P279  1  0.80393035  0.24992439  0.76525571  1
  P  P280  1  0.80296475  0.58413044  0.01616390  1
  P  P281  1  0.80270977  0.58264473  0.26382545  1
  P  P282  1  0.80047654  0.58246856  0.51481391  1
  P  P283  1  0.80250461  0.58309856  0.76496734  1
  P  P284  1  0.80537096  0.91568184  0.01418488  1
  P  P285  1  0.80237764  0.91600703  0.26553840  1
  P  P286  1  0.80338676  0.91606434  0.51386920  1
  P  P287  1  0.80407800  0.91671171  0.76393073  1
  O  O288  1  0.05567643  0.25094945  0.18720544  1
  O  O289  1  0.05555307  0.25080724  0.43657712  1
  O  O290  1  0.05580427  0.25063588  0.68660732  1
  O  O291  1  0.05556182  0.25054331  0.93676243  1
  O  O292  1  0.05663185  0.58299055  0.18670360  1
  O  O293  1  0.06014640  0.58337885  0.43832681  1
  O  O294  1  0.06071232  0.58359421  0.68706929  1
  O  O295  1  0.06010622  0.58328937  0.93683248  1
  O  O296  1  0.05908422  0.91662738  0.18807257  1
  O  O297  1  0.05631979  0.91622079  0.43612311  1
  O  O298  1  0.05553079  0.91620466  0.68683910  1
  O  O299  1  0.05553116  0.91576725  0.93669822  1
  O  O300  1  0.55866428  0.25028157  0.18797155  1
  O  O301  1  0.56001384  0.25032083  0.43690326  1
  O  O302  1  0.55671299  0.24998530  0.68593175  1
  O  O303  1  0.55642242  0.24995882  0.93687352  1
  O  O304  1  0.55909160  0.58286798  0.18748283  1
  O  O305  1  0.55779454  0.58255671  0.43718122  1
  O  O306  1  0.55505576  0.58296621  0.68664991  1
  O  O307  1  0.55789813  0.58353146  0.93818825  1
  O  O308  1  0.55920944  0.91687751  0.18773357  1
  O  O309  1  0.55916562  0.91689908  0.43725990  1
  O  O310  1  0.55926544  0.91706693  0.68751912  1
  O  O311  1  0.55779381  0.91661405  0.93609478  1
  O  O312  1  0.44323322  0.08319071  0.06465470  1
  O  O313  1  0.44075624  0.08303392  0.31215418  1
  O  O314  1  0.44458690  0.08302581  0.56304460  1
  O  O315  1  0.44401826  0.08310990  0.81393701  1
  O  O316  1  0.44123518  0.41685885  0.06287634  1
  O  O317  1  0.44175906  0.41655878  0.31224459  1
  O  O318  1  0.44195987  0.41660770  0.56230258  1
  O  O319  1  0.44014716  0.41684820  0.81298862  1
  O  O320  1  0.44174377  0.75003450  0.06241738  1
  O  O321  1  0.44408837  0.75011855  0.31326836  1
  O  O322  1  0.44252334  0.74988784  0.56231000  1
  O  O323  1  0.44092834  0.74967909  0.81303605  1
  O  O324  1  0.94209928  0.08311773  0.06205510  1
  O  O325  1  0.94360052  0.08339357  0.31270392  1
  O  O326  1  0.94276843  0.08312189  0.56330368  1
  O  O327  1  0.94046686  0.08300328  0.81234631  1
  O  O328  1  0.94386207  0.41820370  0.06380799  1
  O  O329  1  0.93933348  0.41771092  0.31298456  1
  O  O330  1  0.94072740  0.41799465  0.56163604  1
  O  O331  1  0.94359983  0.41774997  0.81305706  1
  O  O332  1  0.94168535  0.74847519  0.06246313  1
  O  O333  1  0.94324574  0.74945021  0.31337962  1
  O  O334  1  0.94287607  0.74902224  0.56292413  1
  O  O335  1  0.94256687  0.74936376  0.81394588  1
  O  O336  1  0.19022953  0.08416121  0.06259754  1
  O  O337  1  0.19327486  0.08381737  0.31149822  1
  O  O338  1  0.18996716  0.08303104  0.56308662  1
  O  O339  1  0.19224442  0.08304221  0.81124987  1
  O  O340  1  0.19116073  0.41685832  0.06341293  1
  O  O341  1  0.19348400  0.41672796  0.31157516  1
  O  O342  1  0.19230084  0.41669612  0.56252479  1
  O  O343  1  0.19425680  0.41673001  0.81117897  1
  O  O344  1  0.19125630  0.74929163  0.06256440  1
  O  O345  1  0.19361205  0.74973036  0.31139525  1
  O  O346  1  0.19529638  0.74978309  0.56206657  1
  O  O347  1  0.19455496  0.75015842  0.81176651  1
  O  O348  1  0.69438980  0.08370078  0.06174562  1
  O  O349  1  0.69421985  0.08352103  0.31138581  1
  O  O350  1  0.69415425  0.08342668  0.56136823  1
  O  O351  1  0.69576839  0.08306899  0.81165036  1
  O  O352  1  0.69122957  0.41642495  0.06327962  1
  O  O353  1  0.69109648  0.41683107  0.31217656  1
  O  O354  1  0.69011524  0.41740500  0.56201776  1
  O  O355  1  0.69238325  0.41685036  0.81131703  1
  O  O356  1  0.69215430  0.74950585  0.06299583  1
  O  O357  1  0.69026067  0.74958121  0.31277090  1
  O  O358  1  0.68950304  0.74924946  0.56276027  1
  O  O359  1  0.69297057  0.74963663  0.81122757  1
  O  O360  1  0.30844775  0.25022462  0.18727428  1
  O  O361  1  0.30719333  0.25033695  0.43815737  1
  O  O362  1  0.30603991  0.25004814  0.68815012  1
  O  O363  1  0.30649065  0.24984895  0.93940503  1
  O  O364  1  0.30766593  0.58328105  0.18864538  1
  O  O365  1  0.31036288  0.58348549  0.43714665  1
  O  O366  1  0.30968293  0.58316969  0.68721211  1
  O  O367  1  0.30753801  0.58348015  0.93742644  1
  O  O368  1  0.30557245  0.91690426  0.18829339  1
  O  O369  1  0.30735447  0.91635625  0.43897338  1
  O  O370  1  0.30952623  0.91674892  0.68717311  1
  O  O371  1  0.30683592  0.91664992  0.93841260  1
  O  O372  1  0.80948038  0.25082344  0.18712558  1
  O  O373  1  0.80727039  0.25059206  0.43653599  1
  O  O374  1  0.80625376  0.25103526  0.68837937  1
  O  O375  1  0.80961563  0.25099716  0.93806011  1
  O  O376  1  0.80821266  0.58318779  0.18725361  1
  O  O377  1  0.80442232  0.58329263  0.43813534  1
  O  O378  1  0.80600102  0.58305406  0.68824584  1
  O  O379  1  0.80693102  0.58327315  0.93954664  1
  O  O380  1  0.80681467  0.91573992  0.18882195  1
  O  O381  1  0.80827357  0.91601409  0.43722401  1
  O  O382  1  0.80830141  0.91597305  0.68714515  1
  O  O383  1  0.80856934  0.91551959  0.93734425  1
  O  O384  1  0.23431554  0.25053696  0.04146845  1
  O  O385  1  0.23479665  0.25018416  0.28892509  1
  O  O386  1  0.23397274  0.25102542  0.53974504  1
  O  O387  1  0.23317808  0.25093032  0.79045600  1
  O  O388  1  0.23364411  0.58328172  0.03878833  1
  O  O389  1  0.23527453  0.58316429  0.29060078  1
  O  O390  1  0.23580817  0.58317752  0.53794678  1
  O  O391  1  0.23490510  0.58309023  0.78789153  1
  O  O392  1  0.23371434  0.91630272  0.03980197  1
  O  O393  1  0.23175958  0.91690561  0.28981181  1
  O  O394  1  0.23501448  0.91561857  0.54107632  1
  O  O395  1  0.23484757  0.91630344  0.78822886  1
  O  O396  1  0.73576037  0.25066327  0.03903214  1
  O  O397  1  0.73366629  0.25084674  0.28685050  1
  O  O398  1  0.73256667  0.25101645  0.53718867  1
  O  O399  1  0.73449292  0.25017434  0.79120171  1
  O  O400  1  0.73294754  0.58343162  0.04049858  1
  O  O401  1  0.73206554  0.58285260  0.28679487  1
  O  O402  1  0.73032970  0.58275119  0.53901534  1
  O  O403  1  0.73279141  0.58348878  0.79000241  1
  O  O404  1  0.73554306  0.91590655  0.03903150  1
  O  O405  1  0.73212681  0.91619175  0.28926285  1
  O  O406  1  0.73282916  0.91629987  0.53706880  1
  O  O407  1  0.73386798  0.91611813  0.78815452  1
  O  O408  1  0.26674685  0.08340048  0.21004866  1
  O  O409  1  0.26521507  0.08293638  0.46284773  1
  O  O410  1  0.26543813  0.08336453  0.70968336  1
  O  O411  1  0.26516143  0.08358483  0.96216918  1
  O  O412  1  0.26796862  0.41700672  0.21099756  1
  O  O413  1  0.26775259  0.41758744  0.46248407  1
  O  O414  1  0.26776188  0.41760820  0.70987696  1
  O  O415  1  0.26679545  0.41735489  0.96331567  1
  O  O416  1  0.26587100  0.74989293  0.20934186  1
  O  O417  1  0.26922603  0.74965722  0.46079045  1
  O  O418  1  0.26889031  0.74881214  0.71092455  1
  O  O419  1  0.26682133  0.74909818  0.96233326  1
  O  O420  1  0.76663321  0.08335588  0.20919209  1
  O  O421  1  0.76593142  0.08353752  0.45878448  1
  O  O422  1  0.76869856  0.08314980  0.70947169  1
  O  O423  1  0.76915267  0.08302000  0.96127642  1
  O  O424  1  0.76570301  0.41672291  0.21160048  1
  O  O425  1  0.76477744  0.41721043  0.46118969  1
  O  O426  1  0.76502848  0.41661346  0.70929201  1
  O  O427  1  0.76551106  0.41748053  0.96248403  1
  O  O428  1  0.76414049  0.74983475  0.21175808  1
  O  O429  1  0.76325312  0.74917602  0.46137647  1
  O  O430  1  0.76486488  0.74990822  0.70873933  1
  O  O431  1  0.76709417  0.74925405  0.96239104  1
  O  O432  1  0.01699562  0.08397311  0.16263809  1
  O  O433  1  0.01539189  0.08314053  0.41536733  1
  O  O434  1  0.01634048  0.08325900  0.66484515  1
  O  O435  1  0.01371297  0.08302008  0.91403987  1
  O  O436  1  0.01694673  0.41759896  0.16584789  1
  O  O437  1  0.01383227  0.41691960  0.41345787  1
  O  O438  1  0.01734360  0.41710850  0.66118095  1
  O  O439  1  0.01635079  0.41677044  0.91490530  1
  O  O440  1  0.01714586  0.74870534  0.16251395  1
  O  O441  1  0.01600556  0.75046327  0.41550064  1
  O  O442  1  0.01639090  0.75030745  0.66461423  1
  O  O443  1  0.01549867  0.74969018  0.91568574  1
  O  O444  1  0.51590427  0.08377197  0.16645336  1
  O  O445  1  0.51591176  0.08296560  0.41230572  1
  O  O446  1  0.51720757  0.08310342  0.66508089  1
  O  O447  1  0.51711710  0.08323389  0.91601975  1
  O  O448  1  0.51648641  0.41709914  0.16300328  1
  O  O449  1  0.51680446  0.41715035  0.41225178  1
  O  O450  1  0.51641154  0.41723650  0.66310853  1
  O  O451  1  0.51381635  0.41644295  0.91418232  1
  O  O452  1  0.51765799  0.74916454  0.16218993  1
  O  O453  1  0.51780501  0.74944846  0.41436055  1
  O  O454  1  0.51649227  0.74942338  0.66339021  1
  O  O455  1  0.51459750  0.75017690  0.91417505  1
  O  O456  1  0.48301522  0.25029225  0.08794467  1
  O  O457  1  0.48590714  0.25095449  0.33641634  1
  O  O458  1  0.48463359  0.25009690  0.58339409  1
  O  O459  1  0.48326674  0.25039310  0.83506143  1
  O  O460  1  0.48560847  0.58294986  0.08629633  1
  O  O461  1  0.48396015  0.58321667  0.33601182  1
  O  O462  1  0.48219890  0.58339011  0.58494201  1
  O  O463  1  0.48203748  0.58327099  0.83811898  1
  O  O464  1  0.48497385  0.91673459  0.08685832  1
  O  O465  1  0.48539083  0.91582259  0.33608695  1
  O  O466  1  0.48419927  0.91601392  0.58702632  1
  O  O467  1  0.48483267  0.91606281  0.83452370  1
  O  O468  1  0.98197536  0.25116872  0.08588043  1
  O  O469  1  0.98107208  0.25026810  0.33581702  1
  O  O470  1  0.98341613  0.25015264  0.58443388  1
  O  O471  1  0.98141742  0.25032031  0.83561069  1
  O  O472  1  0.98316668  0.58260906  0.08518490  1
  O  O473  1  0.98441916  0.58350500  0.33841443  1
  O  O474  1  0.98624526  0.58337985  0.58624335  1
  O  O475  1  0.98574156  0.58345643  0.83615772  1
  O  O476  1  0.98509232  0.91619086  0.08713934  1
  O  O477  1  0.98237248  0.91650164  0.33467618  1
  O  O478  1  0.98141663  0.91683058  0.58572496  1
  O  O479  1  0.98111604  0.91658408  0.83602579  1
  O  O480  1  0.08566592  0.31646718  0.07805040  1
  O  O481  1  0.08486421  0.31548011  0.32694996  1
  O  O482  1  0.08731361  0.31516711  0.57721910  1
  O  O483  1  0.08541930  0.31505914  0.82712871  1
  O  O484  1  0.08736882  0.64753206  0.07697163  1
  O  O485  1  0.08800282  0.64847160  0.32833162  1
  O  O486  1  0.09043160  0.64766793  0.57700966  1
  O  O487  1  0.08954436  0.64845154  0.82697052  1
  O  O488  1  0.08827093  0.98181769  0.07828225  1
  O  O489  1  0.08641437  0.98156352  0.32676901  1
  O  O490  1  0.08505040  0.98248570  0.57771073  1
  O  O491  1  0.08512741  0.98118271  0.82738731  1
  O  O492  1  0.58625749  0.31619033  0.07799751  1
  O  O493  1  0.58936097  0.31646848  0.32733040  1
  O  O494  1  0.58797603  0.31636465  0.57720410  1
  O  O495  1  0.58701928  0.31502299  0.82766348  1
  O  O496  1  0.58938641  0.64793945  0.07764795  1
  O  O497  1  0.58790348  0.64804161  0.32767270  1
  O  O498  1  0.58639069  0.64799685  0.57739701  1
  O  O499  1  0.58544910  0.64834555  0.82796630  1
  O  O500  1  0.58882159  0.98101697  0.07776619  1
  O  O501  1  0.58931454  0.98041822  0.32690237  1
  O  O502  1  0.58809535  0.98071822  0.57695939  1
  O  O503  1  0.58870562  0.98156673  0.82668137  1
  O  O504  1  0.41173619  0.01922418  0.17416426  1
  O  O505  1  0.41239788  0.01795674  0.42201424  1
  O  O506  1  0.41369745  0.01732685  0.67209403  1
  O  O507  1  0.41350256  0.01794698  0.92315784  1
  O  O508  1  0.41313451  0.35094184  0.17299544  1
  O  O509  1  0.41284946  0.35281854  0.42286427  1
  O  O510  1  0.41257193  0.35253822  0.67261476  1
  O  O511  1  0.40951890  0.35286832  0.92297158  1
  O  O512  1  0.41388572  0.68484376  0.17234699  1
  O  O513  1  0.41409197  0.68393625  0.42246880  1
  O  O514  1  0.41254620  0.68473673  0.67201568  1
  O  O515  1  0.41123726  0.68394422  0.92280865  1
  O  O516  1  0.91337585  0.01911525  0.17238077  1
  O  O517  1  0.91173763  0.01774562  0.42120957  1
  O  O518  1  0.91245986  0.01748393  0.67250822  1
  O  O519  1  0.91006885  0.01791599  0.92201546  1
  O  O520  1  0.91253264  0.35303500  0.17305456  1
  O  O521  1  0.91024510  0.35105732  0.42221365  1
  O  O522  1  0.91344922  0.35251905  0.67145030  1
  O  O523  1  0.91240342  0.35176493  0.92190483  1
  O  O524  1  0.91374647  0.68281328  0.17248553  1
  O  O525  1  0.91202924  0.68586696  0.42306026  1
  O  O526  1  0.91296309  0.68492322  0.67265303  1
  O  O527  1  0.91134476  0.68537179  0.92353731  1
  O  O528  1  0.16275535  0.01785264  0.20246411  1
  O  O529  1  0.16178067  0.01779480  0.45326631  1
  O  O530  1  0.16147881  0.01812478  0.70182723  1
  O  O531  1  0.16156964  0.01870108  0.95272916  1
  O  O532  1  0.16387008  0.35195424  0.20181025  1
  O  O533  1  0.16392640  0.35294413  0.45198736  1
  O  O534  1  0.16343326  0.35297908  0.70138424  1
  O  O535  1  0.16335948  0.35253281  0.95295718  1
  O  O536  1  0.16166859  0.68555288  0.20198759  1
  O  O537  1  0.16566281  0.68384040  0.45278237  1
  O  O538  1  0.16506524  0.68400971  0.70256329  1
  O  O539  1  0.16343801  0.68353375  0.95283694  1
  O  O540  1  0.66296363  0.01824816  0.20248137  1
  O  O541  1  0.66213950  0.01833487  0.45264313  1
  O  O542  1  0.66503815  0.01743999  0.70252623  1
  O  O543  1  0.66533349  0.01847472  0.95219696  1
  O  O544  1  0.66203797  0.35137837  0.20212938  1
  O  O545  1  0.66120781  0.35206242  0.45202508  1
  O  O546  1  0.66113584  0.35161833  0.70207874  1
  O  O547  1  0.66187247  0.35264469  0.95318982  1
  O  O548  1  0.66031325  0.68496233  0.20285554  1
  O  O549  1  0.65941626  0.68436069  0.45299542  1
  O  O550  1  0.66019470  0.68610672  0.70200281  1
  O  O551  1  0.66354707  0.68360438  0.95329571  1
  O  O552  1  0.33820422  0.31612043  0.04813411  1
  O  O553  1  0.33859321  0.31510451  0.29671304  1
  O  O554  1  0.33792250  0.31609232  0.54699715  1
  O  O555  1  0.33686210  0.31626523  0.79663904  1
  O  O556  1  0.33731204  0.64855736  0.04725039  1
  O  O557  1  0.33964906  0.64739986  0.29787605  1
  O  O558  1  0.33934657  0.64855736  0.54717847  1
  O  O559  1  0.33876235  0.64798285  0.79734078  1
  O  O560  1  0.33765112  0.98069560  0.04798239  1
  O  O561  1  0.33533995  0.98280813  0.29753726  1
  O  O562  1  0.33915292  0.98035365  0.54851933  1
  O  O563  1  0.33836870  0.98108224  0.79728350  1
  O  O564  1  0.83984308  0.31474104  0.04825404  1
  O  O565  1  0.83702208  0.31656474  0.29717603  1
  O  O566  1  0.83587283  0.31676504  0.54632589  1
  O  O567  1  0.83855651  0.31473702  0.79783037  1
  O  O568  1  0.83671885  0.64911408  0.04904591  1
  O  O569  1  0.83554346  0.64764014  0.29783426  1
  O  O570  1  0.83435640  0.64736760  0.54784626  1
  O  O571  1  0.83676849  0.64807214  0.79736785  1
  O  O572  1  0.83920313  0.98085775  0.04679258  1
  O  O573  1  0.83622877  0.98108576  0.29814226  1
  O  O574  1  0.83680058  0.98103106  0.54727856  1
  O  O575  1  0.83742825  0.98197677  0.79663588  1
  O  O576  1  0.41202911  0.14931633  0.17345100  1
  O  O577  1  0.41257708  0.14820453  0.42214552  1
  O  O578  1  0.41323721  0.14751888  0.67227093  1
  O  O579  1  0.41311960  0.14805637  0.92299939  1
  O  O580  1  0.41234744  0.48089872  0.17306230  1
  O  O581  1  0.41321519  0.48271927  0.42199824  1
  O  O582  1  0.41267973  0.48256120  0.67185927  1
  O  O583  1  0.41070701  0.48286108  0.92279530  1
  O  O584  1  0.41446040  0.81487546  0.17294465  1
  O  O585  1  0.41370670  0.81388322  0.42324083  1
  O  O586  1  0.41293730  0.81489489  0.67233297  1
  O  O587  1  0.41040906  0.81395433  0.92294637  1
  O  O588  1  0.91327948  0.14920889  0.17152737  1
  O  O589  1  0.91157586  0.14821514  0.42170304  1
  O  O590  1  0.91201515  0.14747012  0.67265889  1
  O  O591  1  0.91011184  0.14825730  0.92182355  1
  O  O592  1  0.91296165  0.48293480  0.17351792  1
  O  O593  1  0.90976506  0.48116371  0.42349293  1
  O  O594  1  0.91407923  0.48257920  0.67225102  1
  O  O595  1  0.91275990  0.48181258  0.92275995  1
  O  O596  1  0.91320353  0.81290770  0.17263489  1
  O  O597  1  0.91222766  0.81605645  0.42172537  1
  O  O598  1  0.91222587  0.81508520  0.67156251  1
  O  O599  1  0.91179128  0.81545696  0.92295001  1
  O  O600  1  0.08579084  0.18610248  0.07762627  1
  O  O601  1  0.08505666  0.18544855  0.32722421  1
  O  O602  1  0.08697979  0.18471911  0.57796276  1
  O  O603  1  0.08496308  0.18503235  0.82739487  1
  O  O604  1  0.08727368  0.51751039  0.07756064  1
  O  O605  1  0.08776699  0.51838908  0.32804096  1
  O  O606  1  0.08988845  0.51763287  0.57736950  1
  O  O607  1  0.08965393  0.51853095  0.82690580  1
  O  O608  1  0.08856803  0.85119094  0.07841928  1
  O  O609  1  0.08665204  0.85165026  0.32674904  1
  O  O610  1  0.08557457  0.85235240  0.57702075  1
  O  O611  1  0.08480077  0.85121040  0.82681789  1
  O  O612  1  0.58692096  0.18604759  0.07767027  1
  O  O613  1  0.58981162  0.18637853  0.32662687  1
  O  O614  1  0.58917815  0.18623646  0.57665494  1
  O  O615  1  0.58695798  0.18492284  0.82761535  1
  O  O616  1  0.58922564  0.51780498  0.07780972  1
  O  O617  1  0.58768397  0.51803231  0.32700171  1
  O  O618  1  0.58604781  0.51810532  0.57701268  1
  O  O619  1  0.58547496  0.51831317  0.82808580  1
  O  O620  1  0.58819159  0.85072995  0.07810236  1
  O  O621  1  0.58889310  0.85032878  0.32817007  1
  O  O622  1  0.58775690  0.85067348  0.57798398  1
  O  O623  1  0.58885842  0.85159420  0.82691218  1
  O  O624  1  0.33864700  0.18609921  0.04882278  1
  O  O625  1  0.33822038  0.18470078  0.29670940  1
  O  O626  1  0.33754142  0.18589546  0.54774381  1
  O  O627  1  0.33684979  0.18589748  0.79758263  1
  O  O628  1  0.33750165  0.51858953  0.04718121  1
  O  O629  1  0.33899950  0.51734342  0.29752465  1
  O  O630  1  0.33960080  0.51843734  0.54717207  1
  O  O631  1  0.33839919  0.51780341  0.79714668  1
  O  O632  1  0.33719060  0.85047576  0.04757637  1
  O  O633  1  0.33605127  0.85265745  0.29757331  1
  O  O634  1  0.33919864  0.85032969  0.54749755  1
  O  O635  1  0.33832013  0.85072761  0.79643505  1
  O  O636  1  0.83908372  0.18452022  0.04739110  1
  O  O637  1  0.83754804  0.18643333  0.29751128  1
  O  O638  1  0.83639248  0.18662987  0.54661641  1
  O  O639  1  0.83832914  0.18457333  0.79657950  1
  O  O640  1  0.83719082  0.51919146  0.04942940  1
  O  O641  1  0.83556366  0.51756506  0.29725725  1
  O  O642  1  0.83427472  0.51739919  0.54740265  1
  O  O643  1  0.83635587  0.51800564  0.79761128  1
  O  O644  1  0.83887899  0.85049597  0.04711779  1
  O  O645  1  0.83593580  0.85110824  0.29875760  1
  O  O646  1  0.83635408  0.85106823  0.54760563  1
  O  O647  1  0.83783579  0.85190679  0.79741177  1
  O  O648  1  0.16255442  0.14790457  0.20173400  1
  O  O649  1  0.16188668  0.14814046  0.45285912  1
  O  O650  1  0.16128675  0.14816532  0.70208573  1
  O  O651  1  0.16170007  0.14899448  0.95276349  1
  O  O652  1  0.16389747  0.48180506  0.20195636  1
  O  O653  1  0.16426261  0.48303233  0.45287144  1
  O  O654  1  0.16397433  0.48291959  0.70198537  1
  O  O655  1  0.16343272  0.48272421  0.95345204  1
  O  O656  1  0.16197355  0.81562175  0.20262913  1
  O  O657  1  0.16490160  0.81393953  0.45272195  1
  O  O658  1  0.16515643  0.81410227  0.70180540  1
  O  O659  1  0.16329943  0.81373795  0.95211434  1
  O  O660  1  0.66310039  0.14869910  0.20222163  1
  O  O661  1  0.66217902  0.14860664  0.45251556  1
  O  O662  1  0.66459927  0.14751447  0.70246432  1
  O  O663  1  0.66574733  0.14867488  0.95202288  1
  O  O664  1  0.66159218  0.48139785  0.20226663  1
  O  O665  1  0.66090962  0.48211839  0.45193033  1
  O  O666  1  0.66087982  0.48150688  0.70200242  1
  O  O667  1  0.66186317  0.48285815  0.95404969  1
  O  O668  1  0.66064474  0.81519312  0.20300629  1
  O  O669  1  0.65975404  0.81458051  0.45316134  1
  O  O670  1  0.66144498  0.81610003  0.70252856  1
  O  O671  1  0.66334240  0.81367244  0.95282512  1
