# generated using pymatgen
data_Na2MnFe(PO4)2
_symmetry_space_group_name_H-M   'P 1'
_cell_length_a   21.08826142
_cell_length_b   18.94120819
_cell_length_c   20.04673058
_cell_angle_alpha   89.99997872
_cell_angle_beta   89.99588858
_cell_angle_gamma   89.99950186
_symmetry_Int_Tables_number   1
_chemical_formula_structural   Na2MnFe(PO4)2
_chemical_formula_sum   'Na96 Mn48 Fe48 P96 O384'
_cell_volume   8007.40890929
_cell_formula_units_Z   48
loop_
 _symmetry_equiv_pos_site_id
 _symmetry_equiv_pos_as_xyz
  1  'x, y, z'
loop_
 _atom_site_type_symbol
 _atom_site_label
 _atom_site_symmetry_multiplicity
 _atom_site_fract_x
 _atom_site_fract_y
 _atom_site_fract_z
 _atom_site_occupancy
  Na  Na0  1  -0.00193889  -0.00005611  -0.00090025  1
  Na  Na1  1  0.00163318  0.00039717  0.24964582  1
  Na  Na2  1  0.00148667  0.00039336  0.50021983  1
  Na  Na3  1  -0.00248006  -0.00043005  0.75035695  1
  Na  Na4  1  0.00043010  0.33351468  -0.00052035  1
  Na  Na5  1  0.00243984  0.33407919  0.24906025  1
  Na  Na6  1  0.00106086  0.33425185  0.49977870  1
  Na  Na7  1  -0.00252028  0.33267100  0.75165921  1
  Na  Na8  1  0.00038321  0.66642557  0.00038368  1
  Na  Na9  1  0.00019679  0.66663542  0.24917161  1
  Na  Na10  1  -0.00077683  0.66566210  0.50001767  1
  Na  Na11  1  -0.00080649  0.66579090  0.75090072  1
  Na  Na12  1  0.49969047  0.00031168  0.00026281  1
  Na  Na13  1  0.50145347  0.00050948  0.24896766  1
  Na  Na14  1  0.49900641  -0.00009536  0.50041114  1
  Na  Na15  1  0.49731758  -0.00074112  0.75007998  1
  Na  Na16  1  0.50157298  0.33396150  -0.00061636  1
  Na  Na17  1  0.50020784  0.33298038  0.25106576  1
  Na  Na18  1  0.50219576  0.33360524  0.50043213  1
  Na  Na19  1  0.50237637  0.33358401  0.74894517  1
  Na  Na20  1  0.50065171  0.66657171  -0.00078942  1
  Na  Na21  1  0.49841569  0.66593915  0.25131795  1
  Na  Na22  1  0.50000173  0.66700976  0.50063970  1
  Na  Na23  1  0.50115274  0.66661101  0.74912596  1
  Na  Na24  1  0.24941145  -0.00011225  0.12471378  1
  Na  Na25  1  0.24897135  -0.00008371  0.37391536  1
  Na  Na26  1  0.24997473  -0.00016826  0.62538724  1
  Na  Na27  1  0.25335713  0.00133375  0.87595038  1
  Na  Na28  1  0.24990492  0.33296403  0.12539323  1
  Na  Na29  1  0.24724332  0.33272300  0.37499086  1
  Na  Na30  1  0.24778792  0.33303800  0.62489845  1
  Na  Na31  1  0.25093026  0.33349241  0.87489317  1
  Na  Na32  1  0.25075057  0.66555953  0.12508213  1
  Na  Na33  1  0.25094865  0.66686104  0.37435230  1
  Na  Na34  1  0.25203321  0.66722661  0.62448849  1
  Na  Na35  1  0.25138795  0.66568610  0.87571248  1
  Na  Na36  1  0.74674785  -0.00155427  0.12431623  1
  Na  Na37  1  0.75030327  -0.00002373  0.37507195  1
  Na  Na38  1  0.75237155  0.00075964  0.62462189  1
  Na  Na39  1  0.75174527  0.00103857  0.87537367  1
  Na  Na40  1  0.74880858  0.33340324  0.12385472  1
  Na  Na41  1  0.74913679  0.33313096  0.37537732  1
  Na  Na42  1  0.74965086  0.33345281  0.62593080  1
  Na  Na43  1  0.74925130  0.33364623  0.87545824  1
  Na  Na44  1  0.74882747  0.66668170  0.12447379  1
  Na  Na45  1  0.75167520  0.66699825  0.37618593  1
  Na  Na46  1  0.74864283  0.66568159  0.62540657  1
  Na  Na47  1  0.74736838  0.66599822  0.87469151  1
  Na  Na48  1  -0.00066555  0.16659594  -0.00023723  1
  Na  Na49  1  0.00316694  0.16577000  0.24857092  1
  Na  Na50  1  -0.00027757  0.16723788  0.50003161  1
  Na  Na51  1  -0.00297440  0.16765204  0.75176391  1
  Na  Na52  1  0.00049296  0.50064333  -0.00066983  1
  Na  Na53  1  0.00153643  0.50052914  0.24874621  1
  Na  Na54  1  0.00083480  0.50011567  0.50058434  1
  Na  Na55  1  -0.00075883  0.50078499  0.75110180  1
  Na  Na56  1  -0.00127633  0.83314270  0.00011114  1
  Na  Na57  1  -0.00127419  0.83376406  0.25033314  1
  Na  Na58  1  0.00131202  0.83242838  0.49944101  1
  Na  Na59  1  -0.00148367  0.83372900  0.74992827  1
  Na  Na60  1  0.49719099  0.16778295  -0.00122776  1
  Na  Na61  1  0.50012507  0.16602520  0.25088844  1
  Na  Na62  1  0.49976223  0.16682334  0.50111653  1
  Na  Na63  1  0.49906142  0.16682490  0.74875706  1
  Na  Na64  1  0.50123573  0.49983739  -0.00037113  1
  Na  Na65  1  0.49955363  0.50064692  0.25077163  1
  Na  Na66  1  0.50130026  0.50053895  0.50069679  1
  Na  Na67  1  0.50263638  0.49965525  0.74978563  1
  Na  Na68  1  0.50278018  0.83215315  0.00004010  1
  Na  Na69  1  0.50095239  0.83267661  0.25004845  1
  Na  Na70  1  0.49929162  0.83276033  0.49930840  1
  Na  Na71  1  0.49990906  0.83280621  0.74987534  1
  Na  Na72  1  0.24912394  0.16724214  0.12488807  1
  Na  Na73  1  0.24820474  0.16674018  0.37381053  1
  Na  Na74  1  0.25261449  0.16526307  0.62570883  1
  Na  Na75  1  0.25279869  0.16648859  0.87600913  1
  Na  Na76  1  0.25039315  0.50055295  0.12551109  1
  Na  Na77  1  0.24945724  0.50020222  0.37527906  1
  Na  Na78  1  0.24759784  0.50126962  0.62405629  1
  Na  Na79  1  0.25036027  0.50044073  0.87509236  1
  Na  Na80  1  0.25170950  0.83230244  0.12466964  1
  Na  Na81  1  0.24933861  0.83312634  0.37413962  1
  Na  Na82  1  0.24956544  0.83306984  0.62516181  1
  Na  Na83  1  0.25259529  0.83208467  0.87560994  1
  Na  Na84  1  0.74969708  0.16637857  0.12445891  1
  Na  Na85  1  0.74987172  0.16714931  0.37457409  1
  Na  Na86  1  0.75072204  0.16749735  0.62540012  1
  Na  Na87  1  0.75137132  0.16629305  0.87518090  1
  Na  Na88  1  0.74700440  0.50142089  0.12410599  1
  Na  Na89  1  0.75134634  0.49995301  0.37579905  1
  Na  Na90  1  0.75035701  0.50029641  0.62557651  1
  Na  Na91  1  0.74890840  0.50008962  0.87519506  1
  Na  Na92  1  0.74783768  0.83373331  0.12395558  1
  Na  Na93  1  0.75032324  0.83274179  0.37616715  1
  Na  Na94  1  0.74897517  0.83355119  0.62499002  1
  Na  Na95  1  0.74817711  0.83330758  0.87516759  1
  Mn  Mn96  1  0.85679011  0.74989769  0.75244436  1
  Mn  Mn97  1  0.60749555  0.75007181  0.37284395  1
  Mn  Mn98  1  0.10796697  0.75070272  0.12279680  1
  Mn  Mn99  1  0.60801777  0.08290106  0.62285069  1
  Mn  Mn100  1  0.14180225  0.91609256  0.24695462  1
  Mn  Mn101  1  0.10740002  0.41672330  0.87261192  1
  Mn  Mn102  1  0.35913265  0.74980001  0.00266405  1
  Mn  Mn103  1  0.60687531  0.08360732  0.87215421  1
  Mn  Mn104  1  0.89321962  0.25038865  0.37637084  1
  Mn  Mn105  1  0.14271766  0.91617549  0.74885563  1
  Mn  Mn106  1  0.10775819  0.08421652  0.62396769  1
  Mn  Mn107  1  0.85632905  0.41685421  0.00234555  1
  Mn  Mn108  1  0.39118383  0.91623786  0.62691095  1
  Mn  Mn109  1  0.39308131  0.58271892  0.62706392  1
  Mn  Mn110  1  0.60791225  0.08302296  0.37325425  1
  Mn  Mn111  1  0.39272747  0.25089070  0.62677831  1
  Mn  Mn112  1  0.89117592  0.91663247  0.12745881  1
  Mn  Mn113  1  0.89175051  0.58336091  0.12674588  1
  Mn  Mn114  1  0.35704056  0.41631727  0.50274814  1
  Mn  Mn115  1  0.14265822  0.91650265  0.99696993  1
  Mn  Mn116  1  0.85864999  0.41650039  0.50227202  1
  Mn  Mn117  1  0.10704606  0.08296526  0.87309101  1
  Mn  Mn118  1  0.10828227  0.74947033  0.62337748  1
  Mn  Mn119  1  0.14119615  0.24891052  0.49833987  1
  Mn  Mn120  1  0.85596644  0.75022804  0.00187152  1
  Mn  Mn121  1  0.14177279  0.58441476  0.49747404  1
  Mn  Mn122  1  0.64199684  0.91745725  0.74761465  1
  Mn  Mn123  1  0.85784978  0.41733149  0.25197242  1
  Mn  Mn124  1  0.85781550  0.08272727  0.25198372  1
  Mn  Mn125  1  0.35892363  0.41607859  0.00201093  1
  Mn  Mn126  1  0.10779497  0.75042806  0.87287022  1
  Mn  Mn127  1  0.64203598  0.58413793  0.24825018  1
  Mn  Mn128  1  0.35735540  0.08296551  0.25188756  1
  Mn  Mn129  1  0.14201052  0.25027832  0.74827665  1
  Mn  Mn130  1  0.64216235  0.91715316  0.49751028  1
  Mn  Mn131  1  0.89304920  0.25019121  0.12714061  1
  Mn  Mn132  1  0.64132122  0.24952725  0.99740877  1
  Mn  Mn133  1  0.85830438  0.74974205  0.50234722  1
  Mn  Mn134  1  0.35786901  0.41668812  0.25252002  1
  Mn  Mn135  1  0.35823705  0.41693423  0.75150545  1
  Mn  Mn136  1  0.39149928  0.25028294  0.37792080  1
  Mn  Mn137  1  0.10876737  0.41655121  0.12177871  1
  Mn  Mn138  1  0.39377776  0.91639514  0.12737870  1
  Mn  Mn139  1  0.89264892  0.91664510  0.62720490  1
  Mn  Mn140  1  0.85902265  0.08410712  0.50164482  1
  Mn  Mn141  1  0.60810376  0.41693315  0.37297699  1
  Mn  Mn142  1  0.64161860  0.24949386  0.24709889  1
  Mn  Mn143  1  0.39176890  0.91646435  0.37716230  1
  Fe  Fe144  1  0.35653415  0.08271162  0.50083182  1
  Fe  Fe145  1  0.10603883  0.41654486  0.62469308  1
  Fe  Fe146  1  0.64344861  0.25002502  0.49863787  1
  Fe  Fe147  1  0.14246318  0.91655238  0.49828921  1
  Fe  Fe148  1  0.35736250  0.08363306  0.00243374  1
  Fe  Fe149  1  0.39317868  0.25070341  0.87621334  1
  Fe  Fe150  1  0.14287648  0.58360122  0.74896120  1
  Fe  Fe151  1  0.14387926  0.25031278  0.99781599  1
  Fe  Fe152  1  0.64285751  0.91643636  0.24879972  1
  Fe  Fe153  1  0.85740168  0.08388718  0.75192641  1
  Fe  Fe154  1  0.89211582  0.58387317  0.87712525  1
  Fe  Fe155  1  0.14365300  0.58295238  0.99798838  1
  Fe  Fe156  1  0.10787383  0.08310913  0.37320715  1
  Fe  Fe157  1  0.85674068  0.41682146  0.75203551  1
  Fe  Fe158  1  0.89366054  0.58350922  0.37598524  1
  Fe  Fe159  1  0.35652844  0.75075513  0.50134438  1
  Fe  Fe160  1  0.39330758  0.58277218  0.12659036  1
  Fe  Fe161  1  0.89166481  0.25032681  0.87774836  1
  Fe  Fe162  1  0.60678152  0.74997176  0.62303389  1
  Fe  Fe163  1  0.64096062  0.58385545  0.99778456  1
  Fe  Fe164  1  0.39293670  0.91624295  0.87701926  1
  Fe  Fe165  1  0.35819664  0.74966866  0.75172714  1
  Fe  Fe166  1  0.89250748  0.58282347  0.62743448  1
  Fe  Fe167  1  0.60730231  0.41659956  0.87257690  1
  Fe  Fe168  1  0.85639941  0.08312946  0.00224619  1
  Fe  Fe169  1  0.10733057  0.74958337  0.37263726  1
  Fe  Fe170  1  0.60892043  0.41700995  0.62296775  1
  Fe  Fe171  1  0.39287324  0.25056368  0.12675208  1
  Fe  Fe172  1  0.60643490  0.74983420  0.87257395  1
  Fe  Fe173  1  0.39370815  0.58273577  0.87600545  1
  Fe  Fe174  1  0.85705643  0.75018439  0.25158373  1
  Fe  Fe175  1  0.60684669  0.41671826  0.12412834  1
  Fe  Fe176  1  0.35792055  0.74976880  0.25160592  1
  Fe  Fe177  1  0.64333675  0.24994948  0.74853413  1
  Fe  Fe178  1  0.89142411  0.91612847  0.87697357  1
  Fe  Fe179  1  0.64362868  0.58294182  0.49816035  1
  Fe  Fe180  1  0.39225848  0.58286261  0.37725752  1
  Fe  Fe181  1  0.64214726  0.91694694  0.99736912  1
  Fe  Fe182  1  0.64290051  0.58287930  0.74806340  1
  Fe  Fe183  1  0.60747660  0.74944262  0.12403723  1
  Fe  Fe184  1  0.14333706  0.58346888  0.24830291  1
  Fe  Fe185  1  0.10754397  0.41723585  0.37305820  1
  Fe  Fe186  1  0.14257457  0.25050863  0.24758651  1
  Fe  Fe187  1  0.60703398  0.08381437  0.12261356  1
  Fe  Fe188  1  0.35790285  0.08313267  0.75212643  1
  Fe  Fe189  1  0.89177823  0.25098280  0.62717490  1
  Fe  Fe190  1  0.89320496  0.91633252  0.37628909  1
  Fe  Fe191  1  0.10743758  0.08292897  0.12190988  1
  P  P192  1  0.05590849  0.24926082  0.10949641  1
  P  P193  1  0.05448089  0.25000958  0.35920346  1
  P  P194  1  0.05133544  0.25107191  0.61115088  1
  P  P195  1  0.05284462  0.24974071  0.86167467  1
  P  P196  1  0.05542926  0.58371969  0.10993911  1
  P  P197  1  0.05338463  0.58381753  0.35930184  1
  P  P198  1  0.05331371  0.58242969  0.61190636  1
  P  P199  1  0.05399269  0.58360323  0.86079202  1
  P  P200  1  0.05300549  0.91712800  0.10918090  1
  P  P201  1  0.05396184  0.91611102  0.36117830  1
  P  P202  1  0.05438507  0.91674008  0.60977319  1
  P  P203  1  0.05127819  0.91674415  0.86005509  1
  P  P204  1  0.55189089  0.24981242  0.10991311  1
  P  P205  1  0.55429586  0.24975204  0.36139635  1
  P  P206  1  0.55618879  0.25050720  0.61074459  1
  P  P207  1  0.55277727  0.25025775  0.85887474  1
  P  P208  1  0.55268819  0.58351331  0.11010656  1
  P  P209  1  0.55316384  0.58353100  0.36158433  1
  P  P210  1  0.55619743  0.58347792  0.61074329  1
  P  P211  1  0.55421436  0.58330231  0.86023550  1
  P  P212  1  0.55593808  0.91639654  0.11072852  1
  P  P213  1  0.55355597  0.91663362  0.35912691  1
  P  P214  1  0.55287507  0.91584364  0.60990851  1
  P  P215  1  0.55286963  0.91648384  0.86095610  1
  P  P216  1  0.44672473  0.08432960  0.13868304  1
  P  P217  1  0.44586477  0.08311287  0.39085020  1
  P  P218  1  0.44452761  0.08321281  0.63918850  1
  P  P219  1  0.44431564  0.08355612  0.88917538  1
  P  P220  1  0.44786739  0.41651781  0.13992627  1
  P  P221  1  0.44647900  0.41738586  0.39078148  1
  P  P222  1  0.44900816  0.41689049  0.63975313  1
  P  P223  1  0.44827568  0.41672272  0.88898980  1
  P  P224  1  0.44791695  0.74897110  0.14050592  1
  P  P225  1  0.44435704  0.74910541  0.38963356  1
  P  P226  1  0.44575946  0.74979530  0.63918615  1
  P  P227  1  0.44660047  0.74936851  0.88842839  1
  P  P228  1  0.94673213  0.08323583  0.13873824  1
  P  P229  1  0.94857238  0.08267450  0.38918652  1
  P  P230  1  0.94601068  0.08461892  0.64092061  1
  P  P231  1  0.94344618  0.08335072  0.88971750  1
  P  P232  1  0.94701964  0.41692243  0.13950242  1
  P  P233  1  0.94837702  0.41790085  0.38931706  1
  P  P234  1  0.94641534  0.41689383  0.64110350  1
  P  P235  1  0.94431669  0.41733999  0.88906291  1
  P  P236  1  0.94546389  0.74994178  0.14051871  1
  P  P237  1  0.94665954  0.74963763  0.38831144  1
  P  P238  1  0.94672262  0.74890215  0.64034503  1
  P  P239  1  0.94574200  0.74953408  0.89016606  1
  P  P240  1  0.19431229  0.08384118  0.23477918  1
  P  P241  1  0.19679791  0.08241412  0.48475715  1
  P  P242  1  0.19826723  0.08332806  0.73606355  1
  P  P243  1  0.19681428  0.08421234  0.98592677  1
  P  P244  1  0.19539421  0.41734783  0.23621151  1
  P  P245  1  0.19402091  0.41671238  0.48585009  1
  P  P246  1  0.19605487  0.41787138  0.73457380  1
  P  P247  1  0.19729596  0.41661946  0.98482477  1
  P  P248  1  0.19704299  0.74879065  0.23576872  1
  P  P249  1  0.19670748  0.75058457  0.48418877  1
  P  P250  1  0.19850967  0.74883595  0.73565832  1
  P  P251  1  0.19739297  0.74881990  0.98508244  1
  P  P252  1  0.69591294  0.08223420  0.23416478  1
  P  P253  1  0.69743754  0.08447839  0.48510763  1
  P  P254  1  0.69813202  0.08415398  0.73530204  1
  P  P255  1  0.69564719  0.08290996  0.98553887  1
  P  P256  1  0.69613500  0.41712997  0.23415783  1
  P  P257  1  0.69615031  0.41688911  0.48653121  1
  P  P258  1  0.69583456  0.41667894  0.73617948  1
  P  P259  1  0.69324146  0.41739921  0.98546919  1
  P  P260  1  0.69729307  0.75068805  0.23491487  1
  P  P261  1  0.69539746  0.74901832  0.48651233  1
  P  P262  1  0.69405494  0.74935976  0.73554808  1
  P  P263  1  0.69310089  0.74997511  0.98541873  1
  P  P264  1  0.30490894  0.24981781  0.01458676  1
  P  P265  1  0.30314459  0.25004286  0.26382933  1
  P  P266  1  0.30244919  0.24904591  0.51509097  1
  P  P267  1  0.30419085  0.25007964  0.76549932  1
  P  P268  1  0.30522476  0.58263340  0.01453023  1
  P  P269  1  0.30480892  0.58370435  0.26439204  1
  P  P270  1  0.30431498  0.58417116  0.51375689  1
  P  P271  1  0.30350660  0.58354645  0.76518153  1
  P  P272  1  0.30535442  0.91721337  0.01428016  1
  P  P273  1  0.30343936  0.91595649  0.26437836  1
  P  P274  1  0.30167707  0.91646002  0.51436030  1
  P  P275  1  0.30436616  0.91605012  0.76594473  1
  P  P276  1  0.80398095  0.24939700  0.01408867  1
  P  P277  1  0.80309757  0.25017760  0.26470381  1
  P  P278  1  0.80345523  0.25059212  0.51556444  1
  P  P279  1  0.80397902  0.25084619  0.76467826  1
  P  P280  1  0.80179424  0.58367277  0.01358035  1
  P  P281  1  0.80368529  0.58442186  0.26558246  1
  P  P282  1  0.80486801  0.58312196  0.51486497  1
  P  P283  1  0.80361959  0.58259341  0.76462709  1
  P  P284  1  0.80257161  0.91714076  0.01371450  1
  P  P285  1  0.80254819  0.91563302  0.26550551  1
  P  P286  1  0.80503097  0.91660928  0.51384689  1
  P  P287  1  0.80352619  0.91704640  0.76553971  1
  O  O288  1  0.05989323  0.25028195  0.18629970  1
  O  O289  1  0.05636231  0.24980916  0.43604872  1
  O  O290  1  0.05507233  0.25000803  0.68785159  1
  O  O291  1  0.05883692  0.24977725  0.93819062  1
  O  O292  1  0.05992971  0.58376426  0.18666110  1
  O  O293  1  0.05630310  0.58405180  0.43610411  1
  O  O294  1  0.05826968  0.58379351  0.68850959  1
  O  O295  1  0.05944578  0.58348343  0.93739692  1
  O  O296  1  0.05635397  0.91631578  0.18600101  1
  O  O297  1  0.05851630  0.91607658  0.43784373  1
  O  O298  1  0.05726234  0.91657294  0.68658795  1
  O  O299  1  0.05585522  0.91674328  0.93669866  1
  O  O300  1  0.55516688  0.24916128  0.18662463  1
  O  O301  1  0.55909312  0.24964647  0.43809376  1
  O  O302  1  0.56037736  0.24951081  0.68751436  1
  O  O303  1  0.55604173  0.24929497  0.93561799  1
  O  O304  1  0.55581519  0.58379332  0.18683239  1
  O  O305  1  0.55853289  0.58373887  0.43815062  1
  O  O306  1  0.55980105  0.58310640  0.68756979  1
  O  O307  1  0.55778357  0.58342094  0.93698957  1
  O  O308  1  0.55944288  0.91640312  0.18750182  1
  O  O309  1  0.55658436  0.91654760  0.43593150  1
  O  O310  1  0.55595293  0.91684337  0.68669134  1
  O  O311  1  0.55765345  0.91746772  0.93762224  1
  O  O312  1  0.44182167  0.08383790  0.06201506  1
  O  O313  1  0.44278428  0.08295005  0.31401902  1
  O  O314  1  0.43990318  0.08295524  0.56248332  1
  O  O315  1  0.44085754  0.08330783  0.81228821  1
  O  O316  1  0.44480317  0.41646814  0.06320981  1
  O  O317  1  0.44332915  0.41675191  0.31397511  1
  O  O318  1  0.44417133  0.41684338  0.56317294  1
  O  O319  1  0.44477430  0.41678903  0.81239064  1
  O  O320  1  0.44471081  0.74974954  0.06373622  1
  O  O321  1  0.44046052  0.74998679  0.31282935  1
  O  O322  1  0.44058597  0.75026782  0.56255344  1
  O  O323  1  0.44225490  0.74941031  0.81172972  1
  O  O324  1  0.94097530  0.08304138  0.06213929  1
  O  O325  1  0.94487972  0.08299814  0.31249625  1
  O  O326  1  0.94386494  0.08399156  0.56408708  1
  O  O327  1  0.93955346  0.08358415  0.81286943  1
  O  O328  1  0.94290043  0.41697704  0.06277385  1
  O  O329  1  0.94465567  0.41736347  0.31265681  1
  O  O330  1  0.94391076  0.41694724  0.56435435  1
  O  O331  1  0.94026771  0.41719465  0.81231955  1
  O  O332  1  0.94153316  0.74984270  0.06378857  1
  O  O333  1  0.94187222  0.75000242  0.31170421  1
  O  O334  1  0.94402873  0.74921948  0.56354359  1
  O  O335  1  0.94276009  0.74951939  0.81342765  1
  O  O336  1  0.19194898  0.08323316  0.06257667  1
  O  O337  1  0.19026844  0.08291116  0.31160983  1
  O  O338  1  0.19347767  0.08337939  0.56149633  1
  O  O339  1  0.19401675  0.08366802  0.81270989  1
  O  O340  1  0.19474251  0.41666657  0.06160844  1
  O  O341  1  0.19129485  0.41738462  0.31298184  1
  O  O342  1  0.18947902  0.41682630  0.56256356  1
  O  O343  1  0.19319507  0.41699792  0.81136413  1
  O  O344  1  0.19413716  0.74968266  0.06181776  1
  O  O345  1  0.19177495  0.74952365  0.31238747  1
  O  O346  1  0.19328177  0.74944710  0.56093758  1
  O  O347  1  0.19456187  0.74922965  0.81230027  1
  O  O348  1  0.69056414  0.08378691  0.06216930  1
  O  O349  1  0.69329908  0.08341473  0.31094479  1
  O  O350  1  0.69436853  0.08347757  0.56184720  1
  O  O351  1  0.69392725  0.08351396  0.81195512  1
  O  O352  1  0.68900782  0.41676003  0.06223540  1
  O  O353  1  0.69344922  0.41706247  0.31099149  1
  O  O354  1  0.69284901  0.41721269  0.56335517  1
  O  O355  1  0.69114856  0.41670752  0.81291202  1
  O  O356  1  0.68976746  0.74942072  0.06224192  1
  O  O357  1  0.69385497  0.74962424  0.31164316  1
  O  O358  1  0.69121098  0.74985653  0.56321772  1
  O  O359  1  0.68987607  0.75012973  0.81237626  1
  O  O360  1  0.30868119  0.25032677  0.18717657  1
  O  O361  1  0.30496990  0.25021422  0.43827759  1
  O  O362  1  0.30715503  0.25105350  0.68872535  1
  O  O363  1  0.30990131  0.25105272  0.93793724  1
  O  O364  1  0.30982745  0.58290241  0.18764853  1
  O  O365  1  0.30811420  0.58289971  0.43703420  1
  O  O366  1  0.30718592  0.58288566  0.68845256  1
  O  O367  1  0.31068887  0.58257057  0.93789849  1
  O  O368  1  0.30726853  0.91647016  0.18764306  1
  O  O369  1  0.30506559  0.91646525  0.43772633  1
  O  O370  1  0.30628195  0.91587914  0.68905579  1
  O  O371  1  0.30980351  0.91630685  0.93754731  1
  O  O372  1  0.80659483  0.25030607  0.18794188  1
  O  O373  1  0.80762515  0.25073920  0.43886463  1
  O  O374  1  0.80822246  0.25103489  0.68795293  1
  O  O375  1  0.80797472  0.25031615  0.93728935  1
  O  O376  1  0.80610906  0.58356785  0.18876132  1
  O  O377  1  0.81025785  0.58316855  0.43823714  1
  O  O378  1  0.80849519  0.58322055  0.68793299  1
  O  O379  1  0.80707213  0.58358565  0.93697716  1
  O  O380  1  0.80550048  0.91633558  0.18870966  1
  O  O381  1  0.80987010  0.91638600  0.43710259  1
  O  O382  1  0.80674055  0.91606307  0.68873147  1
  O  O383  1  0.80754960  0.91633988  0.93709934  1
  O  O384  1  0.23448107  0.25016999  0.03796673  1
  O  O385  1  0.23266811  0.25003690  0.28692576  1
  O  O386  1  0.23291701  0.24886267  0.54078895  1
  O  O387  1  0.23443974  0.25026614  0.79065709  1
  O  O388  1  0.23474924  0.58281193  0.03765400  1
  O  O389  1  0.23438042  0.58334341  0.28786041  1
  O  O390  1  0.23431511  0.58445983  0.53809590  1
  O  O391  1  0.23344838  0.58306744  0.78975775  1
  O  O392  1  0.23533143  0.91650710  0.03834920  1
  O  O393  1  0.23358177  0.91641523  0.28887306  1
  O  O394  1  0.23186507  0.91626928  0.53968216  1
  O  O395  1  0.23490689  0.91638322  0.79204474  1
  O  O396  1  0.73390801  0.24969390  0.03807833  1
  O  O397  1  0.73336590  0.25002621  0.28952591  1
  O  O398  1  0.73339860  0.25061732  0.53985866  1
  O  O399  1  0.73357025  0.25059635  0.78870090  1
  O  O400  1  0.73132832  0.58401146  0.03680300  1
  O  O401  1  0.73411024  0.58361629  0.29117402  1
  O  O402  1  0.73442071  0.58306545  0.53807166  1
  O  O403  1  0.73302246  0.58284283  0.78776620  1
  O  O404  1  0.73217717  0.91648476  0.03707398  1
  O  O405  1  0.73261928  0.91624483  0.29050419  1
  O  O406  1  0.73496632  0.91688730  0.53773417  1
  O  O407  1  0.73369076  0.91692327  0.79039298  1
  O  O408  1  0.26445150  0.08311781  0.21082742  1
  O  O409  1  0.26669932  0.08307112  0.45960109  1
  O  O410  1  0.26843469  0.08289393  0.71193051  1
  O  O411  1  0.26725097  0.08409917  0.96262283  1
  O  O412  1  0.26532744  0.41708750  0.21167283  1
  O  O413  1  0.26412038  0.41656205  0.46186044  1
  O  O414  1  0.26567445  0.41729545  0.70914797  1
  O  O415  1  0.26688374  0.41670950  0.95937547  1
  O  O416  1  0.26740718  0.74896805  0.21206605  1
  O  O417  1  0.26676380  0.75017417  0.45969353  1
  O  O418  1  0.26852497  0.74958015  0.71098093  1
  O  O419  1  0.26724088  0.74893428  0.96047092  1
  O  O420  1  0.76555279  0.08246297  0.20869355  1
  O  O421  1  0.76701224  0.08397741  0.45963998  1
  O  O422  1  0.76828881  0.08402889  0.71105809  1
  O  O423  1  0.76598452  0.08327025  0.96208167  1
  O  O424  1  0.76564977  0.41754366  0.20857265  1
  O  O425  1  0.76592202  0.41660589  0.46149638  1
  O  O426  1  0.76626783  0.41688187  0.71257572  1
  O  O427  1  0.76335786  0.41674386  0.96163304  1
  O  O428  1  0.76714462  0.75025650  0.20980644  1
  O  O429  1  0.76542343  0.74952647  0.46237111  1
  O  O430  1  0.76415152  0.74989151  0.71154306  1
  O  O431  1  0.76304285  0.74992211  0.96079418  1
  O  O432  1  0.01720957  0.08313799  0.16166926  1
  O  O433  1  0.01855083  0.08339233  0.41405492  1
  O  O434  1  0.01550086  0.08382144  0.66684890  1
  O  O435  1  0.01360889  0.08342973  0.91368499  1
  O  O436  1  0.01697641  0.41704530  0.16352298  1
  O  O437  1  0.01838497  0.41754271  0.41402568  1
  O  O438  1  0.01616819  0.41679071  0.66672120  1
  O  O439  1  0.01437158  0.41727898  0.91327842  1
  O  O440  1  0.01541478  0.75031590  0.16475325  1
  O  O441  1  0.01694745  0.74915458  0.41240641  1
  O  O442  1  0.01629382  0.74943736  0.66580964  1
  O  O443  1  0.01533902  0.74959513  0.91559106  1
  O  O444  1  0.51707613  0.08347120  0.16230710  1
  O  O445  1  0.51555814  0.08317278  0.41586459  1
  O  O446  1  0.51470483  0.08308427  0.66302210  1
  O  O447  1  0.51433942  0.08394792  0.91356153  1
  O  O448  1  0.51769423  0.41668783  0.16528506  1
  O  O449  1  0.51616585  0.41725822  0.41572955  1
  O  O450  1  0.51925318  0.41692089  0.66343521  1
  O  O451  1  0.51829137  0.41682888  0.91376953  1
  O  O452  1  0.51798716  0.74929818  0.16517326  1
  O  O453  1  0.51443966  0.74980370  0.41362960  1
  O  O454  1  0.51619506  0.74947148  0.66244020  1
  O  O455  1  0.51686200  0.74930572  0.91249340  1
  O  O456  1  0.48204651  0.25054363  0.08466145  1
  O  O457  1  0.48421400  0.24970985  0.33748737  1
  O  O458  1  0.48604178  0.25032646  0.58682132  1
  O  O459  1  0.48274695  0.25020946  0.83428236  1
  O  O460  1  0.48267824  0.58332576  0.08504008  1
  O  O461  1  0.48283755  0.58338029  0.33808547  1
  O  O462  1  0.48613879  0.58356755  0.58654035  1
  O  O463  1  0.48401527  0.58309469  0.83575553  1
  O  O464  1  0.48592579  0.91623364  0.08615121  1
  O  O465  1  0.48389600  0.91657948  0.33407206  1
  O  O466  1  0.48319705  0.91598980  0.58472195  1
  O  O467  1  0.48256320  0.91644056  0.83721155  1
  O  O468  1  0.98581919  0.25014407  0.08553412  1
  O  O469  1  0.98502978  0.25000057  0.33303772  1
  O  O470  1  0.98148085  0.25108580  0.58607721  1
  O  O471  1  0.98214439  0.24987353  0.83923261  1
  O  O472  1  0.98520114  0.58344010  0.08626986  1
  O  O473  1  0.98343229  0.58381159  0.33432975  1
  O  O474  1  0.98302643  0.58257067  0.58798957  1
  O  O475  1  0.98337554  0.58342376  0.83798575  1
  O  O476  1  0.98321481  0.91685016  0.08452106  1
  O  O477  1  0.98372888  0.91632336  0.33686185  1
  O  O478  1  0.98468216  0.91650092  0.58465595  1
  O  O479  1  0.98107317  0.91659444  0.83621400  1
  O  O480  1  0.09009515  0.31391609  0.07616377  1
  O  O481  1  0.08891704  0.31521505  0.32729193  1
  O  O482  1  0.08537268  0.31617849  0.57899868  1
  O  O483  1  0.08568434  0.31479174  0.82791660  1
  O  O484  1  0.08883713  0.64877437  0.07678534  1
  O  O485  1  0.08761082  0.64874769  0.32663060  1
  O  O486  1  0.08673844  0.64713559  0.57780422  1
  O  O487  1  0.08713575  0.64856551  0.82704624  1
  O  O488  1  0.08705836  0.98217963  0.07682779  1
  O  O489  1  0.08748325  0.98113036  0.32811334  1
  O  O490  1  0.08846160  0.98194799  0.57757994  1
  O  O491  1  0.08480018  0.98181712  0.82714033  1
  O  O492  1  0.58623377  0.31491107  0.07795683  1
  O  O493  1  0.58767583  0.31486131  0.32822942  1
  O  O494  1  0.58976275  0.31574339  0.57810788  1
  O  O495  1  0.58709712  0.31532426  0.82687400  1
  O  O496  1  0.58658437  0.64857027  0.07735552  1
  O  O497  1  0.58618885  0.64852284  0.32781167  1
  O  O498  1  0.58969979  0.64866026  0.57790418  1
  O  O499  1  0.58780296  0.64826631  0.82711289  1
  O  O500  1  0.58942281  0.98151668  0.07750674  1
  O  O501  1  0.58791772  0.98153332  0.32682144  1
  O  O502  1  0.58703707  0.98086657  0.57738800  1
  O  O503  1  0.58591021  0.98148820  0.82712827  1
  O  O504  1  0.41327187  0.01938568  0.17212609  1
  O  O505  1  0.41163816  0.01804889  0.42327968  1
  O  O506  1  0.41086635  0.01827147  0.67244114  1
  O  O507  1  0.41085027  0.01852335  0.92238584  1
  O  O508  1  0.41382690  0.35149331  0.17250855  1
  O  O509  1  0.41244872  0.35228821  0.42329664  1
  O  O510  1  0.41535322  0.35197844  0.67277468  1
  O  O511  1  0.41463217  0.35155625  0.92179974  1
  O  O512  1  0.41388733  0.68388109  0.17270844  1
  O  O513  1  0.41098404  0.68398308  0.42251670  1
  O  O514  1  0.41246327  0.68480475  0.67267818  1
  O  O515  1  0.41348685  0.68409384  0.92149954  1
  O  O516  1  0.91360608  0.01827958  0.17244269  1
  O  O517  1  0.91496407  0.01756930  0.42186416  1
  O  O518  1  0.91102725  0.01982459  0.67306309  1
  O  O519  1  0.90988838  0.01811607  0.92254310  1
  O  O520  1  0.91351951  0.35186425  0.17243981  1
  O  O521  1  0.91452995  0.35287408  0.42224159  1
  O  O522  1  0.91190430  0.35194451  0.67338985  1
  O  O523  1  0.91077223  0.35223523  0.92204702  1
  O  O524  1  0.91167852  0.68487218  0.17323298  1
  O  O525  1  0.91317555  0.68444556  0.42138948  1
  O  O526  1  0.91256781  0.68384758  0.67260272  1
  O  O527  1  0.91159180  0.68431707  0.92244205  1
  O  O528  1  0.16031629  0.01906067  0.20145843  1
  O  O529  1  0.16308992  0.01713708  0.45232306  1
  O  O530  1  0.16442826  0.01835375  0.70343442  1
  O  O531  1  0.16362695  0.01927342  0.95216181  1
  O  O532  1  0.16173696  0.35231520  0.20322843  1
  O  O533  1  0.16028587  0.35174643  0.45284533  1
  O  O534  1  0.16120110  0.35307206  0.70222720  1
  O  O535  1  0.16308501  0.35149032  0.95257994  1
  O  O536  1  0.16387780  0.68363039  0.20273216  1
  O  O537  1  0.16260189  0.68578843  0.45101699  1
  O  O538  1  0.16505766  0.68360363  0.70278131  1
  O  O539  1  0.16354175  0.68359976  0.95286967  1
  O  O540  1  0.66175799  0.01685620  0.20257074  1
  O  O541  1  0.66299225  0.01965805  0.45248079  1
  O  O542  1  0.66448724  0.01915242  0.70217352  1
  O  O543  1  0.66255041  0.01771819  0.95228947  1
  O  O544  1  0.66176171  0.35213922  0.20178711  1
  O  O545  1  0.66215152  0.35176946  0.45414602  1
  O  O546  1  0.66266308  0.35158681  0.70292518  1
  O  O547  1  0.65949245  0.35251919  0.95202786  1
  O  O548  1  0.66286475  0.68592241  0.20192628  1
  O  O549  1  0.66233287  0.68359115  0.45356895  1
  O  O550  1  0.66088959  0.68393994  0.70294714  1
  O  O551  1  0.65923417  0.68508358  0.95230725  1
  O  O552  1  0.33832414  0.31465557  0.04847299  1
  O  O553  1  0.33616024  0.31498122  0.29759828  1
  O  O554  1  0.33658295  0.31402388  0.54789262  1
  O  O555  1  0.33851097  0.31505737  0.79821288  1
  O  O556  1  0.33862174  0.64749931  0.04819155  1
  O  O557  1  0.33807587  0.64883677  0.29739776  1
  O  O558  1  0.33809464  0.64946203  0.54592864  1
  O  O559  1  0.33746922  0.64858611  0.79776866  1
  O  O560  1  0.33849062  0.98264498  0.04701288  1
  O  O561  1  0.33726843  0.98097668  0.29714265  1
  O  O562  1  0.33562070  0.98151389  0.54693237  1
  O  O563  1  0.33914154  0.98101150  0.79773990  1
  O  O564  1  0.83753356  0.31434154  0.04728151  1
  O  O565  1  0.83693873  0.31528683  0.29738407  1
  O  O566  1  0.83722369  0.31554140  0.54869586  1
  O  O567  1  0.83717720  0.31597628  0.79802698  1
  O  O568  1  0.83517481  0.64852534  0.04703469  1
  O  O569  1  0.83754960  0.64987370  0.29756435  1
  O  O570  1  0.83809740  0.64801808  0.54859210  1
  O  O571  1  0.83674067  0.64757552  0.79837148  1
  O  O572  1  0.83543300  0.98239712  0.04709847  1
  O  O573  1  0.83718028  0.98041099  0.29808485  1
  O  O574  1  0.83869487  0.98166240  0.54666529  1
  O  O575  1  0.83760446  0.98219368  0.79754307  1
  O  O576  1  0.41371588  0.14952246  0.17193048  1
  O  O577  1  0.41144261  0.14793640  0.42328978  1
  O  O578  1  0.41114450  0.14830116  0.67236608  1
  O  O579  1  0.41046663  0.14881755  0.92160488  1
  O  O580  1  0.41385704  0.48164955  0.17224789  1
  O  O581  1  0.41239903  0.48253583  0.42290934  1
  O  O582  1  0.41554583  0.48187928  0.67290694  1
  O  O583  1  0.41451252  0.48170618  0.92187213  1
  O  O584  1  0.41374887  0.81379824  0.17337091  1
  O  O585  1  0.41043205  0.81398171  0.42291552  1
  O  O586  1  0.41250719  0.81468219  0.67290833  1
  O  O587  1  0.41348908  0.81434955  0.92201173  1
  O  O588  1  0.91387912  0.14833283  0.17233586  1
  O  O589  1  0.91452219  0.14778074  0.42173449  1
  O  O590  1  0.91187874  0.14992500  0.67280738  1
  O  O591  1  0.90975428  0.14831606  0.92285216  1
  O  O592  1  0.91324785  0.48198742  0.17216227  1
  O  O593  1  0.91470767  0.48301765  0.42201693  1
  O  O594  1  0.91201706  0.48186352  0.67355333  1
  O  O595  1  0.91086286  0.48263687  0.92191717  1
  O  O596  1  0.91129710  0.81481751  0.17329402  1
  O  O597  1  0.91351954  0.81470642  0.42186969  1
  O  O598  1  0.91219624  0.81391189  0.67240593  1
  O  O599  1  0.91147926  0.81466674  0.92237788  1
  O  O600  1  0.08908807  0.18386374  0.07679848  1
  O  O601  1  0.08905179  0.18498859  0.32723305  1
  O  O602  1  0.08531969  0.18606527  0.57821479  1
  O  O603  1  0.08557886  0.18475284  0.82771660  1
  O  O604  1  0.08920414  0.51887277  0.07656250  1
  O  O605  1  0.08758923  0.51881493  0.32693098  1
  O  O606  1  0.08642731  0.51704187  0.57917768  1
  O  O607  1  0.08728172  0.51873837  0.82707481  1
  O  O608  1  0.08706482  0.85202937  0.07670902  1
  O  O609  1  0.08712992  0.85088569  0.32778565  1
  O  O610  1  0.08880127  0.85184027  0.57729421  1
  O  O611  1  0.08507819  0.85170682  0.82724418  1
  O  O612  1  0.58550021  0.18480950  0.07670730  1
  O  O613  1  0.58768297  0.18478220  0.32801296  1
  O  O614  1  0.58974522  0.18560740  0.57729907  1
  O  O615  1  0.58679465  0.18539910  0.82584678  1
  O  O616  1  0.58672376  0.51850005  0.07755521  1
  O  O617  1  0.58651575  0.51865433  0.32812839  1
  O  O618  1  0.58998733  0.51847350  0.57777714  1
  O  O619  1  0.58808989  0.51828661  0.82738573  1
  O  O620  1  0.58958218  0.85122349  0.07801363  1
  O  O621  1  0.58793764  0.85166582  0.32676858  1
  O  O622  1  0.58690806  0.85066826  0.57785159  1
  O  O623  1  0.58624363  0.85137082  0.82810247  1
  O  O624  1  0.33807198  0.18462228  0.04776921  1
  O  O625  1  0.33610770  0.18486029  0.29709325  1
  O  O626  1  0.33700772  0.18392208  0.54649941  1
  O  O627  1  0.33840546  0.18501555  0.79759301  1
  O  O628  1  0.33831872  0.51756646  0.04813752  1
  O  O629  1  0.33821644  0.51887883  0.29818243  1
  O  O630  1  0.33765292  0.51930854  0.54752201  1
  O  O631  1  0.33767642  0.51864748  0.79813104  1
  O  O632  1  0.33927378  0.85235739  0.04743295  1
  O  O633  1  0.33704948  0.85075519  0.29680912  1
  O  O634  1  0.33574400  0.85133319  0.54695608  1
  O  O635  1  0.33878564  0.85086301  0.79791337  1
  O  O636  1  0.83742162  0.18412209  0.04668979  1
  O  O637  1  0.83714994  0.18501552  0.29702698  1
  O  O638  1  0.83744276  0.18566380  0.54832221  1
  O  O639  1  0.83753048  0.18581504  0.79768812  1
  O  O640  1  0.83474075  0.51865307  0.04731106  1
  O  O641  1  0.83866007  0.51983440  0.29819270  1
  O  O642  1  0.83810492  0.51810598  0.54843067  1
  O  O643  1  0.83676076  0.51757135  0.79795072  1
  O  O644  1  0.83586080  0.85227272  0.04735116  1
  O  O645  1  0.83647326  0.85040041  0.29779807  1
  O  O646  1  0.83818124  0.85152944  0.54726443  1
  O  O647  1  0.83750860  0.85206654  0.79851327  1
  O  O648  1  0.16116330  0.14919186  0.20207827  1
  O  O649  1  0.16229417  0.14713385  0.45193450  1
  O  O650  1  0.16486493  0.14844552  0.70287330  1
  O  O651  1  0.16372027  0.14945893  0.95282691  1
  O  O652  1  0.16214928  0.48265616  0.20330712  1
  O  O653  1  0.16063847  0.48183817  0.45249902  1
  O  O654  1  0.16197633  0.48319928  0.70269098  1
  O  O655  1  0.16298455  0.48171596  0.95273720  1
  O  O656  1  0.16379631  0.81379516  0.20211978  1
  O  O657  1  0.16279114  0.81571658  0.45188699  1
  O  O658  1  0.16430741  0.81376929  0.70307522  1
  O  O659  1  0.16346413  0.81379259  0.95213376  1
  O  O660  1  0.66134201  0.14693789  0.20118101  1
  O  O661  1  0.66362826  0.14990194  0.45316709  1
  O  O662  1  0.66448798  0.14923186  0.70279289  1
  O  O663  1  0.66237508  0.14782928  0.95184030  1
  O  O664  1  0.66136469  0.48205345  0.20216269  1
  O  O665  1  0.66259557  0.48211974  0.45362255  1
  O  O666  1  0.66245391  0.48166641  0.70276565  1
  O  O667  1  0.66004082  0.48263676  0.95246322  1
  O  O668  1  0.66322723  0.81581970  0.20273909  1
  O  O669  1  0.66158519  0.81375679  0.45311377  1
  O  O670  1  0.66006396  0.81408997  0.70229293  1
  O  O671  1  0.65941002  0.81523189  0.95275428  1
