# generated using pymatgen
data_Na2MnFe(PO4)2
_symmetry_space_group_name_H-M   'P 1'
_cell_length_a   21.08485234
_cell_length_b   18.93671778
_cell_length_c   20.04442917
_cell_angle_alpha   90.00105252
_cell_angle_beta   89.99988721
_cell_angle_gamma   89.99852376
_symmetry_Int_Tables_number   1
_chemical_formula_structural   Na2MnFe(PO4)2
_chemical_formula_sum   'Na96 Mn48 Fe48 P96 O384'
_cell_volume   8003.29754037
_cell_formula_units_Z   48
loop_
 _symmetry_equiv_pos_site_id
 _symmetry_equiv_pos_as_xyz
  1  'x, y, z'
loop_
 _atom_site_type_symbol
 _atom_site_label
 _atom_site_symmetry_multiplicity
 _atom_site_fract_x
 _atom_site_fract_y
 _atom_site_fract_z
 _atom_site_occupancy
  Na  Na0  1  -0.00037956  0.00007784  -0.00004638  1
  Na  Na1  1  -0.00075314  -0.00090715  0.25081601  1
  Na  Na2  1  -0.00017774  -0.00003591  0.49892609  1
  Na  Na3  1  0.00070618  0.00087703  0.75038049  1
  Na  Na4  1  -0.00002065  0.33337262  -0.00093617  1
  Na  Na5  1  -0.00086009  0.33339038  0.24947773  1
  Na  Na6  1  -0.00327820  0.33222226  0.50130610  1
  Na  Na7  1  -0.00017666  0.33361683  0.75032466  1
  Na  Na8  1  -0.00003182  0.66637166  0.00040699  1
  Na  Na9  1  -0.00012280  0.66624724  0.24954784  1
  Na  Na10  1  0.00112643  0.66728266  0.50040245  1
  Na  Na11  1  -0.00116363  0.66601147  0.74985665  1
  Na  Na12  1  0.49795274  -0.00054808  -0.00014208  1
  Na  Na13  1  0.50001768  0.00048431  0.25040413  1
  Na  Na14  1  0.50055310  -0.00003081  0.50002386  1
  Na  Na15  1  0.50007538  0.00066427  0.74953411  1
  Na  Na16  1  0.49667071  0.33193923  0.00005703  1
  Na  Na17  1  0.49819667  0.33349667  0.24968853  1
  Na  Na18  1  0.50027572  0.33368914  0.50008392  1
  Na  Na19  1  0.50010625  0.33312326  0.74955025  1
  Na  Na20  1  0.50088566  0.66703711  -0.00042141  1
  Na  Na21  1  0.49915088  0.66646393  0.25019623  1
  Na  Na22  1  0.49953610  0.66671119  0.49991370  1
  Na  Na23  1  0.49953771  0.66630631  0.75065216  1
  Na  Na24  1  0.24989724  -0.00027002  0.12449400  1
  Na  Na25  1  0.25034170  0.00025481  0.37618164  1
  Na  Na26  1  0.24765995  -0.00065922  0.62545165  1
  Na  Na27  1  0.25086495  0.00099475  0.87438448  1
  Na  Na28  1  0.25205336  0.33398190  0.12444858  1
  Na  Na29  1  0.25188964  0.33352769  0.37472289  1
  Na  Na30  1  0.25165926  0.33388593  0.62635609  1
  Na  Na31  1  0.24917759  0.33214865  0.87398117  1
  Na  Na32  1  0.24976056  0.66643699  0.12488154  1
  Na  Na33  1  0.24970974  0.66650716  0.37569811  1
  Na  Na34  1  0.25049036  0.66664390  0.62376339  1
  Na  Na35  1  0.25080718  0.66669046  0.87571655  1
  Na  Na36  1  0.75074025  0.00014438  0.12514384  1
  Na  Na37  1  0.75239931  0.00070481  0.37511017  1
  Na  Na38  1  0.74936483  -0.00041565  0.62453191  1
  Na  Na39  1  0.75078568  0.00089555  0.87489819  1
  Na  Na40  1  0.75145057  0.33407867  0.12546750  1
  Na  Na41  1  0.75063270  0.33362059  0.37539993  1
  Na  Na42  1  0.75144718  0.33351339  0.62440516  1
  Na  Na43  1  0.75148092  0.33347152  0.87441538  1
  Na  Na44  1  0.75032221  0.66701137  0.12494498  1
  Na  Na45  1  0.75031615  0.66713335  0.37545288  1
  Na  Na46  1  0.75082231  0.66697125  0.62474554  1
  Na  Na47  1  0.74989397  0.66614734  0.87516804  1
  Na  Na48  1  0.00171452  0.16637351  -0.00081062  1
  Na  Na49  1  -0.00156896  0.16755465  0.25003899  1
  Na  Na50  1  -0.00134165  0.16692165  0.49990154  1
  Na  Na51  1  0.00008031  0.16743650  0.75069672  1
  Na  Na52  1  -0.00023201  0.49995684  0.00015907  1
  Na  Na53  1  0.00043260  0.49986161  0.24932310  1
  Na  Na54  1  -0.00250172  0.50121550  0.50127259  1
  Na  Na55  1  -0.00043617  0.49942064  0.74907820  1
  Na  Na56  1  -0.00140851  0.83322934  0.00022059  1
  Na  Na57  1  -0.00086816  0.83407427  0.25055015  1
  Na  Na58  1  0.00061678  0.83331143  0.49935071  1
  Na  Na59  1  -0.00245386  0.83465298  0.75035939  1
  Na  Na60  1  0.49898061  0.16663689  -0.00040538  1
  Na  Na61  1  0.49914495  0.16681465  0.25023237  1
  Na  Na62  1  0.49911193  0.16717608  0.50065096  1
  Na  Na63  1  0.49996597  0.16683234  0.74930850  1
  Na  Na64  1  0.49826066  0.50006863  0.00027689  1
  Na  Na65  1  0.49888530  0.49968094  0.24903392  1
  Na  Na66  1  0.49979945  0.49944527  0.49991221  1
  Na  Na67  1  0.49985623  0.49973078  0.75037202  1
  Na  Na68  1  0.50045987  0.83259943  0.00016915  1
  Na  Na69  1  0.49857507  0.83428552  0.25080463  1
  Na  Na70  1  0.50150170  0.83251868  0.49965598  1
  Na  Na71  1  0.49858464  0.83411227  0.74979205  1
  Na  Na72  1  0.24948233  0.16705190  0.12453306  1
  Na  Na73  1  0.25133576  0.16626312  0.37554271  1
  Na  Na74  1  0.25049882  0.16609792  0.62575871  1
  Na  Na75  1  0.24908806  0.16743041  0.87388496  1
  Na  Na76  1  0.25091407  0.49999045  0.12435086  1
  Na  Na77  1  0.25231423  0.49905159  0.37544667  1
  Na  Na78  1  0.24878280  0.50072947  0.62543555  1
  Na  Na79  1  0.25079802  0.49922997  0.87483286  1
  Na  Na80  1  0.25107850  0.83310847  0.12516335  1
  Na  Na81  1  0.24865028  0.83387795  0.37549771  1
  Na  Na82  1  0.25032312  0.83324906  0.62450874  1
  Na  Na83  1  0.25123746  0.83315132  0.87525815  1
  Na  Na84  1  0.75084564  0.16670853  0.12394534  1
  Na  Na85  1  0.75144074  0.16595158  0.37601135  1
  Na  Na86  1  0.75040207  0.16703276  0.62424744  1
  Na  Na87  1  0.75054850  0.16698312  0.87536026  1
  Na  Na88  1  0.74911850  0.50053603  0.12577366  1
  Na  Na89  1  0.75128498  0.49905434  0.37548474  1
  Na  Na90  1  0.75043637  0.49946885  0.62425810  1
  Na  Na91  1  0.75159660  0.49887364  0.87451502  1
  Na  Na92  1  0.75167830  0.83263641  0.12602235  1
  Na  Na93  1  0.75026664  0.83408429  0.37461413  1
  Na  Na94  1  0.75123815  0.83293699  0.62537278  1
  Na  Na95  1  0.74973561  0.83368747  0.87437607  1
  Mn  Mn96  1  0.35842117  0.75009860  0.00241837  1
  Mn  Mn97  1  0.35749002  0.75034357  0.50190044  1
  Mn  Mn98  1  0.64263700  0.58226426  0.74818885  1
  Mn  Mn99  1  0.39228330  0.58285956  0.62770813  1
  Mn  Mn100  1  0.39196087  0.24987348  0.37791347  1
  Mn  Mn101  1  0.89187269  0.58379687  0.12743627  1
  Mn  Mn102  1  0.64265777  0.24967138  0.49779813  1
  Mn  Mn103  1  0.60723777  0.08320063  0.87258633  1
  Mn  Mn104  1  0.85822881  0.41664249  0.25302027  1
  Mn  Mn105  1  0.64185372  0.25099105  0.99761684  1
  Mn  Mn106  1  0.64216088  0.58377669  0.49721520  1
  Mn  Mn107  1  0.85716708  0.74944452  0.00197932  1
  Mn  Mn108  1  0.10769108  0.74944686  0.87202814  1
  Mn  Mn109  1  0.39204140  0.58316707  0.12752575  1
  Mn  Mn110  1  0.85806944  0.74985593  0.50169804  1
  Mn  Mn111  1  0.35784999  0.08253583  0.25232662  1
  Mn  Mn112  1  0.64292380  0.91712160  0.24837636  1
  Mn  Mn113  1  0.14241208  0.25017551  0.49840904  1
  Mn  Mn114  1  0.14228142  0.91732723  0.99771916  1
  Mn  Mn115  1  0.10754108  0.75119294  0.62377355  1
  Mn  Mn116  1  0.64251427  0.91732202  0.74771737  1
  Mn  Mn117  1  0.60742395  0.41638315  0.87324894  1
  Mn  Mn118  1  0.10777668  0.08327262  0.12300028  1
  Mn  Mn119  1  0.60792308  0.75047676  0.12358940  1
  Mn  Mn120  1  0.14235141  0.58283208  0.49720997  1
  Mn  Mn121  1  0.89208662  0.91694383  0.87757919  1
  Mn  Mn122  1  0.85809938  0.08333775  0.50301160  1
  Mn  Mn123  1  0.10767948  0.41702581  0.37353714  1
  Mn  Mn124  1  0.39232730  0.91696204  0.62667705  1
  Mn  Mn125  1  0.89250454  0.24937164  0.12691043  1
  Mn  Mn126  1  0.64206055  0.91631843  0.99791092  1
  Mn  Mn127  1  0.35758798  0.41716451  0.75253819  1
  Mn  Mn128  1  0.64236444  0.24950955  0.24774784  1
  Mn  Mn129  1  0.64224387  0.58349137  0.24858022  1
  Mn  Mn130  1  0.35731670  0.08268783  0.75194805  1
  Mn  Mn131  1  0.14237847  0.58266403  0.99681778  1
  Mn  Mn132  1  0.10867140  0.41635798  0.12272845  1
  Mn  Mn133  1  0.14225965  0.25035093  0.24800293  1
  Mn  Mn134  1  0.85837056  0.08369210  0.00230200  1
  Mn  Mn135  1  0.10752206  0.08367043  0.37271953  1
  Mn  Mn136  1  0.10760199  0.75035275  0.12363085  1
  Mn  Mn137  1  0.39194641  0.91707436  0.12782358  1
  Mn  Mn138  1  0.60753327  0.08339442  0.37255109  1
  Mn  Mn139  1  0.60815122  0.75007321  0.62319224  1
  Mn  Mn140  1  0.89204665  0.58382942  0.62801409  1
  Mn  Mn141  1  0.10705378  0.41591798  0.62243458  1
  Mn  Mn142  1  0.14206197  0.91580085  0.74779954  1
  Mn  Mn143  1  0.60701520  0.41596957  0.12230163  1
  Fe  Fe144  1  0.89310701  0.58341012  0.37631537  1
  Fe  Fe145  1  0.39225469  0.91631856  0.37728048  1
  Fe  Fe146  1  0.85768737  0.41713157  0.00130545  1
  Fe  Fe147  1  0.89347796  0.25065835  0.87639039  1
  Fe  Fe148  1  0.39348340  0.24992135  0.62657190  1
  Fe  Fe149  1  0.85749989  0.08366242  0.75149792  1
  Fe  Fe150  1  0.60675158  0.74995520  0.87319088  1
  Fe  Fe151  1  0.89239257  0.91676230  0.12714800  1
  Fe  Fe152  1  0.35691174  0.74978245  0.25242591  1
  Fe  Fe153  1  0.89354151  0.91617670  0.37721027  1
  Fe  Fe154  1  0.89266576  0.58258247  0.87657278  1
  Fe  Fe155  1  0.89259705  0.91743173  0.62634551  1
  Fe  Fe156  1  0.39255113  0.91683485  0.87661476  1
  Fe  Fe157  1  0.35778936  0.74965021  0.75165711  1
  Fe  Fe158  1  0.10724175  0.74963740  0.37278935  1
  Fe  Fe159  1  0.89245272  0.24895075  0.62809303  1
  Fe  Fe160  1  0.85768959  0.08305579  0.25135333  1
  Fe  Fe161  1  0.35714208  0.08351651  0.50240833  1
  Fe  Fe162  1  0.64313268  0.25002012  0.74838322  1
  Fe  Fe163  1  0.89227782  0.25048169  0.37677102  1
  Fe  Fe164  1  0.14209868  0.91700946  0.49838144  1
  Fe  Fe165  1  0.60678925  0.41713840  0.37335815  1
  Fe  Fe166  1  0.39252831  0.58331216  0.87674613  1
  Fe  Fe167  1  0.35677292  0.41586987  0.00087644  1
  Fe  Fe168  1  0.64264909  0.58293243  0.99805231  1
  Fe  Fe169  1  0.60773233  0.08375507  0.62345975  1
  Fe  Fe170  1  0.39243104  0.58373831  0.37620479  1
  Fe  Fe171  1  0.64299442  0.91653382  0.49800792  1
  Fe  Fe172  1  0.10649484  0.08338739  0.62341915  1
  Fe  Fe173  1  0.85742433  0.74977685  0.75256036  1
  Fe  Fe174  1  0.85728262  0.41627335  0.75206454  1
  Fe  Fe175  1  0.60674959  0.74968261  0.37309628  1
  Fe  Fe176  1  0.10702847  0.41666660  0.87322107  1
  Fe  Fe177  1  0.14278527  0.91628932  0.24851896  1
  Fe  Fe178  1  0.85794392  0.75014934  0.25292189  1
  Fe  Fe179  1  0.35728918  0.41748353  0.25215676  1
  Fe  Fe180  1  0.14272970  0.58340384  0.74928322  1
  Fe  Fe181  1  0.14332771  0.25010860  0.99794605  1
  Fe  Fe182  1  0.35701858  0.08415852  0.00132205  1
  Fe  Fe183  1  0.85699248  0.41680453  0.50146589  1
  Fe  Fe184  1  0.39198714  0.24978343  0.87627608  1
  Fe  Fe185  1  0.14236938  0.25040676  0.74778673  1
  Fe  Fe186  1  0.35834714  0.41596133  0.50230804  1
  Fe  Fe187  1  0.60785789  0.41615770  0.62331371  1
  Fe  Fe188  1  0.14317617  0.58342960  0.24928103  1
  Fe  Fe189  1  0.39195303  0.24921982  0.12630403  1
  Fe  Fe190  1  0.10767312  0.08391544  0.87309324  1
  Fe  Fe191  1  0.60738103  0.08368149  0.12331665  1
  P  P192  1  0.05434955  0.25007754  0.10884433  1
  P  P193  1  0.05172501  0.25058417  0.36036114  1
  P  P194  1  0.05283332  0.24904837  0.61145054  1
  P  P195  1  0.05473460  0.25066247  0.86075383  1
  P  P196  1  0.05495917  0.58339435  0.11104223  1
  P  P197  1  0.05282905  0.58366320  0.35960574  1
  P  P198  1  0.05462790  0.58364505  0.61138947  1
  P  P199  1  0.05242620  0.58199866  0.85932632  1
  P  P200  1  0.05304687  0.91648408  0.11118877  1
  P  P201  1  0.05447424  0.91598987  0.36072179  1
  P  P202  1  0.05250841  0.91776105  0.60955981  1
  P  P203  1  0.05331137  0.91729554  0.86018096  1
  P  P204  1  0.55185328  0.24925671  0.10995131  1
  P  P205  1  0.55317878  0.25085915  0.36010201  1
  P  P206  1  0.55437426  0.25008359  0.61130337  1
  P  P207  1  0.55229897  0.25007424  0.85929489  1
  P  P208  1  0.55393983  0.58334405  0.10937009  1
  P  P209  1  0.55190267  0.58320985  0.36009796  1
  P  P210  1  0.55374494  0.58228983  0.61017932  1
  P  P211  1  0.55323641  0.58344171  0.86139195  1
  P  P212  1  0.55336376  0.91767340  0.11041363  1
  P  P213  1  0.55317708  0.91601126  0.36131903  1
  P  P214  1  0.55444027  0.91755690  0.60926893  1
  P  P215  1  0.55204240  0.91607356  0.86007884  1
  P  P216  1  0.44649508  0.08427711  0.13882308  1
  P  P217  1  0.44558310  0.08230683  0.39110251  1
  P  P218  1  0.44670163  0.08398402  0.63865139  1
  P  P219  1  0.44549298  0.08360907  0.89001107  1
  P  P220  1  0.44396592  0.41538849  0.13901215  1
  P  P221  1  0.44575028  0.41770023  0.38941809  1
  P  P222  1  0.44694714  0.41557156  0.63915517  1
  P  P223  1  0.44559869  0.41627361  0.89029570  1
  P  P224  1  0.44592122  0.75003798  0.14133835  1
  P  P225  1  0.44602806  0.75003253  0.38876436  1
  P  P226  1  0.44618619  0.75005377  0.64060999  1
  P  P227  1  0.44627204  0.75000453  0.88864017  1
  P  P228  1  0.94635805  0.08259640  0.14076364  1
  P  P229  1  0.94512797  0.08325025  0.38847750  1
  P  P230  1  0.94702781  0.08298314  0.64091843  1
  P  P231  1  0.94684292  0.08476151  0.88853301  1
  P  P232  1  0.94579836  0.41669574  0.13887934  1
  P  P233  1  0.94619141  0.41716063  0.39077785  1
  P  P234  1  0.94418444  0.41568451  0.63969961  1
  P  P235  1  0.94587839  0.41664531  0.88888802  1
  P  P236  1  0.94556099  0.75068540  0.14087484  1
  P  P237  1  0.94698749  0.74968185  0.38875654  1
  P  P238  1  0.94573922  0.75140882  0.64058059  1
  P  P239  1  0.94542807  0.74863041  0.88905102  1
  P  P240  1  0.19670550  0.08233761  0.23522372  1
  P  P241  1  0.19618090  0.08329956  0.48662849  1
  P  P242  1  0.19414007  0.08413111  0.73541287  1
  P  P243  1  0.19715291  0.08434236  0.98423551  1
  P  P244  1  0.19811396  0.41765873  0.23535506  1
  P  P245  1  0.19857680  0.41588846  0.48528328  1
  P  P246  1  0.19483265  0.41694847  0.73642659  1
  P  P247  1  0.19722769  0.41548248  0.98403394  1
  P  P248  1  0.19656748  0.74994165  0.23670770  1
  P  P249  1  0.19521533  0.75084578  0.48456843  1
  P  P250  1  0.19837987  0.74876191  0.73502802  1
  P  P251  1  0.19667124  0.75034291  0.98500408  1
  P  P252  1  0.69771943  0.08335357  0.23448430  1
  P  P253  1  0.69542989  0.08243075  0.48624908  1
  P  P254  1  0.69740697  0.08468314  0.73453013  1
  P  P255  1  0.69558890  0.08353348  0.98576961  1
  P  P256  1  0.69545263  0.41661471  0.23615728  1
  P  P257  1  0.69590661  0.41646343  0.48541561  1
  P  P258  1  0.69743599  0.41533636  0.73461959  1
  P  P259  1  0.69788042  0.41733279  0.98484242  1
  P  P260  1  0.69706028  0.75015538  0.23662985  1
  P  P261  1  0.69591356  0.75114053  0.48430013  1
  P  P262  1  0.69693414  0.74969392  0.73640760  1
  P  P263  1  0.69549638  0.74926259  0.98438033  1
  P  P264  1  0.30399417  0.24970660  0.01346070  1
  P  P265  1  0.30449018  0.25041451  0.26385178  1
  P  P266  1  0.30437502  0.24983000  0.51627839  1
  P  P267  1  0.30395411  0.24981670  0.76395857  1
  P  P268  1  0.30472907  0.58236093  0.01370126  1
  P  P269  1  0.30293162  0.58367292  0.26550529  1
  P  P270  1  0.30497763  0.58246124  0.51390687  1
  P  P271  1  0.30290299  0.58406022  0.76552653  1
  P  P272  1  0.30473067  0.91794663  0.01378245  1
  P  P273  1  0.30270072  0.91587093  0.26609726  1
  P  P274  1  0.30294409  0.91752159  0.51408209  1
  P  P275  1  0.30394184  0.91577806  0.76518492  1
  P  P276  1  0.80485522  0.25129717  0.01349895  1
  P  P277  1  0.80404431  0.24894134  0.26571420  1
  P  P278  1  0.80560743  0.25091200  0.51461358  1
  P  P279  1  0.80438462  0.24952881  0.76427640  1
  P  P280  1  0.80328584  0.58227503  0.01385170  1
  P  P281  1  0.80409886  0.58412492  0.26619418  1
  P  P282  1  0.80472599  0.58292389  0.51371229  1
  P  P283  1  0.80409937  0.58284982  0.76547391  1
  P  P284  1  0.80391639  0.91656353  0.01591833  1
  P  P285  1  0.80581650  0.91690777  0.26470455  1
  P  P286  1  0.80418867  0.91627807  0.51449698  1
  P  P287  1  0.80488933  0.91755568  0.76354515  1
  O  O288  1  0.05731749  0.25045586  0.18564392  1
  O  O289  1  0.05571535  0.25036407  0.43712877  1
  O  O290  1  0.05788105  0.25022747  0.68801399  1
  O  O291  1  0.05937255  0.25039475  0.93744991  1
  O  O292  1  0.05988485  0.58312730  0.18773475  1
  O  O293  1  0.05631816  0.58304590  0.43642603  1
  O  O294  1  0.05911382  0.58345614  0.68804784  1
  O  O295  1  0.05609671  0.58275974  0.93612340  1
  O  O296  1  0.05823842  0.91634645  0.18783594  1
  O  O297  1  0.05911704  0.91687418  0.43746851  1
  O  O298  1  0.05617917  0.91670467  0.68625063  1
  O  O299  1  0.05624635  0.91651576  0.93698243  1
  O  O300  1  0.55581029  0.25000552  0.18664597  1
  O  O301  1  0.55657379  0.25029116  0.43681869  1
  O  O302  1  0.55895510  0.24999860  0.68800539  1
  O  O303  1  0.55614198  0.25023070  0.93596676  1
  O  O304  1  0.55706577  0.58316648  0.18619150  1
  O  O305  1  0.55558543  0.58324447  0.43677593  1
  O  O306  1  0.55685590  0.58266199  0.68701244  1
  O  O307  1  0.55815017  0.58266909  0.93799860  1
  O  O308  1  0.55670983  0.91738518  0.18721525  1
  O  O309  1  0.55817995  0.91641906  0.43784757  1
  O  O310  1  0.55724206  0.91718430  0.68635206  1
  O  O311  1  0.55576033  0.91643897  0.93666483  1
  O  O312  1  0.44157312  0.08368049  0.06224822  1
  O  O313  1  0.44269015  0.08281942  0.31424008  1
  O  O314  1  0.44171887  0.08320036  0.56209957  1
  O  O315  1  0.44291911  0.08370700  0.81305582  1
  O  O316  1  0.43983798  0.41620434  0.06228726  1
  O  O317  1  0.44094763  0.41719381  0.31267101  1
  O  O318  1  0.44239355  0.41612019  0.56251074  1
  O  O319  1  0.44328675  0.41649849  0.81334339  1
  O  O320  1  0.44305479  0.74992350  0.06451764  1
  O  O321  1  0.44118825  0.75020418  0.31209922  1
  O  O322  1  0.44292087  0.75002851  0.56383440  1
  O  O323  1  0.44187068  0.74975245  0.81193492  1
  O  O324  1  0.94390513  0.08332323  0.06386511  1
  O  O325  1  0.94155223  0.08330967  0.31217129  1
  O  O326  1  0.94376458  0.08309651  0.56357570  1
  O  O327  1  0.94194829  0.08422969  0.81197800  1
  O  O328  1  0.94162323  0.41702141  0.06202540  1
  O  O329  1  0.94414386  0.41704697  0.31414614  1
  O  O330  1  0.94014070  0.41663576  0.56294140  1
  O  O331  1  0.94131915  0.41654995  0.81219248  1
  O  O332  1  0.94253981  0.74957464  0.06404460  1
  O  O333  1  0.94251756  0.74977841  0.31213345  1
  O  O334  1  0.94333724  0.75026040  0.56372924  1
  O  O335  1  0.94115860  0.74944610  0.81231289  1
  O  O336  1  0.19356465  0.08342467  0.06096422  1
  O  O337  1  0.19366909  0.08319922  0.31203517  1
  O  O338  1  0.19097815  0.08362091  0.56326836  1
  O  O339  1  0.19032584  0.08377410  0.81219378  1
  O  O340  1  0.19407809  0.41632117  0.06078205  1
  O  O341  1  0.19424125  0.41680117  0.31203500  1
  O  O342  1  0.19388854  0.41602994  0.56195288  1
  O  O343  1  0.19092900  0.41656401  0.81310269  1
  O  O344  1  0.19317307  0.75049619  0.06178731  1
  O  O345  1  0.19179327  0.74979698  0.31338071  1
  O  O346  1  0.19233171  0.75041507  0.56135707  1
  O  O347  1  0.19454490  0.74954333  0.81172876  1
  O  O348  1  0.69095870  0.08362423  0.06250395  1
  O  O349  1  0.69371277  0.08334527  0.31127321  1
  O  O350  1  0.69125043  0.08335312  0.56271795  1
  O  O351  1  0.69356532  0.08405325  0.81128334  1
  O  O352  1  0.69386224  0.41655809  0.06153191  1
  O  O353  1  0.69053930  0.41665782  0.31295686  1
  O  O354  1  0.69121504  0.41641623  0.56212572  1
  O  O355  1  0.69332438  0.41583653  0.81129005  1
  O  O356  1  0.69311028  0.75017639  0.06122649  1
  O  O357  1  0.69118440  0.75011412  0.31322456  1
  O  O358  1  0.69326225  0.75013893  0.56113062  1
  O  O359  1  0.69120248  0.74990809  0.81301261  1
  O  O360  1  0.30803643  0.24949393  0.18709095  1
  O  O361  1  0.30686752  0.24991681  0.43936923  1
  O  O362  1  0.30949602  0.24978075  0.68741114  1
  O  O363  1  0.30806230  0.24953820  0.93671194  1
  O  O364  1  0.30609301  0.58386362  0.18875637  1
  O  O365  1  0.30921188  0.58309275  0.43718127  1
  O  O366  1  0.30629806  0.58327528  0.68875868  1
  O  O367  1  0.30904090  0.58320144  0.93696257  1
  O  O368  1  0.30633134  0.91660778  0.18931502  1
  O  O369  1  0.30794659  0.91680816  0.43745925  1
  O  O370  1  0.30674136  0.91678404  0.68838472  1
  O  O371  1  0.30891975  0.91706919  0.93705135  1
  O  O372  1  0.80680950  0.24985989  0.18885736  1
  O  O373  1  0.80961907  0.25000445  0.43791293  1
  O  O374  1  0.80852914  0.24924589  0.68746888  1
  O  O375  1  0.80929769  0.25037664  0.93674187  1
  O  O376  1  0.80656232  0.58373917  0.18932559  1
  O  O377  1  0.80913710  0.58364896  0.43703854  1
  O  O378  1  0.80643148  0.58328506  0.68863119  1
  O  O379  1  0.80819959  0.58257237  0.93721789  1
  O  O380  1  0.80912783  0.91666217  0.18792908  1
  O  O381  1  0.80942601  0.91650024  0.43785454  1
  O  O382  1  0.80843739  0.91750889  0.68687466  1
  O  O383  1  0.80691160  0.91688614  0.93902372  1
  O  O384  1  0.23372265  0.25009593  0.03765445  1
  O  O385  1  0.23473449  0.24997954  0.28899808  1
  O  O386  1  0.23478223  0.24998786  0.54177588  1
  O  O387  1  0.23336093  0.24996736  0.78671090  1
  O  O388  1  0.23472818  0.58296308  0.03791704  1
  O  O389  1  0.23296272  0.58329062  0.29055591  1
  O  O390  1  0.23492326  0.58331829  0.53804355  1
  O  O391  1  0.23294772  0.58296150  0.79037428  1
  O  O392  1  0.23480156  0.91710789  0.03830239  1
  O  O393  1  0.23261695  0.91658866  0.29052634  1
  O  O394  1  0.23258009  0.91673961  0.53783458  1
  O  O395  1  0.23422964  0.91679671  0.79027943  1
  O  O396  1  0.73491548  0.25087690  0.03790692  1
  O  O397  1  0.73440849  0.24960496  0.29120064  1
  O  O398  1  0.73558159  0.25006015  0.53849738  1
  O  O399  1  0.73408175  0.24994522  0.78835814  1
  O  O400  1  0.73310520  0.58325859  0.03800046  1
  O  O401  1  0.73443854  0.58329708  0.29155382  1
  O  O402  1  0.73472211  0.58344867  0.53794215  1
  O  O403  1  0.73439620  0.58252256  0.79075048  1
  O  O404  1  0.73425350  0.91633362  0.04093141  1
  O  O405  1  0.73582924  0.91712446  0.28936720  1
  O  O406  1  0.73392155  0.91615126  0.53794061  1
  O  O407  1  0.73490346  0.91762262  0.78855284  1
  O  O408  1  0.26628959  0.08271739  0.20983338  1
  O  O409  1  0.26654564  0.08374702  0.46304282  1
  O  O410  1  0.26435721  0.08294386  0.71150422  1
  O  O411  1  0.26716994  0.08444089  0.95959702  1
  O  O412  1  0.26814530  0.41757427  0.21067979  1
  O  O413  1  0.26873665  0.41570453  0.46138071  1
  O  O414  1  0.26496505  0.41716290  0.71211520  1
  O  O415  1  0.26726660  0.41549923  0.95937359  1
  O  O416  1  0.26683794  0.74989796  0.21259192  1
  O  O417  1  0.26508891  0.75021525  0.45989528  1
  O  O418  1  0.26823039  0.74949825  0.70994055  1
  O  O419  1  0.26654014  0.75007497  0.96055725  1
  O  O420  1  0.76784907  0.08313942  0.21035797  1
  O  O421  1  0.76586856  0.08308276  0.46229740  1
  O  O422  1  0.76749310  0.08390052  0.71007174  1
  O  O423  1  0.76571480  0.08364095  0.96191838  1
  O  O424  1  0.76554331  0.41699782  0.21264675  1
  O  O425  1  0.76638877  0.41639071  0.46211944  1
  O  O426  1  0.76771405  0.41607529  0.71071233  1
  O  O427  1  0.76783535  0.41675853  0.96009929  1
  O  O428  1  0.76752791  0.75018655  0.21357982  1
  O  O429  1  0.76568421  0.75066684  0.45937267  1
  O  O430  1  0.76738411  0.74964228  0.71317222  1
  O  O431  1  0.76518664  0.74995107  0.95913577  1
  O  O432  1  0.01588630  0.08340251  0.16632473  1
  O  O433  1  0.01497358  0.08316182  0.41358417  1
  O  O434  1  0.01691576  0.08361666  0.66534052  1
  O  O435  1  0.01720537  0.08405018  0.91238153  1
  O  O436  1  0.01580306  0.41644307  0.16306923  1
  O  O437  1  0.01565634  0.41703277  0.41716535  1
  O  O438  1  0.01431632  0.41622763  0.66354193  1
  O  O439  1  0.01628021  0.41650069  0.91268759  1
  O  O440  1  0.01532655  0.75014362  0.16578834  1
  O  O441  1  0.01719533  0.75001546  0.41295479  1
  O  O442  1  0.01537774  0.75079687  0.66604025  1
  O  O443  1  0.01534340  0.74929900  0.91353936  1
  O  O444  1  0.51666195  0.08411509  0.16317655  1
  O  O445  1  0.51537267  0.08332497  0.41584570  1
  O  O446  1  0.51700569  0.08378450  0.66250982  1
  O  O447  1  0.51517238  0.08332912  0.91518603  1
  O  O448  1  0.51407534  0.41642603  0.16303467  1
  O  O449  1  0.51616925  0.41691813  0.41304530  1
  O  O450  1  0.51715640  0.41595372  0.66328803  1
  O  O451  1  0.51514006  0.41600895  0.91592514  1
  O  O452  1  0.51565279  0.75036750  0.16628698  1
  O  O453  1  0.51632206  0.74976478  0.41273463  1
  O  O454  1  0.51599672  0.75025677  0.66536939  1
  O  O455  1  0.51645358  0.74985132  0.91301868  1
  O  O456  1  0.48181880  0.24937176  0.08544031  1
  O  O457  1  0.48334449  0.25026594  0.33533995  1
  O  O458  1  0.48412285  0.25013406  0.58715252  1
  O  O459  1  0.48204832  0.25003210  0.83518654  1
  O  O460  1  0.48404665  0.58341715  0.08487222  1
  O  O461  1  0.48192747  0.58333926  0.33519889  1
  O  O462  1  0.48408333  0.58286387  0.58506309  1
  O  O463  1  0.48285278  0.58295087  0.83759647  1
  O  O464  1  0.48364831  0.91651553  0.08545096  1
  O  O465  1  0.48278616  0.91676991  0.33755817  1
  O  O466  1  0.48466872  0.91651267  0.58444004  1
  O  O467  1  0.48201373  0.91719479  0.83537138  1
  O  O468  1  0.98463866  0.24969513  0.08389333  1
  O  O469  1  0.98165490  0.25062663  0.33598193  1
  O  O470  1  0.98234475  0.24899797  0.58814011  1
  O  O471  1  0.98422860  0.25099128  0.83717355  1
  O  O472  1  0.98478740  0.58357816  0.08739487  1
  O  O473  1  0.98282405  0.58317947  0.33500097  1
  O  O474  1  0.98443278  0.58399853  0.58766687  1
  O  O475  1  0.98235801  0.58219176  0.83490045  1
  O  O476  1  0.98275361  0.91661803  0.08746083  1
  O  O477  1  0.98391567  0.91642702  0.33761341  1
  O  O478  1  0.98247151  0.91711578  0.58486512  1
  O  O479  1  0.98361052  0.91758413  0.83514594  1
  O  O480  1  0.08849968  0.31499195  0.07611554  1
  O  O481  1  0.08551342  0.31565823  0.32769930  1
  O  O482  1  0.08584419  0.31397527  0.57742149  1
  O  O483  1  0.08803353  0.31573805  0.82737777  1
  O  O484  1  0.08828489  0.64849578  0.07788206  1
  O  O485  1  0.08674729  0.64878482  0.32707602  1
  O  O486  1  0.08808310  0.64868207  0.57837193  1
  O  O487  1  0.08658646  0.64688440  0.82635947  1
  O  O488  1  0.08638905  0.98160294  0.07788159  1
  O  O489  1  0.08788198  0.98079233  0.32701086  1
  O  O490  1  0.08612994  0.98316177  0.57713707  1
  O  O491  1  0.08761319  0.98230136  0.82821919  1
  O  O492  1  0.58542108  0.31439722  0.07680258  1
  O  O493  1  0.58675137  0.31609486  0.32765274  1
  O  O494  1  0.58769114  0.31523768  0.57810879  1
  O  O495  1  0.58630952  0.31504745  0.82651035  1
  O  O496  1  0.58807755  0.64844090  0.07714604  1
  O  O497  1  0.58591052  0.64828403  0.32749053  1
  O  O498  1  0.58796143  0.64739346  0.57784934  1
  O  O499  1  0.58639092  0.64856474  0.82811474  1
  O  O500  1  0.58677639  0.98298601  0.07783903  1
  O  O501  1  0.58674640  0.98099409  0.32787842  1
  O  O502  1  0.58818775  0.98281381  0.57720893  1
  O  O503  1  0.58633178  0.98100181  0.82730957  1
  O  O504  1  0.41317776  0.01922982  0.17246823  1
  O  O505  1  0.41171525  0.01707643  0.42339999  1
  O  O506  1  0.41331027  0.01898761  0.67216915  1
  O  O507  1  0.41100157  0.01873401  0.92220731  1
  O  O508  1  0.41086874  0.34998414  0.17175033  1
  O  O509  1  0.41215163  0.35278006  0.42299074  1
  O  O510  1  0.41344034  0.35054893  0.67223188  1
  O  O511  1  0.41105877  0.35107210  0.92199872  1
  O  O512  1  0.41177942  0.68493547  0.17369332  1
  O  O513  1  0.41265380  0.68492881  0.42186065  1
  O  O514  1  0.41216149  0.68504977  0.67331711  1
  O  O515  1  0.41281083  0.68499231  0.92193640  1
  O  O516  1  0.91227796  0.01742472  0.17281284  1
  O  O517  1  0.91146910  0.01798301  0.42167173  1
  O  O518  1  0.91333448  0.01772352  0.67293228  1
  O  O519  1  0.91314107  0.02001039  0.92211565  1
  O  O520  1  0.91213747  0.35164242  0.17166654  1
  O  O521  1  0.91141182  0.35215595  0.42284694  1
  O  O522  1  0.91099091  0.35037598  0.67266233  1
  O  O523  1  0.91237288  0.35159899  0.92208986  1
  O  O524  1  0.91106329  0.68596431  0.17367511  1
  O  O525  1  0.91381875  0.68450334  0.42200968  1
  O  O526  1  0.91098735  0.68674291  0.67325451  1
  O  O527  1  0.91227141  0.68308414  0.92171290  1
  O  O528  1  0.16287456  0.01688358  0.20322890  1
  O  O529  1  0.16301846  0.01819087  0.45330750  1
  O  O530  1  0.15997700  0.01941262  0.70232061  1
  O  O531  1  0.16311603  0.01945024  0.95124298  1
  O  O532  1  0.16441112  0.35261194  0.20230145  1
  O  O533  1  0.16486300  0.35092718  0.45231665  1
  O  O534  1  0.16158061  0.35172589  0.70311258  1
  O  O535  1  0.16309954  0.35052098  0.95163669  1
  O  O536  1  0.16326334  0.68480593  0.20356987  1
  O  O537  1  0.16085106  0.68595781  0.45184787  1
  O  O538  1  0.16463502  0.68352437  0.70278624  1
  O  O539  1  0.16269816  0.68526628  0.95243626  1
  O  O540  1  0.66362920  0.01842229  0.20182367  1
  O  O541  1  0.66270301  0.01705336  0.45306069  1
  O  O542  1  0.66287130  0.01995163  0.70169987  1
  O  O543  1  0.66242019  0.01829985  0.95254785  1
  O  O544  1  0.66237836  0.35143133  0.20267347  1
  O  O545  1  0.66252803  0.35153903  0.45203326  1
  O  O546  1  0.66405415  0.35010924  0.70172862  1
  O  O547  1  0.66385165  0.35247750  0.95177110  1
  O  O548  1  0.66398601  0.68513751  0.20304024  1
  O  O549  1  0.66136301  0.68635325  0.45154565  1
  O  O550  1  0.66388215  0.68462310  0.70290927  1
  O  O551  1  0.66152811  0.68390129  0.95238743  1
  O  O552  1  0.33776477  0.31465129  0.04644362  1
  O  O553  1  0.33808725  0.31583708  0.29621600  1
  O  O554  1  0.33903106  0.31480286  0.54837060  1
  O  O555  1  0.33715720  0.31473156  0.79769955  1
  O  O556  1  0.33851310  0.64708331  0.04717700  1
  O  O557  1  0.33681804  0.64867056  0.29840423  1
  O  O558  1  0.33872198  0.64745608  0.54691538  1
  O  O559  1  0.33666687  0.64929449  0.79790444  1
  O  O560  1  0.33767167  0.98362810  0.04641562  1
  O  O561  1  0.33710359  0.98061925  0.29892874  1
  O  O562  1  0.33581891  0.98275559  0.54751682  1
  O  O563  1  0.33869310  0.98053260  0.79769925  1
  O  O564  1  0.83829829  0.31652411  0.04623063  1
  O  O565  1  0.83866898  0.31370313  0.29831377  1
  O  O566  1  0.83884320  0.31606663  0.54746487  1
  O  O567  1  0.83819443  0.31461854  0.79716585  1
  O  O568  1  0.83703041  0.64722617  0.04712795  1
  O  O569  1  0.83815898  0.64931610  0.29846225  1
  O  O570  1  0.83840756  0.64784539  0.54702693  1
  O  O571  1  0.83838798  0.64768465  0.79805097  1
  O  O572  1  0.83830124  0.98149746  0.04827244  1
  O  O573  1  0.83961505  0.98199228  0.29745543  1
  O  O574  1  0.83757956  0.98146197  0.54814687  1
  O  O575  1  0.83831109  0.98291864  0.79639440  1
  O  O576  1  0.41288578  0.14930925  0.17185573  1
  O  O577  1  0.41093052  0.14713804  0.42357129  1
  O  O578  1  0.41333513  0.14903717  0.67188232  1
  O  O579  1  0.41146374  0.14887929  0.92222413  1
  O  O580  1  0.40999770  0.48015040  0.17254991  1
  O  O581  1  0.41271687  0.48288391  0.42259195  1
  O  O582  1  0.41332102  0.48052146  0.67252587  1
  O  O583  1  0.41118338  0.48124190  0.92244352  1
  O  O584  1  0.41129234  0.81481820  0.17370730  1
  O  O585  1  0.41288579  0.81518503  0.42227689  1
  O  O586  1  0.41180605  0.81497974  0.67293495  1
  O  O587  1  0.41304580  0.81531722  0.92164320  1
  O  O588  1  0.91146366  0.14734880  0.17297686  1
  O  O589  1  0.91143670  0.14833345  0.42175628  1
  O  O590  1  0.91249838  0.14765479  0.67332968  1
  O  O591  1  0.91401688  0.15012243  0.92179050  1
  O  O592  1  0.91228495  0.48161207  0.17208255  1
  O  O593  1  0.91170195  0.48236339  0.42284229  1
  O  O594  1  0.91034198  0.48045800  0.67311169  1
  O  O595  1  0.91252782  0.48172274  0.92235965  1
  O  O596  1  0.91174614  0.81597948  0.17302421  1
  O  O597  1  0.91338917  0.81474082  0.42194437  1
  O  O598  1  0.91175698  0.81682389  0.67221466  1
  O  O599  1  0.91146062  0.81352280  0.92209275  1
  O  O600  1  0.08881263  0.18507783  0.07665441  1
  O  O601  1  0.08547777  0.18558389  0.32752036  1
  O  O602  1  0.08599196  0.18387684  0.57827647  1
  O  O603  1  0.08790814  0.18565097  0.82719751  1
  O  O604  1  0.08817894  0.51833281  0.07752066  1
  O  O605  1  0.08709983  0.51876956  0.32688695  1
  O  O606  1  0.08766081  0.51847678  0.57782639  1
  O  O607  1  0.08641707  0.51691537  0.82696509  1
  O  O608  1  0.08631016  0.85150817  0.07772501  1
  O  O609  1  0.08747457  0.85078484  0.32744360  1
  O  O610  1  0.08695781  0.85307368  0.57665298  1
  O  O611  1  0.08698762  0.85212485  0.82728508  1
  O  O612  1  0.58587230  0.18433497  0.07738668  1
  O  O613  1  0.58715057  0.18572009  0.32750779  1
  O  O614  1  0.58767925  0.18504260  0.57798851  1
  O  O615  1  0.58629646  0.18512622  0.82649120  1
  O  O616  1  0.58798798  0.51837290  0.07657833  1
  O  O617  1  0.58564014  0.51805375  0.32744981  1
  O  O618  1  0.58758860  0.51705275  0.57792055  1
  O  O619  1  0.58657944  0.51840175  0.82784006  1
  O  O620  1  0.58777380  0.85265048  0.07813998  1
  O  O621  1  0.58623303  0.85085681  0.32785716  1
  O  O622  1  0.58912179  0.85273225  0.57710985  1
  O  O623  1  0.58554212  0.85089446  0.82722239  1
  O  O624  1  0.33728426  0.18457123  0.04694233  1
  O  O625  1  0.33846664  0.18562577  0.29705376  1
  O  O626  1  0.33872238  0.18468129  0.54838032  1
  O  O627  1  0.33698673  0.18477912  0.79763243  1
  O  O628  1  0.33771250  0.51674556  0.04617975  1
  O  O629  1  0.33740258  0.51872702  0.29781891  1
  O  O630  1  0.33798418  0.51707953  0.54696177  1
  O  O631  1  0.33763057  0.51934912  0.79818189  1
  O  O632  1  0.33872022  0.85325051  0.04712456  1
  O  O633  1  0.33638828  0.85068349  0.29873408  1
  O  O634  1  0.33660882  0.85260981  0.54731394  1
  O  O635  1  0.33770436  0.85041371  0.79729810  1
  O  O636  1  0.83854274  0.18632079  0.04675285  1
  O  O637  1  0.83793159  0.18355387  0.29762627  1
  O  O638  1  0.83961475  0.18596746  0.54818582  1
  O  O639  1  0.83788942  0.18451309  0.79752662  1
  O  O640  1  0.83642194  0.51710748  0.04715067  1
  O  O641  1  0.83888262  0.51939114  0.29842335  1
  O  O642  1  0.83799154  0.51766079  0.54661120  1
  O  O643  1  0.83837748  0.51757717  0.79744490  1
  O  O644  1  0.83827440  0.85156032  0.04807278  1
  O  O645  1  0.83955896  0.85183571  0.29785722  1
  O  O646  1  0.83789392  0.85156981  0.54777280  1
  O  O647  1  0.83847726  0.85242686  0.79647620  1
  O  O648  1  0.16239744  0.14727428  0.20277272  1
  O  O649  1  0.16293467  0.14834372  0.45298602  1
  O  O650  1  0.16117401  0.14951157  0.70241659  1
  O  O651  1  0.16303875  0.14941861  0.95181124  1
  O  O652  1  0.16438509  0.48285134  0.20289195  1
  O  O653  1  0.16500837  0.48097453  0.45226686  1
  O  O654  1  0.16137361  0.48215614  0.70366342  1
  O  O655  1  0.16308912  0.48034994  0.95109830  1
  O  O656  1  0.16336618  0.81529149  0.20357299  1
  O  O657  1  0.16133877  0.81600976  0.45225427  1
  O  O658  1  0.16413473  0.81380016  0.70234613  1
  O  O659  1  0.16290538  0.81534016  0.95222864  1
  O  O660  1  0.66396422  0.14838785  0.20154632  1
  O  O661  1  0.66205009  0.14731240  0.45266789  1
  O  O662  1  0.66379104  0.14994103  0.70194381  1
  O  O663  1  0.66209825  0.14851990  0.95252358  1
  O  O664  1  0.66182702  0.48157317  0.20305056  1
  O  O665  1  0.66260205  0.48146877  0.45190833  1
  O  O666  1  0.66331048  0.48014141  0.70156224  1
  O  O667  1  0.66426223  0.48253592  0.95220083  1
  O  O668  1  0.66407544  0.81524548  0.20302199  1
  O  O669  1  0.66193556  0.81635374  0.45216554  1
  O  O670  1  0.66396041  0.81484388  0.70280278  1
  O  O671  1  0.66084699  0.81400146  0.95167108  1
