# generated using pymatgen
data_Na2MnFe(PO4)2
_symmetry_space_group_name_H-M   'P 1'
_cell_length_a   21.09108231
_cell_length_b   18.94457346
_cell_length_c   20.04957015
_cell_angle_alpha   90.00028371
_cell_angle_beta   89.99762110
_cell_angle_gamma   90.00014987
_symmetry_Int_Tables_number   1
_chemical_formula_structural   Na2MnFe(PO4)2
_chemical_formula_sum   'Na96 Mn48 Fe48 P96 O384'
_cell_volume   8011.03748245
_cell_formula_units_Z   48
loop_
 _symmetry_equiv_pos_site_id
 _symmetry_equiv_pos_as_xyz
  1  'x, y, z'
loop_
 _atom_site_type_symbol
 _atom_site_label
 _atom_site_symmetry_multiplicity
 _atom_site_fract_x
 _atom_site_fract_y
 _atom_site_fract_z
 _atom_site_occupancy
  Na  Na0  1  -0.00061469  -0.00099632  0.00003101  1
  Na  Na1  1  -0.00006187  -0.00084810  0.25067228  1
  Na  Na2  1  -0.00114330  -0.00020839  0.49860397  1
  Na  Na3  1  -0.00086761  -0.00021451  0.75044176  1
  Na  Na4  1  0.00217447  0.33368496  0.00078657  1
  Na  Na5  1  -0.00009612  0.33237773  0.25028776  1
  Na  Na6  1  0.00198551  0.33299978  0.50014300  1
  Na  Na7  1  0.00309263  0.33395367  0.74958629  1
  Na  Na8  1  0.00108025  0.66799053  -0.00072937  1
  Na  Na9  1  0.00151201  0.66803390  0.24954513  1
  Na  Na10  1  0.00080951  0.66725432  0.50099307  1
  Na  Na11  1  0.00057064  0.66748571  0.74971155  1
  Na  Na12  1  0.50145147  0.00033575  0.00017546  1
  Na  Na13  1  0.49902745  -0.00019993  0.24959020  1
  Na  Na14  1  0.49809350  -0.00071562  0.50032000  1
  Na  Na15  1  0.50045419  -0.00020228  0.74980642  1
  Na  Na16  1  0.50199100  0.33363448  -0.00062292  1
  Na  Na17  1  0.50249358  0.33383925  0.25021568  1
  Na  Na18  1  0.50045896  0.33304071  0.50044324  1
  Na  Na19  1  0.50176610  0.33335312  0.74983379  1
  Na  Na20  1  0.49931839  0.66731876  0.00029445  1
  Na  Na21  1  0.49997718  0.66769925  0.24907786  1
  Na  Na22  1  0.49980064  0.66747567  0.50038645  1
  Na  Na23  1  0.49909066  0.66696197  0.74986491  1
  Na  Na24  1  0.25187998  -0.00056096  0.12556658  1
  Na  Na25  1  0.25163952  -0.00010520  0.37533493  1
  Na  Na26  1  0.25001556  -0.00039767  0.62449218  1
  Na  Na27  1  0.25076692  -0.00054372  0.87396694  1
  Na  Na28  1  0.24919971  0.33247472  0.12439553  1
  Na  Na29  1  0.24843557  0.33195799  0.37578302  1
  Na  Na30  1  0.24825079  0.33286613  0.62565846  1
  Na  Na31  1  0.24762954  0.33239087  0.87396780  1
  Na  Na32  1  0.25124788  0.66787946  0.12456097  1
  Na  Na33  1  0.25126264  0.66756800  0.37512551  1
  Na  Na34  1  0.25016822  0.66689861  0.62419449  1
  Na  Na35  1  0.25050702  0.66752413  0.87611189  1
  Na  Na36  1  0.74946288  -0.00020301  0.12480516  1
  Na  Na37  1  0.74976378  -0.00022501  0.37396555  1
  Na  Na38  1  0.75187644  0.00044477  0.62577941  1
  Na  Na39  1  0.75008957  -0.00047230  0.87537790  1
  Na  Na40  1  0.74877428  0.33362035  0.12549613  1
  Na  Na41  1  0.74982184  0.33322947  0.37453157  1
  Na  Na42  1  0.74947051  0.33280578  0.62492054  1
  Na  Na43  1  0.74770371  0.33269350  0.87504159  1
  Na  Na44  1  0.74651341  0.66682076  0.12507939  1
  Na  Na45  1  0.74726754  0.66682894  0.37453594  1
  Na  Na46  1  0.75027988  0.66795982  0.62558337  1
  Na  Na47  1  0.74862439  0.66711832  0.87610947  1
  Na  Na48  1  -0.00096303  0.16651134  0.00026435  1
  Na  Na49  1  -0.00172462  0.16671076  0.25060996  1
  Na  Na50  1  -0.00025416  0.16629358  0.49981949  1
  Na  Na51  1  0.00088661  0.16579122  0.74915505  1
  Na  Na52  1  0.00156100  0.50025727  0.00004773  1
  Na  Na53  1  0.00036937  0.50015748  0.24988369  1
  Na  Na54  1  -0.00011299  0.50038739  0.50033386  1
  Na  Na55  1  0.00351837  0.49913411  0.74984953  1
  Na  Na56  1  0.00188137  0.83299689  -0.00019152  1
  Na  Na57  1  0.00267011  0.83349879  0.25019026  1
  Na  Na58  1  0.00132398  0.83339439  0.49952819  1
  Na  Na59  1  -0.00236641  0.83476298  0.75053976  1
  Na  Na60  1  0.50050368  0.16570164  -0.00000367  1
  Na  Na61  1  0.50005865  0.16508294  0.24983481  1
  Na  Na62  1  0.49841470  0.16619192  0.50023066  1
  Na  Na63  1  0.50041906  0.16572505  0.74911822  1
  Na  Na64  1  0.50116742  0.50011741  0.00039172  1
  Na  Na65  1  0.50182096  0.49952256  0.24992131  1
  Na  Na66  1  0.49998763  0.50069864  0.50103051  1
  Na  Na67  1  0.50085538  0.50000693  0.74942732  1
  Na  Na68  1  0.50068691  0.83335244  -0.00052464  1
  Na  Na69  1  0.50067164  0.83332160  0.24924203  1
  Na  Na70  1  0.49960425  0.83389673  0.49985254  1
  Na  Na71  1  0.50045402  0.83349042  0.75120492  1
  Na  Na72  1  0.25163700  0.16530726  0.12479588  1
  Na  Na73  1  0.25060763  0.16587755  0.37613380  1
  Na  Na74  1  0.24842496  0.16675183  0.62506026  1
  Na  Na75  1  0.24900574  0.16659043  0.87414470  1
  Na  Na76  1  0.25033422  0.50073827  0.12414925  1
  Na  Na77  1  0.25186965  0.49940238  0.37582630  1
  Na  Na78  1  0.24824116  0.50100591  0.62467308  1
  Na  Na79  1  0.24938560  0.50039734  0.87491361  1
  Na  Na80  1  0.25089779  0.83316187  0.12544705  1
  Na  Na81  1  0.24905779  0.83456350  0.37429616  1
  Na  Na82  1  0.25090549  0.83297989  0.62480330  1
  Na  Na83  1  0.25023192  0.83341887  0.87489649  1
  Na  Na84  1  0.74920218  0.16587036  0.12525078  1
  Na  Na85  1  0.75138508  0.16533846  0.37469946  1
  Na  Na86  1  0.75137663  0.16545198  0.62485027  1
  Na  Na87  1  0.74908460  0.16609951  0.87582101  1
  Na  Na88  1  0.74808433  0.50009699  0.12516183  1
  Na  Na89  1  0.74762428  0.50064374  0.37455485  1
  Na  Na90  1  0.74841916  0.50040012  0.62564821  1
  Na  Na91  1  0.74859576  0.50019682  0.87540755  1
  Na  Na92  1  0.74748678  0.83412812  0.12492532  1
  Na  Na93  1  0.74775600  0.83454917  0.37380444  1
  Na  Na94  1  0.75171972  0.83318623  0.62585117  1
  Na  Na95  1  0.74895040  0.83421604  0.87520061  1
  Mn  Mn96  1  0.60772122  0.41628110  0.62288374  1
  Mn  Mn97  1  0.85715478  0.08320377  0.00255776  1
  Mn  Mn98  1  0.10840684  0.41733286  0.12317861  1
  Mn  Mn99  1  0.39315548  0.91657189  0.87749876  1
  Mn  Mn100  1  0.85696750  0.75029390  0.25174289  1
  Mn  Mn101  1  0.85787145  0.41674358  0.75273147  1
  Mn  Mn102  1  0.89264598  0.58334746  0.87679924  1
  Mn  Mn103  1  0.85778206  0.41690851  0.00185614  1
  Mn  Mn104  1  0.89243114  0.25052228  0.87678102  1
  Mn  Mn105  1  0.35802971  0.75065629  0.50173831  1
  Mn  Mn106  1  0.14234231  0.24868440  0.99765849  1
  Mn  Mn107  1  0.89203187  0.24952535  0.12754733  1
  Mn  Mn108  1  0.39277396  0.58320610  0.12759377  1
  Mn  Mn109  1  0.14315953  0.58334222  0.24784380  1
  Mn  Mn110  1  0.14229899  0.58377730  0.49690087  1
  Mn  Mn111  1  0.64144887  0.24932599  0.99757000  1
  Mn  Mn112  1  0.10828080  0.08238581  0.12331970  1
  Mn  Mn113  1  0.14282102  0.58415356  0.99734750  1
  Mn  Mn114  1  0.89231603  0.58345450  0.62791375  1
  Mn  Mn115  1  0.89147684  0.58336412  0.37677966  1
  Mn  Mn116  1  0.60775168  0.08299380  0.62266678  1
  Mn  Mn117  1  0.35685494  0.41710791  0.75245316  1
  Mn  Mn118  1  0.39174883  0.58333491  0.62812329  1
  Mn  Mn119  1  0.35860508  0.41637264  0.25254741  1
  Mn  Mn120  1  0.85723023  0.74991060  0.00244773  1
  Mn  Mn121  1  0.35713444  0.08315188  0.75203237  1
  Mn  Mn122  1  0.64220768  0.24909749  0.49753181  1
  Mn  Mn123  1  0.14184108  0.91630671  0.74727296  1
  Mn  Mn124  1  0.85688905  0.41682210  0.25231864  1
  Mn  Mn125  1  0.10810625  0.41718430  0.37217338  1
  Mn  Mn126  1  0.64156240  0.58369860  0.49749250  1
  Mn  Mn127  1  0.39235705  0.24995454  0.12736444  1
  Mn  Mn128  1  0.89233128  0.91625594  0.37666259  1
  Mn  Mn129  1  0.64215344  0.24954326  0.24817426  1
  Mn  Mn130  1  0.85778570  0.75047525  0.50126866  1
  Mn  Mn131  1  0.39263016  0.25032624  0.87654813  1
  Mn  Mn132  1  0.10785630  0.08291231  0.37250431  1
  Mn  Mn133  1  0.89209384  0.58440393  0.12757582  1
  Mn  Mn134  1  0.35827227  0.41621733  0.00153281  1
  Mn  Mn135  1  0.10772335  0.08288741  0.87303834  1
  Mn  Mn136  1  0.64118636  0.58402267  0.99704040  1
  Mn  Mn137  1  0.89302043  0.25004455  0.62755204  1
  Mn  Mn138  1  0.85761170  0.41661402  0.50232864  1
  Mn  Mn139  1  0.39222041  0.25024999  0.37737926  1
  Mn  Mn140  1  0.64200597  0.91727016  0.49816791  1
  Mn  Mn141  1  0.35789259  0.41549108  0.50231204  1
  Mn  Mn142  1  0.60770357  0.75058048  0.62348395  1
  Mn  Mn143  1  0.10760118  0.75082189  0.62322874  1
  Fe  Fe144  1  0.39209619  0.91669198  0.62697393  1
  Fe  Fe145  1  0.14210655  0.24991680  0.74772489  1
  Fe  Fe146  1  0.10820299  0.41728238  0.87315235  1
  Fe  Fe147  1  0.60676781  0.08291570  0.12344137  1
  Fe  Fe148  1  0.64240325  0.91680202  0.99818712  1
  Fe  Fe149  1  0.35699976  0.08340985  0.50183396  1
  Fe  Fe150  1  0.35726567  0.74972089  0.75213898  1
  Fe  Fe151  1  0.35769877  0.75055007  0.25182970  1
  Fe  Fe152  1  0.14347703  0.91693701  0.99879234  1
  Fe  Fe153  1  0.60609895  0.75071477  0.12305089  1
  Fe  Fe154  1  0.60686223  0.08285168  0.37325423  1
  Fe  Fe155  1  0.39293585  0.91624027  0.37640334  1
  Fe  Fe156  1  0.89261491  0.91620653  0.87741244  1
  Fe  Fe157  1  0.10770844  0.41637609  0.62271004  1
  Fe  Fe158  1  0.89274826  0.91671935  0.62641176  1
  Fe  Fe159  1  0.39375988  0.58365717  0.37587978  1
  Fe  Fe160  1  0.60756288  0.08324300  0.87251303  1
  Fe  Fe161  1  0.14410031  0.91713272  0.24785403  1
  Fe  Fe162  1  0.60678420  0.75061634  0.37305359  1
  Fe  Fe163  1  0.85738573  0.08319903  0.75177830  1
  Fe  Fe164  1  0.60664588  0.74989644  0.87266561  1
  Fe  Fe165  1  0.64150816  0.91698283  0.24771000  1
  Fe  Fe166  1  0.39202620  0.24967981  0.62716276  1
  Fe  Fe167  1  0.14290022  0.91719977  0.49852776  1
  Fe  Fe168  1  0.64389011  0.91689993  0.74811092  1
  Fe  Fe169  1  0.89288496  0.25032491  0.37698475  1
  Fe  Fe170  1  0.14266969  0.24910102  0.24888541  1
  Fe  Fe171  1  0.60732185  0.41668580  0.37370102  1
  Fe  Fe172  1  0.14309779  0.58372306  0.74875534  1
  Fe  Fe173  1  0.64261047  0.24930874  0.74805284  1
  Fe  Fe174  1  0.89294260  0.91621026  0.12676696  1
  Fe  Fe175  1  0.60752719  0.41640290  0.12289075  1
  Fe  Fe176  1  0.10664481  0.08285339  0.62281530  1
  Fe  Fe177  1  0.64110965  0.58408883  0.24845411  1
  Fe  Fe178  1  0.85694089  0.75018187  0.75240606  1
  Fe  Fe179  1  0.85745625  0.08309071  0.50143737  1
  Fe  Fe180  1  0.10831227  0.75046895  0.12335070  1
  Fe  Fe181  1  0.35742140  0.75105837  0.00152189  1
  Fe  Fe182  1  0.64222445  0.58382187  0.74893660  1
  Fe  Fe183  1  0.35834181  0.08257381  0.00114238  1
  Fe  Fe184  1  0.14298991  0.24903517  0.49820081  1
  Fe  Fe185  1  0.85649232  0.08288137  0.25132189  1
  Fe  Fe186  1  0.10820568  0.74966878  0.37282783  1
  Fe  Fe187  1  0.60744953  0.41683707  0.87271393  1
  Fe  Fe188  1  0.39305793  0.91676104  0.12633366  1
  Fe  Fe189  1  0.39290188  0.58311700  0.87580378  1
  Fe  Fe190  1  0.10775898  0.74995483  0.87276721  1
  Fe  Fe191  1  0.35780201  0.08310843  0.25193410  1
  P  P192  1  0.05477555  0.24900356  0.11142558  1
  P  P193  1  0.05410225  0.24931225  0.36062202  1
  P  P194  1  0.05565377  0.24925612  0.61040672  1
  P  P195  1  0.05418313  0.25009082  0.85931192  1
  P  P196  1  0.05395807  0.58493335  0.10977480  1
  P  P197  1  0.05319081  0.58437113  0.35963918  1
  P  P198  1  0.05506881  0.58311647  0.61123394  1
  P  P199  1  0.05453162  0.58427006  0.85952985  1
  P  P200  1  0.05480584  0.91623016  0.11065537  1
  P  P201  1  0.05593154  0.91611857  0.36041229  1
  P  P202  1  0.05254386  0.91769977  0.60933407  1
  P  P203  1  0.05377578  0.91587588  0.86134062  1
  P  P204  1  0.55347294  0.24912373  0.11034388  1
  P  P205  1  0.55310305  0.24897601  0.36037791  1
  P  P206  1  0.55316413  0.24916370  0.61086230  1
  P  P207  1  0.55406487  0.24922786  0.85895760  1
  P  P208  1  0.55455059  0.58405023  0.11123461  1
  P  P209  1  0.55270522  0.58401481  0.35974913  1
  P  P210  1  0.55429416  0.58405387  0.61137374  1
  P  P211  1  0.55257668  0.58404512  0.85937853  1
  P  P212  1  0.55380644  0.91686809  0.11065498  1
  P  P213  1  0.55270100  0.91727573  0.35962641  1
  P  P214  1  0.55303786  0.91666239  0.61132859  1
  P  P215  1  0.55564772  0.91676717  0.86068427  1
  P  P216  1  0.44580209  0.08214581  0.13906827  1
  P  P217  1  0.44550726  0.08217723  0.38935796  1
  P  P218  1  0.44469861  0.08311446  0.63873709  1
  P  P219  1  0.44767504  0.08307067  0.88998122  1
  P  P220  1  0.44842549  0.41634960  0.13989861  1
  P  P221  1  0.44827289  0.41750213  0.39006871  1
  P  P222  1  0.44613285  0.41542316  0.64034133  1
  P  P223  1  0.44822947  0.41745328  0.88925651  1
  P  P224  1  0.44550134  0.75149337  0.13890421  1
  P  P225  1  0.44671492  0.75057960  0.38817792  1
  P  P226  1  0.44556209  0.75136279  0.64100098  1
  P  P227  1  0.44583932  0.74934944  0.88924983  1
  P  P228  1  0.94590082  0.08158819  0.14077498  1
  P  P229  1  0.94450693  0.08371896  0.38889005  1
  P  P230  1  0.94586637  0.08237772  0.63904674  1
  P  P231  1  0.94508818  0.08261981  0.88891833  1
  P  P232  1  0.94679400  0.41689866  0.14028518  1
  P  P233  1  0.94660482  0.41594219  0.39004719  1
  P  P234  1  0.94823693  0.41638270  0.64016805  1
  P  P235  1  0.94873419  0.41677774  0.88996299  1
  P  P236  1  0.94800619  0.75159895  0.13981685  1
  P  P237  1  0.94823281  0.75021004  0.38960844  1
  P  P238  1  0.94563992  0.75126085  0.64055121  1
  P  P239  1  0.94638054  0.75068524  0.88890663  1
  P  P240  1  0.19836323  0.08285637  0.23547061  1
  P  P241  1  0.19627146  0.08281133  0.48643103  1
  P  P242  1  0.19530895  0.08322923  0.73397595  1
  P  P243  1  0.19858466  0.08139677  0.98514400  1
  P  P244  1  0.19767963  0.41592188  0.23499577  1
  P  P245  1  0.19553522  0.41555128  0.48610052  1
  P  P246  1  0.19443751  0.41736381  0.73553206  1
  P  P247  1  0.19645169  0.41662616  0.98414131  1
  P  P248  1  0.19680890  0.75084450  0.23561807  1
  P  P249  1  0.19603817  0.75147920  0.48438650  1
  P  P250  1  0.19696462  0.74928761  0.73607282  1
  P  P251  1  0.19619928  0.75165368  0.98573249  1
  P  P252  1  0.69515826  0.08234505  0.23559147  1
  P  P253  1  0.69738908  0.08280948  0.48424535  1
  P  P254  1  0.69664611  0.08283512  0.73627518  1
  P  P255  1  0.69426939  0.08197387  0.98570129  1
  P  P256  1  0.69386618  0.41735393  0.23575812  1
  P  P257  1  0.69591301  0.41630880  0.48428040  1
  P  P258  1  0.69509208  0.41657372  0.73629435  1
  P  P259  1  0.69445091  0.41667746  0.98512904  1
  P  P260  1  0.69344834  0.75075763  0.23546425  1
  P  P261  1  0.69572078  0.75097715  0.48422684  1
  P  P262  1  0.69633437  0.75065735  0.73687910  1
  P  P263  1  0.69394439  0.75151573  0.98557049  1
  P  P264  1  0.30378957  0.24887973  0.01439655  1
  P  P265  1  0.30231867  0.24904307  0.26517173  1
  P  P266  1  0.30294064  0.24891494  0.51582770  1
  P  P267  1  0.30255082  0.24996581  0.76368444  1
  P  P268  1  0.30542297  0.58437482  0.01345653  1
  P  P269  1  0.30466277  0.58445081  0.26557316  1
  P  P270  1  0.30510782  0.58342614  0.51361186  1
  P  P271  1  0.30260080  0.58422311  0.76576085  1
  P  P272  1  0.30375901  0.91642984  0.01497715  1
  P  P273  1  0.30505866  0.91641518  0.26406849  1
  P  P274  1  0.30425041  0.91730838  0.51401742  1
  P  P275  1  0.30450472  0.91576743  0.76402684  1
  P  P276  1  0.80282234  0.25015262  0.01518653  1
  P  P277  1  0.80383973  0.24889786  0.26551877  1
  P  P278  1  0.80465346  0.24900685  0.51395956  1
  P  P279  1  0.80214811  0.24914680  0.76499517  1
  P  P280  1  0.80272762  0.58359070  0.01526732  1
  P  P281  1  0.80081278  0.58411299  0.26472106  1
  P  P282  1  0.80277081  0.58374714  0.51536854  1
  P  P283  1  0.80178261  0.58412823  0.76544130  1
  P  P284  1  0.80357601  0.91626620  0.01481342  1
  P  P285  1  0.80276957  0.91700966  0.26318493  1
  P  P286  1  0.80390295  0.91744905  0.51529598  1
  P  P287  1  0.80481898  0.91690620  0.76459000  1
  O  O288  1  0.05937377  0.24851360  0.18817824  1
  O  O289  1  0.05921749  0.24872384  0.43728341  1
  O  O290  1  0.05936881  0.24919244  0.68721364  1
  O  O291  1  0.05681252  0.24892411  0.93616595  1
  O  O292  1  0.05717081  0.58430993  0.18657531  1
  O  O293  1  0.05621446  0.58379564  0.43638038  1
  O  O294  1  0.05936821  0.58399723  0.68795793  1
  O  O295  1  0.05721743  0.58456217  0.93609833  1
  O  O296  1  0.06003816  0.91721087  0.18732060  1
  O  O297  1  0.05986806  0.91741493  0.43712290  1
  O  O298  1  0.05594037  0.91715379  0.68608920  1
  O  O299  1  0.05891243  0.91666410  0.93791063  1
  O  O300  1  0.55626903  0.24880349  0.18696359  1
  O  O301  1  0.55557437  0.24864291  0.43719111  1
  O  O302  1  0.55867577  0.24874534  0.68745652  1
  O  O303  1  0.55645955  0.24906364  0.93585546  1
  O  O304  1  0.55790316  0.58411554  0.18792936  1
  O  O305  1  0.55543253  0.58429834  0.43655696  1
  O  O306  1  0.55908251  0.58426300  0.68805459  1
  O  O307  1  0.55561460  0.58422670  0.93624852  1
  O  O308  1  0.55776082  0.91710141  0.18735587  1
  O  O309  1  0.55594327  0.91745925  0.43634900  1
  O  O310  1  0.55875582  0.91685959  0.68787296  1
  O  O311  1  0.55890757  0.91683488  0.93756797  1
  O  O312  1  0.44134858  0.08263358  0.06238950  1
  O  O313  1  0.44095486  0.08310825  0.31261074  1
  O  O314  1  0.44064335  0.08317859  0.56196676  1
  O  O315  1  0.44322162  0.08274969  0.81328795  1
  O  O316  1  0.44430344  0.41631928  0.06320635  1
  O  O317  1  0.44474015  0.41649698  0.31337240  1
  O  O318  1  0.44316739  0.41596571  0.56354405  1
  O  O319  1  0.44388658  0.41683647  0.81265674  1
  O  O320  1  0.44114239  0.75114418  0.06218991  1
  O  O321  1  0.44235140  0.75076029  0.31155104  1
  O  O322  1  0.44288338  0.75087050  0.56406174  1
  O  O323  1  0.44108605  0.75010022  0.81260072  1
  O  O324  1  0.94292648  0.08234570  0.06395413  1
  O  O325  1  0.94019521  0.08261640  0.31222376  1
  O  O326  1  0.94146130  0.08308034  0.56235258  1
  O  O327  1  0.94106907  0.08333632  0.81218053  1
  O  O328  1  0.94382217  0.41685222  0.06351590  1
  O  O329  1  0.94307375  0.41647019  0.31327278  1
  O  O330  1  0.94382710  0.41625155  0.56354283  1
  O  O331  1  0.94443840  0.41667215  0.81325887  1
  O  O332  1  0.94387062  0.75111578  0.06318597  1
  O  O333  1  0.94374471  0.75057621  0.31295147  1
  O  O334  1  0.94296604  0.75034247  0.56380595  1
  O  O335  1  0.94090250  0.75016481  0.81227928  1
  O  O336  1  0.19489876  0.08180140  0.06177836  1
  O  O337  1  0.19454357  0.08278650  0.31226261  1
  O  O338  1  0.19139184  0.08235772  0.56296228  1
  O  O339  1  0.19256542  0.08234347  0.81087463  1
  O  O340  1  0.19361997  0.41696882  0.06096062  1
  O  O341  1  0.19470546  0.41674531  0.31181869  1
  O  O342  1  0.19152650  0.41657355  0.56286271  1
  O  O343  1  0.19093312  0.41709450  0.81235907  1
  O  O344  1  0.19184484  0.75071723  0.06248672  1
  O  O345  1  0.19219714  0.75006312  0.31225172  1
  O  O346  1  0.19295123  0.75068173  0.56117067  1
  O  O347  1  0.19227134  0.75031480  0.81271205  1
  O  O348  1  0.69008327  0.08270492  0.06243849  1
  O  O349  1  0.69053219  0.08264221  0.31225303  1
  O  O350  1  0.69342654  0.08281902  0.56098775  1
  O  O351  1  0.69208064  0.08295853  0.81293081  1
  O  O352  1  0.69017862  0.41663177  0.06193782  1
  O  O353  1  0.68972597  0.41664035  0.31256389  1
  O  O354  1  0.69285603  0.41614260  0.56110196  1
  O  O355  1  0.69091832  0.41676894  0.81309097  1
  O  O356  1  0.68960690  0.75085845  0.06228384  1
  O  O357  1  0.68953130  0.75085430  0.31225832  1
  O  O358  1  0.69296858  0.75114399  0.56103747  1
  O  O359  1  0.69150624  0.75031276  0.81353576  1
  O  O360  1  0.30621225  0.24971009  0.18848448  1
  O  O361  1  0.30696478  0.24968700  0.43908524  1
  O  O362  1  0.30761260  0.24998395  0.68710221  1
  O  O363  1  0.30673035  0.24973803  0.93759656  1
  O  O364  1  0.30734680  0.58384681  0.18871455  1
  O  O365  1  0.31032513  0.58339076  0.43693523  1
  O  O366  1  0.30588155  0.58359554  0.68898803  1
  O  O367  1  0.30960112  0.58337905  0.93666911  1
  O  O368  1  0.30951450  0.91625707  0.18738481  1
  O  O369  1  0.30897371  0.91643519  0.43735439  1
  O  O370  1  0.30831752  0.91635451  0.68711853  1
  O  O371  1  0.30713264  0.91637138  0.93859573  1
  O  O372  1  0.80639644  0.24972126  0.18866259  1
  O  O373  1  0.80869986  0.24996216  0.43727176  1
  O  O374  1  0.80640526  0.24973172  0.68828203  1
  O  O375  1  0.80623968  0.25016997  0.93846253  1
  O  O376  1  0.80507468  0.58434242  0.18804849  1
  O  O377  1  0.80572920  0.58365541  0.43855745  1
  O  O378  1  0.80583980  0.58362614  0.68874662  1
  O  O379  1  0.80664663  0.58371140  0.93856186  1
  O  O380  1  0.80781902  0.91605981  0.18660752  1
  O  O381  1  0.80653416  0.91654387  0.43850840  1
  O  O382  1  0.80920684  0.91683399  0.68791286  1
  O  O383  1  0.80859875  0.91607245  0.93814289  1
  O  O384  1  0.23418519  0.24880831  0.03973077  1
  O  O385  1  0.23237935  0.24882768  0.29005630  1
  O  O386  1  0.23271966  0.24927686  0.53969154  1
  O  O387  1  0.23208566  0.24980397  0.78693485  1
  O  O388  1  0.23554185  0.58461589  0.03777365  1
  O  O389  1  0.23507732  0.58374966  0.29093050  1
  O  O390  1  0.23496709  0.58404024  0.53705894  1
  O  O391  1  0.23268489  0.58394179  0.79052767  1
  O  O392  1  0.23379919  0.91618272  0.04016702  1
  O  O393  1  0.23464877  0.91687331  0.28777824  1
  O  O394  1  0.23386638  0.91678982  0.53773098  1
  O  O395  1  0.23451095  0.91647285  0.78819420  1
  O  O396  1  0.73306205  0.24960548  0.04011844  1
  O  O397  1  0.73413387  0.24916427  0.29059847  1
  O  O398  1  0.73472124  0.24899757  0.53851619  1
  O  O399  1  0.73202531  0.24919973  0.78923054  1
  O  O400  1  0.73272465  0.58384662  0.03941564  1
  O  O401  1  0.73063513  0.58409176  0.28877487  1
  O  O402  1  0.73314039  0.58396581  0.54058327  1
  O  O403  1  0.73167945  0.58386893  0.78990681  1
  O  O404  1  0.73303012  0.91677444  0.03789148  1
  O  O405  1  0.73233749  0.91702980  0.28669483  1
  O  O406  1  0.73432853  0.91708694  0.54085426  1
  O  O407  1  0.73439570  0.91691971  0.78835123  1
  O  O408  1  0.26845592  0.08236765  0.21110529  1
  O  O409  1  0.26660227  0.08301195  0.46257161  1
  O  O410  1  0.26505650  0.08279584  0.70918293  1
  O  O411  1  0.26845868  0.08214850  0.96003546  1
  O  O412  1  0.26722024  0.41655532  0.20935892  1
  O  O413  1  0.26550939  0.41535335  0.46172661  1
  O  O414  1  0.26440628  0.41724383  0.71095706  1
  O  O415  1  0.26613961  0.41615260  0.95889032  1
  O  O416  1  0.26723953  0.75065812  0.21203887  1
  O  O417  1  0.26592399  0.75122005  0.45963872  1
  O  O418  1  0.26711162  0.74959397  0.71186515  1
  O  O419  1  0.26663781  0.75117776  0.96219309  1
  O  O420  1  0.76551386  0.08282460  0.21183830  1
  O  O421  1  0.76748012  0.08256121  0.46011286  1
  O  O422  1  0.76694015  0.08264531  0.71233833  1
  O  O423  1  0.76435543  0.08250972  0.96183152  1
  O  O424  1  0.76396609  0.41656380  0.21169006  1
  O  O425  1  0.76553460  0.41668993  0.45922351  1
  O  O426  1  0.76503346  0.41653682  0.71171633  1
  O  O427  1  0.76442663  0.41659856  0.96103677  1
  O  O428  1  0.76345203  0.75085494  0.21102338  1
  O  O429  1  0.76528687  0.75093714  0.45878925  1
  O  O430  1  0.76666501  0.75099782  0.71306683  1
  O  O431  1  0.76403565  0.75073550  0.96171357  1
  O  O432  1  0.01559507  0.08236673  0.16589184  1
  O  O433  1  0.01476403  0.08307654  0.41266503  1
  O  O434  1  0.01622982  0.08297777  0.66279003  1
  O  O435  1  0.01506461  0.08266534  0.91348809  1
  O  O436  1  0.01646005  0.41653378  0.16549349  1
  O  O437  1  0.01633653  0.41637053  0.41494404  1
  O  O438  1  0.01850516  0.41617635  0.66380486  1
  O  O439  1  0.01889508  0.41712744  0.91404490  1
  O  O440  1  0.01814306  0.75135176  0.16405065  1
  O  O441  1  0.01829697  0.75048464  0.41390027  1
  O  O442  1  0.01542071  0.75127645  0.66560386  1
  O  O443  1  0.01684895  0.75033242  0.91208231  1
  O  O444  1  0.51619270  0.08230388  0.16273103  1
  O  O445  1  0.51585399  0.08257936  0.41314007  1
  O  O446  1  0.51466159  0.08282560  0.66306267  1
  O  O447  1  0.51798399  0.08293543  0.91359128  1
  O  O448  1  0.51853743  0.41652578  0.16402022  1
  O  O449  1  0.51822151  0.41705698  0.41498591  1
  O  O450  1  0.51583131  0.41616704  0.66524179  1
  O  O451  1  0.51841194  0.41716647  0.91343412  1
  O  O452  1  0.51590222  0.75081398  0.16239484  1
  O  O453  1  0.51687914  0.75093349  0.41261549  1
  O  O454  1  0.51521553  0.75065652  0.66606578  1
  O  O455  1  0.51633304  0.75020825  0.91262133  1
  O  O456  1  0.48399976  0.24941773  0.08448968  1
  O  O457  1  0.48361268  0.24929170  0.33450118  1
  O  O458  1  0.48281340  0.24937061  0.58746457  1
  O  O459  1  0.48442067  0.24934603  0.83355768  1
  O  O460  1  0.48474453  0.58411703  0.08631241  1
  O  O461  1  0.48284674  0.58386488  0.33436117  1
  O  O462  1  0.48418460  0.58404834  0.58768754  1
  O  O463  1  0.48257717  0.58385310  0.83455143  1
  O  O464  1  0.48356632  0.91687963  0.08640255  1
  O  O465  1  0.48265444  0.91689536  0.33488638  1
  O  O466  1  0.48268415  0.91664844  0.58787144  1
  O  O467  1  0.48575373  0.91679727  0.83634688  1
  O  O468  1  0.98473949  0.24940119  0.08738716  1
  O  O469  1  0.98367165  0.24936434  0.33740193  1
  O  O470  1  0.98561342  0.24931815  0.58621177  1
  O  O471  1  0.98463508  0.24974415  0.83368443  1
  O  O472  1  0.98437871  0.58451308  0.08436847  1
  O  O473  1  0.98364740  0.58413700  0.33409822  1
  O  O474  1  0.98502729  0.58373252  0.58708980  1
  O  O475  1  0.98486899  0.58383357  0.83393574  1
  O  O476  1  0.98441874  0.91634325  0.08719061  1
  O  O477  1  0.98579262  0.91648156  0.33644609  1
  O  O478  1  0.98255836  0.91675783  0.58468401  1
  O  O479  1  0.98344664  0.91642604  0.83768078  1
  O  O480  1  0.08861653  0.31396523  0.07868960  1
  O  O481  1  0.08756129  0.31421688  0.32732609  1
  O  O482  1  0.08946712  0.31427852  0.57762201  1
  O  O483  1  0.08848586  0.31532215  0.82763389  1
  O  O484  1  0.08789506  0.65029206  0.07775083  1
  O  O485  1  0.08755339  0.64947500  0.32763554  1
  O  O486  1  0.08878621  0.64807668  0.57808045  1
  O  O487  1  0.08863368  0.64948845  0.82699955  1
  O  O488  1  0.08814714  0.98109727  0.07672484  1
  O  O489  1  0.08962887  0.98094185  0.32671481  1
  O  O490  1  0.08616615  0.98286062  0.57656185  1
  O  O491  1  0.08714900  0.98073328  0.82763184  1
  O  O492  1  0.58788766  0.31414508  0.07821499  1
  O  O493  1  0.58758178  0.31406582  0.32867366  1
  O  O494  1  0.58661210  0.31418307  0.57775977  1
  O  O495  1  0.58844314  0.31426848  0.82699256  1
  O  O496  1  0.58798236  0.64931200  0.07837823  1
  O  O497  1  0.58662367  0.64907396  0.32712897  1
  O  O498  1  0.58748292  0.64912699  0.57809480  1
  O  O499  1  0.58649310  0.64921859  0.82687959  1
  O  O500  1  0.58753722  0.98174745  0.07752931  1
  O  O501  1  0.58644630  0.98238850  0.32676017  1
  O  O502  1  0.58610680  0.98158601  0.57749352  1
  O  O503  1  0.58950702  0.98168632  0.82760194  1
  O  O504  1  0.41250181  0.01703507  0.17219057  1
  O  O505  1  0.41218921  0.01687732  0.42210333  1
  O  O506  1  0.41108995  0.01801175  0.67165046  1
  O  O507  1  0.41404499  0.01826301  0.92328654  1
  O  O508  1  0.41494299  0.35131604  0.17292821  1
  O  O509  1  0.41424220  0.35244219  0.42278646  1
  O  O510  1  0.41243095  0.35016435  0.67259944  1
  O  O511  1  0.41473575  0.35229437  0.92225326  1
  O  O512  1  0.41179000  0.68681716  0.17244704  1
  O  O513  1  0.41349599  0.68549356  0.42137894  1
  O  O514  1  0.41090172  0.68655596  0.67341730  1
  O  O515  1  0.41284259  0.68413509  0.92234371  1
  O  O516  1  0.91205361  0.01613687  0.17277561  1
  O  O517  1  0.91077311  0.01891512  0.42235349  1
  O  O518  1  0.91269442  0.01710770  0.67207507  1
  O  O519  1  0.91149942  0.01738068  0.92157047  1
  O  O520  1  0.91240730  0.35197694  0.17260718  1
  O  O521  1  0.91297927  0.35058642  0.42240854  1
  O  O522  1  0.91471601  0.35137831  0.67328459  1
  O  O523  1  0.91526449  0.35161719  0.92279737  1
  O  O524  1  0.91405289  0.68668184  0.17278745  1
  O  O525  1  0.91449274  0.68520922  0.42240423  1
  O  O526  1  0.91136070  0.68647468  0.67354236  1
  O  O527  1  0.91314596  0.68572767  0.92250574  1
  O  O528  1  0.16456732  0.01782006  0.20269453  1
  O  O529  1  0.16320285  0.01786322  0.45267788  1
  O  O530  1  0.16094521  0.01843575  0.70124971  1
  O  O531  1  0.16494316  0.01615099  0.95255943  1
  O  O532  1  0.16363263  0.35056997  0.20335710  1
  O  O533  1  0.16190663  0.35022597  0.45380704  1
  O  O534  1  0.16056768  0.35237071  0.70265401  1
  O  O535  1  0.16181084  0.35173575  0.95208747  1
  O  O536  1  0.16339124  0.68609150  0.20179134  1
  O  O537  1  0.16193786  0.68666014  0.45141283  1
  O  O538  1  0.16366542  0.68412990  0.70315440  1
  O  O539  1  0.16253905  0.68707263  0.95198522  1
  O  O540  1  0.66176461  0.01736670  0.20216696  1
  O  O541  1  0.66330339  0.01792713  0.45148902  1
  O  O542  1  0.66336900  0.01760093  0.70305170  1
  O  O543  1  0.66108580  0.01675032  0.95268933  1
  O  O544  1  0.66005047  0.35241511  0.20258765  1
  O  O545  1  0.66178593  0.35129761  0.45183847  1
  O  O546  1  0.66163918  0.35124112  0.70350549  1
  O  O547  1  0.66054010  0.35180185  0.95215390  1
  O  O548  1  0.65969215  0.68570622  0.20263590  1
  O  O549  1  0.66114348  0.68607813  0.45199911  1
  O  O550  1  0.66314285  0.68569353  0.70345132  1
  O  O551  1  0.65985550  0.68684027  0.95209475  1
  O  O552  1  0.33777062  0.31396037  0.04706880  1
  O  O553  1  0.33601813  0.31415303  0.29810055  1
  O  O554  1  0.33689507  0.31367953  0.54900316  1
  O  O555  1  0.33558087  0.31497663  0.79728857  1
  O  O556  1  0.33900863  0.64970065  0.04589725  1
  O  O557  1  0.33860104  0.64990239  0.29744672  1
  O  O558  1  0.33854872  0.64853528  0.54675993  1
  O  O559  1  0.33678847  0.64914995  0.79818398  1
  O  O560  1  0.33788346  0.98145432  0.04774324  1
  O  O561  1  0.33868591  0.98124334  0.29737428  1
  O  O562  1  0.33746871  0.98243048  0.54715094  1
  O  O563  1  0.33840161  0.98058163  0.79702698  1
  O  O564  1  0.83651982  0.31528633  0.04767226  1
  O  O565  1  0.83826484  0.31370491  0.29816774  1
  O  O566  1  0.83820271  0.31386713  0.54752970  1
  O  O567  1  0.83571995  0.31428102  0.79800321  1
  O  O568  1  0.83636208  0.64874464  0.04803240  1
  O  O569  1  0.83442904  0.64913786  0.29765267  1
  O  O570  1  0.83699045  0.64889966  0.54740725  1
  O  O571  1  0.83541682  0.64926278  0.79808666  1
  O  O572  1  0.83719450  0.98104080  0.04818039  1
  O  O573  1  0.83613491  0.98207505  0.29629221  1
  O  O574  1  0.83808897  0.98271112  0.54729960  1
  O  O575  1  0.83816728  0.98197713  0.79784237  1
  O  O576  1  0.41239567  0.14698869  0.17278367  1
  O  O577  1  0.41164517  0.14686696  0.42291643  1
  O  O578  1  0.41133816  0.14832242  0.67178369  1
  O  O579  1  0.41399045  0.14813057  0.92273399  1
  O  O580  1  0.41479854  0.48137255  0.17270001  1
  O  O581  1  0.41454874  0.48269133  0.42225287  1
  O  O582  1  0.41187179  0.48043322  0.67274653  1
  O  O583  1  0.41475812  0.48258131  0.92200800  1
  O  O584  1  0.41258641  0.81667177  0.17225920  1
  O  O585  1  0.41322147  0.81566050  0.42141221  1
  O  O586  1  0.41162051  0.81650188  0.67317633  1
  O  O587  1  0.41229535  0.81411136  0.92294896  1
  O  O588  1  0.91098424  0.14614635  0.17331589  1
  O  O589  1  0.91140424  0.14894476  0.42196199  1
  O  O590  1  0.91210564  0.14705612  0.67277984  1
  O  O591  1  0.91153281  0.14760481  0.92208571  1
  O  O592  1  0.91284292  0.48213197  0.17260205  1
  O  O593  1  0.91249663  0.48104003  0.42248321  1
  O  O594  1  0.91477955  0.48144941  0.67322572  1
  O  O595  1  0.91484213  0.48179153  0.92260863  1
  O  O596  1  0.91433659  0.81668997  0.17268266  1
  O  O597  1  0.91444269  0.81525222  0.42244787  1
  O  O598  1  0.91154331  0.81654061  0.67250679  1
  O  O599  1  0.91341443  0.81584658  0.92237522  1
  O  O600  1  0.08781108  0.18376617  0.07800920  1
  O  O601  1  0.08736336  0.18431823  0.32689697  1
  O  O602  1  0.08908012  0.18406356  0.57730613  1
  O  O603  1  0.08872832  0.18521723  0.82676393  1
  O  O604  1  0.08846681  0.52006519  0.07747312  1
  O  O605  1  0.08750357  0.51935521  0.32723706  1
  O  O606  1  0.08830317  0.51782603  0.57834618  1
  O  O607  1  0.08917196  0.51934788  0.82741296  1
  O  O608  1  0.08838213  0.85120857  0.07760034  1
  O  O609  1  0.08956618  0.85101703  0.32773312  1
  O  O610  1  0.08730321  0.85303320  0.57686455  1
  O  O611  1  0.08680161  0.85066372  0.82791604  1
  O  O612  1  0.58737830  0.18382507  0.07798701  1
  O  O613  1  0.58708853  0.18376525  0.32810262  1
  O  O614  1  0.58626466  0.18417293  0.57717328  1
  O  O615  1  0.58826084  0.18407804  0.82669216  1
  O  O616  1  0.58822400  0.51895332  0.07851267  1
  O  O617  1  0.58697778  0.51896846  0.32764154  1
  O  O618  1  0.58757549  0.51891763  0.57829252  1
  O  O619  1  0.58688322  0.51921464  0.82701625  1
  O  O620  1  0.58725705  0.85178019  0.07755573  1
  O  O621  1  0.58690612  0.85246988  0.32691355  1
  O  O622  1  0.58616485  0.85165806  0.57786583  1
  O  O623  1  0.58935465  0.85157756  0.82792739  1
  O  O624  1  0.33794605  0.18366448  0.04628224  1
  O  O625  1  0.33636286  0.18399913  0.29750891  1
  O  O626  1  0.33655287  0.18370667  0.54832131  1
  O  O627  1  0.33576647  0.18495351  0.79703667  1
  O  O628  1  0.33883460  0.51929850  0.04674956  1
  O  O629  1  0.33948044  0.51974185  0.29796985  1
  O  O630  1  0.33793419  0.51826139  0.54717190  1
  O  O631  1  0.33681344  0.51928268  0.79848389  1
  O  O632  1  0.33794939  0.85147322  0.04790153  1
  O  O633  1  0.33807601  0.85124672  0.29761934  1
  O  O634  1  0.33794512  0.85255286  0.54764207  1
  O  O635  1  0.33778404  0.85063764  0.79689014  1
  O  O636  1  0.83692996  0.18508285  0.04756088  1
  O  O637  1  0.83790423  0.18359705  0.29728506  1
  O  O638  1  0.83824918  0.18363006  0.54641286  1
  O  O639  1  0.83586292  0.18403201  0.79750844  1
  O  O640  1  0.83629750  0.51845843  0.04784180  1
  O  O641  1  0.83448540  0.51902970  0.29746447  1
  O  O642  1  0.83679322  0.51867464  0.54790945  1
  O  O643  1  0.83562497  0.51904815  0.79819608  1
  O  O644  1  0.83653329  0.85122384  0.04848001  1
  O  O645  1  0.83589994  0.85216304  0.29719749  1
  O  O646  1  0.83848799  0.85271016  0.54789768  1
  O  O647  1  0.83809586  0.85190266  0.79821715  1
  O  O648  1  0.16478043  0.14784873  0.20271286  1
  O  O649  1  0.16302596  0.14798707  0.45317750  1
  O  O650  1  0.16128271  0.14838026  0.70199240  1
  O  O651  1  0.16404631  0.14611410  0.95248678  1
  O  O652  1  0.16335989  0.48097162  0.20261546  1
  O  O653  1  0.16222702  0.48055109  0.45270066  1
  O  O654  1  0.16099531  0.48268574  0.70289012  1
  O  O655  1  0.16249443  0.48175269  0.95179096  1
  O  O656  1  0.16355631  0.81611855  0.20258139  1
  O  O657  1  0.16216909  0.81667722  0.45229067  1
  O  O658  1  0.16341506  0.81418603  0.70249551  1
  O  O659  1  0.16303754  0.81692162  0.95277251  1
  O  O660  1  0.66158647  0.14723778  0.20221046  1
  O  O661  1  0.66352423  0.14770130  0.45134465  1
  O  O662  1  0.66334898  0.14776535  0.70274998  1
  O  O663  1  0.66045563  0.14670291  0.95217001  1
  O  O664  1  0.66065358  0.48264238  0.20296206  1
  O  O665  1  0.66134115  0.48123894  0.45212194  1
  O  O666  1  0.66150674  0.48182935  0.70366037  1
  O  O667  1  0.66069815  0.48170673  0.95209478  1
  O  O668  1  0.65963628  0.81581104  0.20250640  1
  O  O669  1  0.66129123  0.81587786  0.45185061  1
  O  O670  1  0.66317149  0.81594412  0.70363725  1
  O  O671  1  0.66074936  0.81675261  0.95264328  1
