# generated using pymatgen
data_Na2MnFe(PO4)2
_symmetry_space_group_name_H-M   'P 1'
_cell_length_a   21.08803230
_cell_length_b   18.94141557
_cell_length_c   20.04692497
_cell_angle_alpha   90.00003479
_cell_angle_beta   89.99443585
_cell_angle_gamma   90.00019341
_symmetry_Int_Tables_number   1
_chemical_formula_structural   Na2MnFe(PO4)2
_chemical_formula_sum   'Na96 Mn48 Fe48 P96 O384'
_cell_volume   8007.48720647
_cell_formula_units_Z   48
loop_
 _symmetry_equiv_pos_site_id
 _symmetry_equiv_pos_as_xyz
  1  'x, y, z'
loop_
 _atom_site_type_symbol
 _atom_site_label
 _atom_site_symmetry_multiplicity
 _atom_site_fract_x
 _atom_site_fract_y
 _atom_site_fract_z
 _atom_site_occupancy
  Na  Na0  1  -0.00203706  -0.00015299  0.00090069  1
  Na  Na1  1  0.00115471  0.00062146  0.24922499  1
  Na  Na2  1  0.00021270  0.00034651  0.49963898  1
  Na  Na3  1  -0.00258415  -0.00076357  0.75029856  1
  Na  Na4  1  -0.00089431  0.33281209  -0.00002611  1
  Na  Na5  1  -0.00068535  0.33300977  0.25005927  1
  Na  Na6  1  0.00019483  0.33357309  0.50015862  1
  Na  Na7  1  0.00106244  0.33387346  0.74988513  1
  Na  Na8  1  0.00069042  0.66676255  -0.00028160  1
  Na  Na9  1  -0.00047754  0.66570441  0.24969998  1
  Na  Na10  1  0.00351067  0.66736374  0.50045604  1
  Na  Na11  1  0.00400864  0.66766474  0.74955349  1
  Na  Na12  1  0.49935464  -0.00025645  0.00078852  1
  Na  Na13  1  0.50066401  0.00047148  0.24920599  1
  Na  Na14  1  0.49861303  -0.00062133  0.50014558  1
  Na  Na15  1  0.50003428  0.00096865  0.74914255  1
  Na  Na16  1  0.49758670  0.33232572  -0.00063958  1
  Na  Na17  1  0.49903237  0.33292038  0.25020792  1
  Na  Na18  1  0.50086109  0.33416086  0.49925438  1
  Na  Na19  1  0.49858727  0.33305628  0.75097778  1
  Na  Na20  1  0.49910410  0.66542993  0.00035819  1
  Na  Na21  1  0.50145652  0.66668922  0.25069697  1
  Na  Na22  1  0.50040619  0.66606465  0.49998860  1
  Na  Na23  1  0.49917539  0.66549199  0.75006488  1
  Na  Na24  1  0.25083474  0.00078008  0.12620299  1
  Na  Na25  1  0.24933344  -0.00035154  0.37442929  1
  Na  Na26  1  0.25027749  0.00035427  0.62527343  1
  Na  Na27  1  0.25029992  0.00002227  0.87432976  1
  Na  Na28  1  0.25329749  0.33401430  0.12507966  1
  Na  Na29  1  0.24824595  0.33287243  0.37514214  1
  Na  Na30  1  0.25153694  0.33405553  0.62450569  1
  Na  Na31  1  0.25393183  0.33386739  0.87474056  1
  Na  Na32  1  0.25117567  0.66715192  0.12558655  1
  Na  Na33  1  0.24841521  0.66611918  0.37502639  1
  Na  Na34  1  0.24807676  0.66607512  0.62570969  1
  Na  Na35  1  0.24894229  0.66576118  0.87424323  1
  Na  Na36  1  0.74955963  0.00054478  0.12435502  1
  Na  Na37  1  0.74868438  -0.00065591  0.37562311  1
  Na  Na38  1  0.75287679  0.00070662  0.62506459  1
  Na  Na39  1  0.75098325  0.00052987  0.87496262  1
  Na  Na40  1  0.75040177  0.33364453  0.12628874  1
  Na  Na41  1  0.75028553  0.33343351  0.37514624  1
  Na  Na42  1  0.74793191  0.33270999  0.62397527  1
  Na  Na43  1  0.74883940  0.33285751  0.87485433  1
  Na  Na44  1  0.74951662  0.66647016  0.12529934  1
  Na  Na45  1  0.74901418  0.66586760  0.37563834  1
  Na  Na46  1  0.74843107  0.66499714  0.62405324  1
  Na  Na47  1  0.74893876  0.66576165  0.87455885  1
  Na  Na48  1  -0.00108884  0.16687451  0.00012485  1
  Na  Na49  1  0.00007192  0.16716563  0.24898732  1
  Na  Na50  1  0.00060634  0.16678773  0.49992185  1
  Na  Na51  1  0.00009232  0.16604906  0.75038704  1
  Na  Na52  1  -0.00002762  0.49999224  -0.00060947  1
  Na  Na53  1  -0.00049452  0.49967377  0.25062483  1
  Na  Na54  1  0.00073839  0.49980711  0.50099544  1
  Na  Na55  1  0.00214051  0.49952358  0.74915821  1
  Na  Na56  1  -0.00098960  0.83372404  0.00109948  1
  Na  Na57  1  0.00158796  0.83278614  0.24956049  1
  Na  Na58  1  0.00110199  0.83392702  0.49880091  1
  Na  Na59  1  0.00058253  0.83329588  0.75038244  1
  Na  Na60  1  0.50016575  0.16614462  0.00046990  1
  Na  Na61  1  0.50182682  0.16568035  0.25038492  1
  Na  Na62  1  0.49997487  0.16635578  0.50011901  1
  Na  Na63  1  0.49765010  0.16772712  0.74950112  1
  Na  Na64  1  0.49869064  0.50040193  -0.00007320  1
  Na  Na65  1  0.49987521  0.50039445  0.24969935  1
  Na  Na66  1  0.50193150  0.49940940  0.49942014  1
  Na  Na67  1  0.49952861  0.50051366  0.75041728  1
  Na  Na68  1  0.49919997  0.83392201  0.00043332  1
  Na  Na69  1  0.49899400  0.83432551  0.24992757  1
  Na  Na70  1  0.49828719  0.83421682  0.50014617  1
  Na  Na71  1  0.49896028  0.83380061  0.74998492  1
  Na  Na72  1  0.25085021  0.16657207  0.12521601  1
  Na  Na73  1  0.24945262  0.16707887  0.37435423  1
  Na  Na74  1  0.25174601  0.16615273  0.62592699  1
  Na  Na75  1  0.25100873  0.16684809  0.87387107  1
  Na  Na76  1  0.25266554  0.49925498  0.12572796  1
  Na  Na77  1  0.24907331  0.49990115  0.37475987  1
  Na  Na78  1  0.24893244  0.50086824  0.62460830  1
  Na  Na79  1  0.25311005  0.49947913  0.87489106  1
  Na  Na80  1  0.25064627  0.83355268  0.12612830  1
  Na  Na81  1  0.24791240  0.83443686  0.37537346  1
  Na  Na82  1  0.24891820  0.83357140  0.62494492  1
  Na  Na83  1  0.24951543  0.83370304  0.87443294  1
  Na  Na84  1  0.74889600  0.16652575  0.12641276  1
  Na  Na85  1  0.74846232  0.16708734  0.37409950  1
  Na  Na86  1  0.75007679  0.16651702  0.62439546  1
  Na  Na87  1  0.74979932  0.16600642  0.87544080  1
  Na  Na88  1  0.74805964  0.50070500  0.12567307  1
  Na  Na89  1  0.74864529  0.50023233  0.37608515  1
  Na  Na90  1  0.74824268  0.49987420  0.62388313  1
  Na  Na91  1  0.74754174  0.50017695  0.87475996  1
  Na  Na92  1  0.75024148  0.83414228  0.12437778  1
  Na  Na93  1  0.75095926  0.83343187  0.37618503  1
  Na  Na94  1  0.75149651  0.83377774  0.62470400  1
  Na  Na95  1  0.75272799  0.83272179  0.87407547  1
  Mn  Mn96  1  0.14269746  0.91729802  0.99778484  1
  Mn  Mn97  1  0.64211516  0.24982132  0.24750058  1
  Mn  Mn98  1  0.60795943  0.75100017  0.37274300  1
  Mn  Mn99  1  0.64131809  0.25000180  0.74753016  1
  Mn  Mn100  1  0.60821230  0.75065607  0.87248409  1
  Mn  Mn101  1  0.85809503  0.08408944  0.50115676  1
  Mn  Mn102  1  0.60662484  0.41599022  0.87303250  1
  Mn  Mn103  1  0.14337778  0.58286074  0.99780765  1
  Mn  Mn104  1  0.64215163  0.91670711  0.49802393  1
  Mn  Mn105  1  0.89174156  0.24992099  0.87757218  1
  Mn  Mn106  1  0.85710683  0.41654125  0.00183353  1
  Mn  Mn107  1  0.35767841  0.74987544  0.25287001  1
  Mn  Mn108  1  0.10819635  0.41645584  0.12257303  1
  Mn  Mn109  1  0.10764548  0.08338185  0.62265639  1
  Mn  Mn110  1  0.85702037  0.08277289  0.25268534  1
  Mn  Mn111  1  0.64325355  0.91624949  0.74770968  1
  Mn  Mn112  1  0.39239044  0.24951499  0.37747048  1
  Mn  Mn113  1  0.39280534  0.58390234  0.37763117  1
  Mn  Mn114  1  0.64252420  0.91657646  0.99719949  1
  Mn  Mn115  1  0.39216130  0.91680899  0.87764181  1
  Mn  Mn116  1  0.60669096  0.41590340  0.12279592  1
  Mn  Mn117  1  0.35794669  0.75054309  0.00242820  1
  Mn  Mn118  1  0.89329455  0.58382788  0.62740759  1
  Mn  Mn119  1  0.35662223  0.75023425  0.50228280  1
  Mn  Mn120  1  0.89198372  0.24986272  0.62719839  1
  Mn  Mn121  1  0.35772619  0.08390652  0.25269208  1
  Mn  Mn122  1  0.35817014  0.08358898  0.75277882  1
  Mn  Mn123  1  0.10772553  0.08385122  0.12193627  1
  Mn  Mn124  1  0.85878669  0.74899640  0.50229209  1
  Mn  Mn125  1  0.10791893  0.74948449  0.12232266  1
  Mn  Mn126  1  0.85740388  0.41647183  0.75150907  1
  Mn  Mn127  1  0.14129033  0.91662923  0.74775557  1
  Mn  Mn128  1  0.85750243  0.75005782  0.25277859  1
  Mn  Mn129  1  0.89165365  0.91689802  0.12794283  1
  Mn  Mn130  1  0.60772716  0.75034082  0.12233316  1
  Mn  Mn131  1  0.60746801  0.08354986  0.62274462  1
  Mn  Mn132  1  0.60732438  0.75003193  0.62283538  1
  Mn  Mn133  1  0.14335815  0.25004364  0.99785580  1
  Mn  Mn134  1  0.89239163  0.58366124  0.87639182  1
  Mn  Mn135  1  0.35721585  0.74941780  0.75204007  1
  Mn  Mn136  1  0.14327314  0.25089745  0.74812909  1
  Mn  Mn137  1  0.10932203  0.41647658  0.87275968  1
  Mn  Mn138  1  0.35769611  0.41673861  0.50224242  1
  Mn  Mn139  1  0.85869372  0.74922909  0.75187765  1
  Mn  Mn140  1  0.14192555  0.58269414  0.24767075  1
  Mn  Mn141  1  0.89119822  0.58246795  0.12673034  1
  Mn  Mn142  1  0.14241811  0.24990316  0.49768116  1
  Mn  Mn143  1  0.85749755  0.41728004  0.25281777  1
  Fe  Fe144  1  0.35842496  0.41641507  0.00256377  1
  Fe  Fe145  1  0.64243390  0.58281890  0.49824040  1
  Fe  Fe146  1  0.89276963  0.58290863  0.37722547  1
  Fe  Fe147  1  0.64210225  0.25021915  0.99890565  1
  Fe  Fe148  1  0.60761585  0.41616560  0.37294865  1
  Fe  Fe149  1  0.10790450  0.75047274  0.62275355  1
  Fe  Fe150  1  0.64198712  0.91589105  0.24886550  1
  Fe  Fe151  1  0.89305544  0.91643859  0.87665785  1
  Fe  Fe152  1  0.64184790  0.58321065  0.99850459  1
  Fe  Fe153  1  0.10740920  0.75062835  0.87408104  1
  Fe  Fe154  1  0.89356199  0.91634974  0.62599053  1
  Fe  Fe155  1  0.39246014  0.58303224  0.62631372  1
  Fe  Fe156  1  0.89312426  0.25003055  0.37654189  1
  Fe  Fe157  1  0.10691649  0.75001107  0.37312633  1
  Fe  Fe158  1  0.64204125  0.25022471  0.49804295  1
  Fe  Fe159  1  0.39284641  0.91675943  0.12729465  1
  Fe  Fe160  1  0.10836604  0.41657175  0.62291015  1
  Fe  Fe161  1  0.39298328  0.24956548  0.12721116  1
  Fe  Fe162  1  0.35798755  0.08341950  0.00168514  1
  Fe  Fe163  1  0.85669358  0.41645569  0.50161713  1
  Fe  Fe164  1  0.14251992  0.58338983  0.49794323  1
  Fe  Fe165  1  0.10773290  0.08391626  0.37354519  1
  Fe  Fe166  1  0.85759951  0.08394481  0.75235118  1
  Fe  Fe167  1  0.35810432  0.41735883  0.75054947  1
  Fe  Fe168  1  0.85764163  0.74940999  0.00110593  1
  Fe  Fe169  1  0.64282835  0.58405767  0.24849123  1
  Fe  Fe170  1  0.89193636  0.25022670  0.12642665  1
  Fe  Fe171  1  0.39268376  0.58362311  0.87704521  1
  Fe  Fe172  1  0.85647870  0.08396445  0.00169144  1
  Fe  Fe173  1  0.14238138  0.91717855  0.49765013  1
  Fe  Fe174  1  0.39304291  0.25058748  0.62600878  1
  Fe  Fe175  1  0.39315927  0.58348688  0.12723109  1
  Fe  Fe176  1  0.10683926  0.08308985  0.87401846  1
  Fe  Fe177  1  0.60723682  0.08326168  0.87345664  1
  Fe  Fe178  1  0.60666972  0.41656729  0.62349331  1
  Fe  Fe179  1  0.89352861  0.91686527  0.37624251  1
  Fe  Fe180  1  0.35715754  0.08303424  0.50085565  1
  Fe  Fe181  1  0.14276388  0.91736201  0.24843321  1
  Fe  Fe182  1  0.39157359  0.91639718  0.62636399  1
  Fe  Fe183  1  0.39303581  0.24942830  0.87767050  1
  Fe  Fe184  1  0.64152784  0.58332446  0.74788714  1
  Fe  Fe185  1  0.14229213  0.25013631  0.24789533  1
  Fe  Fe186  1  0.10647986  0.41633850  0.37329091  1
  Fe  Fe187  1  0.60683460  0.08290073  0.37393460  1
  Fe  Fe188  1  0.14358557  0.58239346  0.74858154  1
  Fe  Fe189  1  0.35703315  0.41660188  0.25247958  1
  Fe  Fe190  1  0.39213897  0.91683779  0.37674615  1
  Fe  Fe191  1  0.60666795  0.08327064  0.12280427  1
  P  P192  1  0.05317068  0.25032691  0.11049598  1
  P  P193  1  0.05305429  0.25029260  0.35968740  1
  P  P194  1  0.05368255  0.25053056  0.61019987  1
  P  P195  1  0.05366802  0.24895856  0.86023941  1
  P  P196  1  0.05304572  0.58267682  0.10947835  1
  P  P197  1  0.05333589  0.58279164  0.36149508  1
  P  P198  1  0.05633123  0.58308298  0.61088721  1
  P  P199  1  0.05474893  0.58391534  0.85938813  1
  P  P200  1  0.05443991  0.91692598  0.11095917  1
  P  P201  1  0.05439527  0.91719217  0.36039732  1
  P  P202  1  0.05313000  0.91649722  0.60923537  1
  P  P203  1  0.05231364  0.91729906  0.86088533  1
  P  P204  1  0.55246669  0.24945775  0.10968794  1
  P  P205  1  0.55467789  0.24974774  0.36125475  1
  P  P206  1  0.55252610  0.25093001  0.60951876  1
  P  P207  1  0.55302174  0.24877584  0.86155989  1
  P  P208  1  0.55369170  0.58311011  0.11079360  1
  P  P209  1  0.55570079  0.58257055  0.36060161  1
  P  P210  1  0.55358113  0.58242329  0.61057504  1
  P  P211  1  0.55377436  0.58319559  0.86076951  1
  P  P212  1  0.55338614  0.91730323  0.11119773  1
  P  P213  1  0.55224559  0.91769607  0.35973191  1
  P  P214  1  0.55173802  0.91673513  0.61023083  1
  P  P215  1  0.55343724  0.91795859  0.85979537  1
  P  P216  1  0.44625216  0.08362017  0.13905424  1
  P  P217  1  0.44695147  0.08248117  0.39034543  1
  P  P218  1  0.44468951  0.08346984  0.63821153  1
  P  P219  1  0.44733935  0.08374321  0.89081033  1
  P  P220  1  0.44436024  0.41638071  0.13965769  1
  P  P221  1  0.44685738  0.41677612  0.38883377  1
  P  P222  1  0.44726223  0.41689270  0.63985555  1
  P  P223  1  0.44421903  0.41698440  0.88901336  1
  P  P224  1  0.44652153  0.74989997  0.14034801  1
  P  P225  1  0.44661137  0.75090729  0.39033512  1
  P  P226  1  0.44588903  0.74947117  0.63969437  1
  P  P227  1  0.44687797  0.74923703  0.89001671  1
  P  P228  1  0.94464327  0.08452541  0.13893467  1
  P  P229  1  0.94818499  0.08359278  0.38908994  1
  P  P230  1  0.94581645  0.08271657  0.64026754  1
  P  P231  1  0.94567953  0.08274055  0.88986849  1
  P  P232  1  0.94619522  0.41583439  0.14007152  1
  P  P233  1  0.94675287  0.41653883  0.39072159  1
  P  P234  1  0.94713647  0.41682022  0.63869372  1
  P  P235  1  0.94726205  0.41695617  0.88968767  1
  P  P236  1  0.94510120  0.74946653  0.13922162  1
  P  P237  1  0.94800422  0.74983584  0.38955387  1
  P  P238  1  0.94882647  0.75056041  0.63948904  1
  P  P239  1  0.94756303  0.75040365  0.89020890  1
  P  P240  1  0.19481025  0.08389079  0.23631253  1
  P  P241  1  0.19730489  0.08282143  0.48444874  1
  P  P242  1  0.19547084  0.08344415  0.73619852  1
  P  P243  1  0.19814614  0.08365738  0.98424640  1
  P  P244  1  0.19626902  0.41557752  0.23614052  1
  P  P245  1  0.19499379  0.41746442  0.48520996  1
  P  P246  1  0.19822455  0.41723825  0.73443544  1
  P  P247  1  0.19958234  0.41628152  0.98515005  1
  P  P248  1  0.19487211  0.75071141  0.23649663  1
  P  P249  1  0.19414739  0.75017881  0.48561828  1
  P  P250  1  0.19429538  0.74931610  0.73578218  1
  P  P251  1  0.19678923  0.75020700  0.98431873  1
  P  P252  1  0.69387449  0.08176472  0.23576336  1
  P  P253  1  0.69586358  0.08409652  0.48449837  1
  P  P254  1  0.69691900  0.08311641  0.73584677  1
  P  P255  1  0.69542402  0.08433950  0.98583345  1
  P  P256  1  0.69504767  0.41742668  0.23642772  1
  P  P257  1  0.69497844  0.41621782  0.48573912  1
  P  P258  1  0.69509522  0.41708741  0.73402461  1
  P  P259  1  0.69564849  0.41608546  0.98546772  1
  P  P260  1  0.69637371  0.75039372  0.23521141  1
  P  P261  1  0.69684480  0.74941920  0.48533894  1
  P  P262  1  0.69723023  0.74940108  0.73438113  1
  P  P263  1  0.69798900  0.74961064  0.98473834  1
  P  P264  1  0.30599496  0.24920070  0.01454127  1
  P  P265  1  0.30344805  0.25072900  0.26410937  1
  P  P266  1  0.30396964  0.24908182  0.51524156  1
  P  P267  1  0.30633939  0.25151451  0.76402447  1
  P  P268  1  0.30566906  0.58301652  0.01487913  1
  P  P269  1  0.30466921  0.58261670  0.26439260  1
  P  P270  1  0.30236503  0.58364982  0.51536845  1
  P  P271  1  0.30455773  0.58251049  0.76398611  1
  P  P272  1  0.30414039  0.91789836  0.01611240  1
  P  P273  1  0.30397659  0.91696492  0.26489307  1
  P  P274  1  0.30313448  0.91749340  0.51404687  1
  P  P275  1  0.30407775  0.91636599  0.76398749  1
  P  P276  1  0.80191434  0.24924522  0.01589325  1
  P  P277  1  0.80482824  0.24989237  0.26494124  1
  P  P278  1  0.80330617  0.25081635  0.51322696  1
  P  P279  1  0.80276055  0.24951415  0.76490886  1
  P  P280  1  0.80153371  0.58358430  0.01449830  1
  P  P281  1  0.80254462  0.58334205  0.26628338  1
  P  P282  1  0.80387724  0.58190655  0.51382952  1
  P  P283  1  0.80167494  0.58269550  0.76442646  1
  P  P284  1  0.80502031  0.91685537  0.01333141  1
  P  P285  1  0.80213160  0.91680035  0.26599435  1
  P  P286  1  0.80584608  0.91685425  0.51426285  1
  P  P287  1  0.80624308  0.91733798  0.76413708  1
  O  O288  1  0.05828294  0.25043665  0.18714276  1
  O  O289  1  0.05672952  0.25004577  0.43638306  1
  O  O290  1  0.05709515  0.25019489  0.68690680  1
  O  O291  1  0.05695856  0.24971938  0.93700169  1
  O  O292  1  0.05635826  0.58249799  0.18628406  1
  O  O293  1  0.05793003  0.58288980  0.43814537  1
  O  O294  1  0.06021251  0.58254210  0.68762683  1
  O  O295  1  0.05756688  0.58280525  0.93617660  1
  O  O296  1  0.05908102  0.91710701  0.18769112  1
  O  O297  1  0.05868795  0.91766349  0.43713334  1
  O  O298  1  0.05610137  0.91711644  0.68598710  1
  O  O299  1  0.05568278  0.91747095  0.93755835  1
  O  O300  1  0.55632190  0.25030609  0.18640867  1
  O  O301  1  0.55828811  0.25016946  0.43800294  1
  O  O302  1  0.55558422  0.25011919  0.68630334  1
  O  O303  1  0.55786751  0.24951578  0.93815773  1
  O  O304  1  0.55879028  0.58349227  0.18743216  1
  O  O305  1  0.55965432  0.58318622  0.43744953  1
  O  O306  1  0.55791597  0.58322714  0.68731684  1
  O  O307  1  0.55879155  0.58331376  0.93749468  1
  O  O308  1  0.55808464  0.91641877  0.18778093  1
  O  O309  1  0.55609507  0.91678118  0.43641806  1
  O  O310  1  0.55633436  0.91677797  0.68683112  1
  O  O311  1  0.55656320  0.91701589  0.93661285  1
  O  O312  1  0.44196142  0.08338820  0.06245646  1
  O  O313  1  0.44356793  0.08331010  0.31360445  1
  O  O314  1  0.44090707  0.08304163  0.56149705  1
  O  O315  1  0.44382011  0.08341006  0.81398059  1
  O  O316  1  0.44121681  0.41650073  0.06273813  1
  O  O317  1  0.44166029  0.41673153  0.31220747  1
  O  O318  1  0.44406979  0.41721970  0.56310065  1
  O  O319  1  0.44119236  0.41729982  0.81222807  1
  O  O320  1  0.44377883  0.74995357  0.06359959  1
  O  O321  1  0.44358670  0.75003744  0.31359970  1
  O  O322  1  0.44297716  0.74938634  0.56293929  1
  O  O323  1  0.44349364  0.74955399  0.81328271  1
  O  O324  1  0.94008067  0.08406397  0.06221716  1
  O  O325  1  0.94438596  0.08350466  0.31245808  1
  O  O326  1  0.94316897  0.08419153  0.56346700  1
  O  O327  1  0.94142343  0.08383755  0.81313861  1
  O  O328  1  0.94291484  0.41653942  0.06330289  1
  O  O329  1  0.94314600  0.41685551  0.31400934  1
  O  O330  1  0.94148342  0.41662432  0.56213569  1
  O  O331  1  0.94385407  0.41697694  0.81292736  1
  O  O332  1  0.94048799  0.74943145  0.06245825  1
  O  O333  1  0.94435240  0.74949919  0.31285438  1
  O  O334  1  0.94498661  0.74953841  0.56282380  1
  O  O335  1  0.94426831  0.74940273  0.81344680  1
  O  O336  1  0.19407310  0.08369771  0.06101382  1
  O  O337  1  0.19066001  0.08395307  0.31306187  1
  O  O338  1  0.19390001  0.08337597  0.56117026  1
  O  O339  1  0.19075528  0.08308814  0.81285047  1
  O  O340  1  0.19526763  0.41625869  0.06181113  1
  O  O341  1  0.19077812  0.41617564  0.31277944  1
  O  O342  1  0.19131783  0.41654656  0.56198808  1
  O  O343  1  0.19510965  0.41641930  0.81118682  1
  O  O344  1  0.19391742  0.75022982  0.06116215  1
  O  O345  1  0.19035056  0.74990987  0.31330221  1
  O  O346  1  0.19088169  0.75047779  0.56249434  1
  O  O347  1  0.19033678  0.75071549  0.81254006  1
  O  O348  1  0.69050037  0.08361700  0.06256381  1
  O  O349  1  0.68989030  0.08253621  0.31251182  1
  O  O350  1  0.69314768  0.08334014  0.56133097  1
  O  O351  1  0.69171074  0.08321593  0.81248503  1
  O  O352  1  0.69289633  0.41609050  0.06224751  1
  O  O353  1  0.69143540  0.41624927  0.31319257  1
  O  O354  1  0.69035244  0.41609523  0.56241179  1
  O  O355  1  0.69184461  0.41619226  0.81080254  1
  O  O356  1  0.69406248  0.75053598  0.06145697  1
  O  O357  1  0.69376072  0.75065393  0.31198027  1
  O  O358  1  0.69348142  0.75022749  0.56206888  1
  O  O359  1  0.69416736  0.75028351  0.81116967  1
  O  O360  1  0.30861131  0.24970670  0.18748798  1
  O  O361  1  0.30661584  0.25005512  0.43840957  1
  O  O362  1  0.31010616  0.25055161  0.68725160  1
  O  O363  1  0.30961710  0.24887535  0.93768073  1
  O  O364  1  0.30916919  0.58360411  0.18768590  1
  O  O365  1  0.30660057  0.58352280  0.43867548  1
  O  O366  1  0.30899267  0.58335845  0.68727578  1
  O  O367  1  0.30916056  0.58397144  0.93803675  1
  O  O368  1  0.30937271  0.91699646  0.18824795  1
  O  O369  1  0.30792863  0.91679616  0.43734732  1
  O  O370  1  0.30839653  0.91640815  0.68722253  1
  O  O371  1  0.30680383  0.91704051  0.93926336  1
  O  O372  1  0.80889260  0.24999412  0.18822042  1
  O  O373  1  0.80874217  0.25000130  0.43659513  1
  O  O374  1  0.80595039  0.25000492  0.68811026  1
  O  O375  1  0.80558890  0.24956810  0.93915002  1
  O  O376  1  0.80624618  0.58297189  0.18956563  1
  O  O377  1  0.80926372  0.58296679  0.43721430  1
  O  O378  1  0.80629129  0.58283517  0.68775322  1
  O  O379  1  0.80562061  0.58295976  0.93786002  1
  O  O380  1  0.80594904  0.91728554  0.18923750  1
  O  O381  1  0.81054521  0.91677177  0.43751249  1
  O  O382  1  0.81020463  0.91633636  0.68734836  1
  O  O383  1  0.80907874  0.91676812  0.93657252  1
  O  O384  1  0.23609882  0.24999968  0.03926375  1
  O  O385  1  0.23313785  0.25019200  0.28776255  1
  O  O386  1  0.23435726  0.24989886  0.54056453  1
  O  O387  1  0.23638478  0.25058061  0.78846754  1
  O  O388  1  0.23579152  0.58339416  0.03968212  1
  O  O389  1  0.23458576  0.58277198  0.28831412  1
  O  O390  1  0.23214475  0.58358838  0.53914192  1
  O  O391  1  0.23421802  0.58260324  0.78778466  1
  O  O392  1  0.23454719  0.91730999  0.04151355  1
  O  O393  1  0.23341786  0.91719394  0.28780721  1
  O  O394  1  0.23268756  0.91681413  0.53762336  1
  O  O395  1  0.23407119  0.91646949  0.78801918  1
  O  O396  1  0.73188470  0.24994012  0.04063550  1
  O  O397  1  0.73461230  0.24997164  0.28849412  1
  O  O398  1  0.73287804  0.25020872  0.53673251  1
  O  O399  1  0.73306973  0.24952055  0.78998400  1
  O  O400  1  0.73143679  0.58340325  0.03913503  1
  O  O401  1  0.73239411  0.58329493  0.29040602  1
  O  O402  1  0.73325534  0.58214363  0.53673253  1
  O  O403  1  0.73148018  0.58291485  0.78841384  1
  O  O404  1  0.73499899  0.91744488  0.03776141  1
  O  O405  1  0.73205113  0.91632971  0.29028888  1
  O  O406  1  0.73564146  0.91719817  0.53799112  1
  O  O407  1  0.73625256  0.91663470  0.78854385  1
  O  O408  1  0.26490688  0.08385740  0.21227929  1
  O  O409  1  0.26727752  0.08325502  0.45954956  1
  O  O410  1  0.26567378  0.08356900  0.71252053  1
  O  O411  1  0.26827142  0.08340259  0.96004988  1
  O  O412  1  0.26668366  0.41621943  0.21283128  1
  O  O413  1  0.26506595  0.41656082  0.46099925  1
  O  O414  1  0.26819665  0.41744950  0.70951989  1
  O  O415  1  0.26976742  0.41614817  0.96116724  1
  O  O416  1  0.26495397  0.75046975  0.21261068  1
  O  O417  1  0.26404200  0.75011718  0.46085832  1
  O  O418  1  0.26430666  0.74983183  0.71145859  1
  O  O419  1  0.26641857  0.75009979  0.95911692  1
  O  O420  1  0.76397648  0.08307625  0.21176010  1
  O  O421  1  0.76554202  0.08364017  0.45922406  1
  O  O422  1  0.76724860  0.08343791  0.71225223  1
  O  O423  1  0.76592752  0.08349481  0.96251117  1
  O  O424  1  0.76491849  0.41724653  0.21189639  1
  O  O425  1  0.76534547  0.41662521  0.46186357  1
  O  O426  1  0.76476581  0.41642575  0.70884262  1
  O  O427  1  0.76512708  0.41620021  0.95965212  1
  O  O428  1  0.76583732  0.75036217  0.20946586  1
  O  O429  1  0.76660526  0.74934299  0.46039262  1
  O  O430  1  0.76686981  0.74918571  0.70904061  1
  O  O431  1  0.76799402  0.74944247  0.96000735  1
  O  O432  1  0.01476997  0.08386024  0.16266405  1
  O  O433  1  0.01824994  0.08376675  0.41386663  1
  O  O434  1  0.01549633  0.08297636  0.66547772  1
  O  O435  1  0.01590027  0.08330859  0.91414763  1
  O  O436  1  0.01580314  0.41622475  0.16536359  1
  O  O437  1  0.01700347  0.41641997  0.41487257  1
  O  O438  1  0.01767138  0.41687363  0.66179545  1
  O  O439  1  0.01701940  0.41647196  0.91466824  1
  O  O440  1  0.01514675  0.74934764  0.16309971  1
  O  O441  1  0.01812401  0.75035044  0.41408117  1
  O  O442  1  0.01890381  0.75037038  0.66388725  1
  O  O443  1  0.01762722  0.75045823  0.91490220  1
  O  O444  1  0.51651650  0.08373449  0.16311400  1
  O  O445  1  0.51695662  0.08290460  0.41494388  1
  O  O446  1  0.51459986  0.08396218  0.66299024  1
  O  O447  1  0.51726814  0.08300465  0.91546998  1
  O  O448  1  0.51428422  0.41640099  0.16423479  1
  O  O449  1  0.51721441  0.41669949  0.41222247  1
  O  O450  1  0.51713974  0.41685482  0.66503871  1
  O  O451  1  0.51407320  0.41663413  0.91400607  1
  O  O452  1  0.51611912  0.75026098  0.16576498  1
  O  O453  1  0.51623467  0.75059328  0.41553856  1
  O  O454  1  0.51543338  0.74969030  0.66533193  1
  O  O455  1  0.51647505  0.74963945  0.91537764  1
  O  O456  1  0.48233060  0.24950986  0.08563111  1
  O  O457  1  0.48481154  0.24930951  0.33645122  1
  O  O458  1  0.48252128  0.25039985  0.58469961  1
  O  O459  1  0.48267468  0.24973658  0.83785381  1
  O  O460  1  0.48319094  0.58275916  0.08767872  1
  O  O461  1  0.48559481  0.58342701  0.33666268  1
  O  O462  1  0.48321898  0.58267158  0.58664867  1
  O  O463  1  0.48326314  0.58292607  0.83763480  1
  O  O464  1  0.48300291  0.91699248  0.08753664  1
  O  O465  1  0.48212588  0.91745214  0.33528966  1
  O  O466  1  0.48149051  0.91670401  0.58631077  1
  O  O467  1  0.48378426  0.91785804  0.83469355  1
  O  O468  1  0.98286699  0.25003966  0.08691696  1
  O  O469  1  0.98280929  0.25029037  0.33544274  1
  O  O470  1  0.98396360  0.25011893  0.58517876  1
  O  O471  1  0.98400085  0.24973112  0.83508889  1
  O  O472  1  0.98340042  0.58295832  0.08447671  1
  O  O473  1  0.98300640  0.58255154  0.33746507  1
  O  O474  1  0.98626918  0.58357360  0.58657281  1
  O  O475  1  0.98512726  0.58356255  0.83382740  1
  O  O476  1  0.98430229  0.91699705  0.08744255  1
  O  O477  1  0.98402453  0.91683163  0.33628582  1
  O  O478  1  0.98319602  0.91692070  0.58431307  1
  O  O479  1  0.98241208  0.91658699  0.83583608  1
  O  O480  1  0.08648957  0.31528165  0.07704694  1
  O  O481  1  0.08670330  0.31557134  0.32698384  1
  O  O482  1  0.08771055  0.31553725  0.57774890  1
  O  O483  1  0.08829410  0.31378665  0.82771371  1
  O  O484  1  0.08739718  0.64763962  0.07730439  1
  O  O485  1  0.08660157  0.64783629  0.32815635  1
  O  O486  1  0.09014010  0.64821577  0.57815273  1
  O  O487  1  0.08892380  0.64927116  0.82779490  1
  O  O488  1  0.08773813  0.98192376  0.07756883  1
  O  O489  1  0.08777621  0.98224692  0.32710270  1
  O  O490  1  0.08737042  0.98138546  0.57645215  1
  O  O491  1  0.08573068  0.98254869  0.82798734  1
  O  O492  1  0.58606175  0.31438901  0.07637525  1
  O  O493  1  0.58808715  0.31481631  0.32802021  1
  O  O494  1  0.58628998  0.31618998  0.57725870  1
  O  O495  1  0.58647979  0.31360687  0.82795840  1
  O  O496  1  0.58680366  0.64806429  0.07701927  1
  O  O497  1  0.58967343  0.64746517  0.32751878  1
  O  O498  1  0.58735859  0.64716305  0.57707530  1
  O  O499  1  0.58697488  0.64808370  0.82707463  1
  O  O500  1  0.58649119  0.98255885  0.07811483  1
  O  O501  1  0.58609971  0.98278019  0.32727857  1
  O  O502  1  0.58533632  0.98174115  0.57722938  1
  O  O503  1  0.58755084  0.98319758  0.82785508  1
  O  O504  1  0.41285445  0.01866639  0.17244856  1
  O  O505  1  0.41287058  0.01739090  0.42265448  1
  O  O506  1  0.41117718  0.01843282  0.67143393  1
  O  O507  1  0.41280988  0.01906665  0.92350408  1
  O  O508  1  0.41067162  0.35109842  0.17225008  1
  O  O509  1  0.41358356  0.35178277  0.42220217  1
  O  O510  1  0.41320947  0.35173626  0.67209688  1
  O  O511  1  0.41031154  0.35185026  0.92163103  1
  O  O512  1  0.41268199  0.68461680  0.17273250  1
  O  O513  1  0.41234509  0.68605488  0.42300983  1
  O  O514  1  0.41201852  0.68409656  0.67190948  1
  O  O515  1  0.41284078  0.68412479  0.92226308  1
  O  O516  1  0.91105439  0.01958856  0.17238613  1
  O  O517  1  0.91449332  0.01849082  0.42173833  1
  O  O518  1  0.91187305  0.01725620  0.67187269  1
  O  O519  1  0.91231876  0.01741019  0.92246575  1
  O  O520  1  0.91213422  0.35064181  0.17219653  1
  O  O521  1  0.91289385  0.35133718  0.42324189  1
  O  O522  1  0.91397223  0.35184595  0.67230154  1
  O  O523  1  0.91281735  0.35208090  0.92211428  1
  O  O524  1  0.91152612  0.68447509  0.17230763  1
  O  O525  1  0.91469702  0.68468359  0.42273643  1
  O  O526  1  0.91516091  0.68564444  0.67279398  1
  O  O527  1  0.91360987  0.68535295  0.92304935  1
  O  O528  1  0.16152784  0.01864344  0.20336260  1
  O  O529  1  0.16324611  0.01781706  0.45191910  1
  O  O530  1  0.16226414  0.01843809  0.70269603  1
  O  O531  1  0.16398762  0.01872943  0.95154604  1
  O  O532  1  0.16356088  0.35026777  0.20266102  1
  O  O533  1  0.16076396  0.35280283  0.45200839  1
  O  O534  1  0.16427681  0.35232249  0.70144233  1
  O  O535  1  0.16598638  0.35135694  0.95206321  1
  O  O536  1  0.16156189  0.68564027  0.20314897  1
  O  O537  1  0.16034309  0.68495444  0.45299750  1
  O  O538  1  0.16114974  0.68377097  0.70343675  1
  O  O539  1  0.16235785  0.68533251  0.95205793  1
  O  O540  1  0.66101993  0.01631658  0.20280183  1
  O  O541  1  0.66130873  0.01918052  0.45211431  1
  O  O542  1  0.66391575  0.01804344  0.70222713  1
  O  O543  1  0.66187545  0.01966102  0.95198605  1
  O  O544  1  0.66132917  0.35252601  0.20310775  1
  O  O545  1  0.66175206  0.35113013  0.45221769  1
  O  O546  1  0.66044542  0.35233301  0.70136288  1
  O  O547  1  0.66154092  0.35079312  0.95328720  1
  O  O548  1  0.66221176  0.68503822  0.20325483  1
  O  O549  1  0.66264109  0.68434881  0.45336594  1
  O  O550  1  0.66265735  0.68432914  0.70266390  1
  O  O551  1  0.66371541  0.68463027  0.95262673  1
  O  O552  1  0.34034806  0.31403231  0.04714497  1
  O  O553  1  0.33663240  0.31585660  0.29734286  1
  O  O554  1  0.33881278  0.31384509  0.54765355  1
  O  O555  1  0.33955883  0.31699790  0.79632660  1
  O  O556  1  0.33968065  0.64779812  0.04812367  1
  O  O557  1  0.33800461  0.64756446  0.29796427  1
  O  O558  1  0.33596301  0.64858905  0.54844615  1
  O  O559  1  0.33784623  0.64733984  0.79787927  1
  O  O560  1  0.33817530  0.98322487  0.04808084  1
  O  O561  1  0.33722769  0.98195576  0.29840101  1
  O  O562  1  0.33625143  0.98273348  0.54708161  1
  O  O563  1  0.33766270  0.98139694  0.79707842  1
  O  O564  1  0.83637904  0.31410019  0.04846560  1
  O  O565  1  0.83843108  0.31476950  0.29824349  1
  O  O566  1  0.83610085  0.31612443  0.54660941  1
  O  O567  1  0.83666763  0.31465275  0.79740893  1
  O  O568  1  0.83535627  0.64863117  0.04709826  1
  O  O569  1  0.83640685  0.64840744  0.29895379  1
  O  O570  1  0.83704205  0.64679297  0.54771920  1
  O  O571  1  0.83554845  0.64768651  0.79729344  1
  O  O572  1  0.83858989  0.98195521  0.04632694  1
  O  O573  1  0.83592511  0.98178376  0.29894867  1
  O  O574  1  0.83952680  0.98183976  0.54719419  1
  O  O575  1  0.83948680  0.98274011  0.79689317  1
  O  O576  1  0.41301510  0.14880792  0.17241572  1
  O  O577  1  0.41269514  0.14722699  0.42322810  1
  O  O578  1  0.41110550  0.14878820  0.67080463  1
  O  O579  1  0.41356936  0.14887452  0.92336263  1
  O  O580  1  0.41051657  0.48137290  0.17249684  1
  O  O581  1  0.41372274  0.48170527  0.42251101  1
  O  O582  1  0.41302297  0.48178313  0.67257970  1
  O  O583  1  0.41059563  0.48205090  0.92199379  1
  O  O584  1  0.41209239  0.81495830  0.17248929  1
  O  O585  1  0.41247735  0.81623376  0.42211589  1
  O  O586  1  0.41145330  0.81452539  0.67175415  1
  O  O587  1  0.41268149  0.81431338  0.92241036  1
  O  O588  1  0.91149523  0.14972120  0.17192343  1
  O  O589  1  0.91431265  0.14861896  0.42192183  1
  O  O590  1  0.91123065  0.14732661  0.67327545  1
  O  O591  1  0.91161310  0.14743121  0.92335806  1
  O  O592  1  0.91195000  0.48081964  0.17272930  1
  O  O593  1  0.91291390  0.48144270  0.42377694  1
  O  O594  1  0.91415457  0.48191766  0.67226689  1
  O  O595  1  0.91339366  0.48215914  0.92208998  1
  O  O596  1  0.91185256  0.81464842  0.17245232  1
  O  O597  1  0.91417921  0.81502212  0.42183144  1
  O  O598  1  0.91514369  0.81577222  0.67168575  1
  O  O599  1  0.91342240  0.81540184  0.92252985  1
  O  O600  1  0.08665695  0.18538614  0.07716746  1
  O  O601  1  0.08703620  0.18543581  0.32675727  1
  O  O602  1  0.08767188  0.18545743  0.57754446  1
  O  O603  1  0.08736003  0.18351064  0.82823003  1
  O  O604  1  0.08711553  0.51763049  0.07700962  1
  O  O605  1  0.08667946  0.51757986  0.32833426  1
  O  O606  1  0.08978538  0.51809020  0.57751640  1
  O  O607  1  0.08950721  0.51914798  0.82674089  1
  O  O608  1  0.08775346  0.85187727  0.07783417  1
  O  O609  1  0.08799845  0.85204668  0.32753955  1
  O  O610  1  0.08719188  0.85149100  0.57685670  1
  O  O611  1  0.08660337  0.85240473  0.82838258  1
  O  O612  1  0.58657760  0.18448875  0.07727260  1
  O  O613  1  0.58844001  0.18452168  0.32881885  1
  O  O614  1  0.58705910  0.18627612  0.57675936  1
  O  O615  1  0.58573637  0.18341794  0.82820717  1
  O  O616  1  0.58690276  0.51811979  0.07728910  1
  O  O617  1  0.58884181  0.51735348  0.32763961  1
  O  O618  1  0.58699144  0.51722288  0.57768609  1
  O  O619  1  0.58698167  0.51816093  0.82734173  1
  O  O620  1  0.58680824  0.85254411  0.07734559  1
  O  O621  1  0.58626189  0.85282687  0.32655695  1
  O  O622  1  0.58532982  0.85176960  0.57712510  1
  O  O623  1  0.58748991  0.85286874  0.82726040  1
  O  O624  1  0.33918249  0.18386773  0.04763843  1
  O  O625  1  0.33692627  0.18581871  0.29767510  1
  O  O626  1  0.33781574  0.18371134  0.54701434  1
  O  O627  1  0.34052861  0.18687338  0.79757062  1
  O  O628  1  0.33936255  0.51774018  0.04731115  1
  O  O629  1  0.33805358  0.51734903  0.29719609  1
  O  O630  1  0.33629379  0.51869004  0.54824858  1
  O  O631  1  0.33813840  0.51745152  0.79677941  1
  O  O632  1  0.33880914  0.85310974  0.04864846  1
  O  O633  1  0.33702073  0.85207291  0.29869890  1
  O  O634  1  0.33669626  0.85269042  0.54776371  1
  O  O635  1  0.33752377  0.85138850  0.79710374  1
  O  O636  1  0.83562837  0.18409826  0.04855580  1
  O  O637  1  0.83822362  0.18487186  0.29823623  1
  O  O638  1  0.83674035  0.18595204  0.54678760  1
  O  O639  1  0.83693521  0.18450371  0.79727482  1
  O  O640  1  0.83505213  0.51845672  0.04762530  1
  O  O641  1  0.83648653  0.51851674  0.29936051  1
  O  O642  1  0.83667529  0.51664462  0.54704929  1
  O  O643  1  0.83510923  0.51765923  0.79742385  1
  O  O644  1  0.83813130  0.85148761  0.04625715  1
  O  O645  1  0.83657636  0.85197915  0.29843389  1
  O  O646  1  0.83931919  0.85181637  0.54758442  1
  O  O647  1  0.84043821  0.85260274  0.79733253  1
  O  O648  1  0.16149289  0.14905515  0.20315015  1
  O  O649  1  0.16304587  0.14769680  0.45162064  1
  O  O650  1  0.16234918  0.14855823  0.70294004  1
  O  O651  1  0.16430778  0.14863019  0.95148344  1
  O  O652  1  0.16306651  0.48054119  0.20246483  1
  O  O653  1  0.16178875  0.48284799  0.45246887  1
  O  O654  1  0.16383420  0.48214748  0.70224398  1
  O  O655  1  0.16615584  0.48137931  0.95221607  1
  O  O656  1  0.16163517  0.81604322  0.20381600  1
  O  O657  1  0.16030757  0.81520876  0.45281942  1
  O  O658  1  0.16027968  0.81393739  0.70209876  1
  O  O659  1  0.16256518  0.81529040  0.95198135  1
  O  O660  1  0.65960269  0.14645170  0.20244055  1
  O  O661  1  0.66165848  0.14918101  0.45243839  1
  O  O662  1  0.66329787  0.14802214  0.70248934  1
  O  O663  1  0.66253053  0.14972179  0.95274267  1
  O  O664  1  0.66135912  0.48268144  0.20412286  1
  O  O665  1  0.66126018  0.48118411  0.45264616  1
  O  O666  1  0.66109095  0.48233118  0.70186068  1
  O  O667  1  0.66122650  0.48108193  0.95332883  1
  O  O668  1  0.66213402  0.81548536  0.20289783  1
  O  O669  1  0.66304128  0.81459676  0.45265802  1
  O  O670  1  0.66334019  0.81456404  0.70180702  1
  O  O671  1  0.66451730  0.81479653  0.95170459  1
