# generated using pymatgen
data_Na2MnFe(PO4)2
_symmetry_space_group_name_H-M   'P 1'
_cell_length_a   21.07195727
_cell_length_b   18.92258350
_cell_length_c   20.03219401
_cell_angle_alpha   90.00043124
_cell_angle_beta   89.99898432
_cell_angle_gamma   89.99781319
_symmetry_Int_Tables_number   1
_chemical_formula_structural   Na2MnFe(PO4)2
_chemical_formula_sum   'Na96 Mn48 Fe48 P96 O384'
_cell_volume   7987.55432022
_cell_formula_units_Z   48
loop_
 _symmetry_equiv_pos_site_id
 _symmetry_equiv_pos_as_xyz
  1  'x, y, z'
loop_
 _atom_site_type_symbol
 _atom_site_label
 _atom_site_symmetry_multiplicity
 _atom_site_fract_x
 _atom_site_fract_y
 _atom_site_fract_z
 _atom_site_occupancy
  Na  Na0  1  -0.00025616  0.00001801  0.00065746  1
  Na  Na1  1  -0.00013851  0.00041912  0.25030445  1
  Na  Na2  1  0.00201082  0.00091116  0.49884934  1
  Na  Na3  1  0.00085150  -0.00008999  0.74963508  1
  Na  Na4  1  0.00026189  0.33334965  -0.00156488  1
  Na  Na5  1  0.00203783  0.33456716  0.24992395  1
  Na  Na6  1  -0.00002502  0.33368039  0.50108126  1
  Na  Na7  1  -0.00137032  0.33268017  0.75075904  1
  Na  Na8  1  0.00097834  0.66687625  0.00071728  1
  Na  Na9  1  0.00141715  0.66689184  0.24971469  1
  Na  Na10  1  0.00277257  0.66634921  0.49959320  1
  Na  Na11  1  0.00409795  0.66821520  0.75022974  1
  Na  Na12  1  0.50038718  -0.00053037  0.00044587  1
  Na  Na13  1  0.49943603  -0.00081482  0.24958442  1
  Na  Na14  1  0.49806189  -0.00069941  0.50026738  1
  Na  Na15  1  0.49927412  -0.00039182  0.75013746  1
  Na  Na16  1  0.49903761  0.33306185  0.00094954  1
  Na  Na17  1  0.49885186  0.33322072  0.24989104  1
  Na  Na18  1  0.49974606  0.33412439  0.49910922  1
  Na  Na19  1  0.50006285  0.33400091  0.74925580  1
  Na  Na20  1  0.50178378  0.66717754  -0.00095280  1
  Na  Na21  1  0.49880761  0.66579220  0.25021194  1
  Na  Na22  1  0.49948436  0.66647993  0.50049628  1
  Na  Na23  1  0.50013080  0.66583060  0.75049615  1
  Na  Na24  1  0.25019882  -0.00030569  0.12398708  1
  Na  Na25  1  0.25096513  0.00008624  0.37448213  1
  Na  Na26  1  0.24829497  -0.00078064  0.62551510  1
  Na  Na27  1  0.24997754  0.00016975  0.87600751  1
  Na  Na28  1  0.24959738  0.33359969  0.12497125  1
  Na  Na29  1  0.25145126  0.33444695  0.37493285  1
  Na  Na30  1  0.25021698  0.33312478  0.62424980  1
  Na  Na31  1  0.24875032  0.33255854  0.87620065  1
  Na  Na32  1  0.24658691  0.66570402  0.12448672  1
  Na  Na33  1  0.24817997  0.66575144  0.37568170  1
  Na  Na34  1  0.24996601  0.66643860  0.62514247  1
  Na  Na35  1  0.24842830  0.66639953  0.87487094  1
  Na  Na36  1  0.74964398  -0.00079745  0.12393916  1
  Na  Na37  1  0.75044019  0.00011177  0.37525706  1
  Na  Na38  1  0.75011540  0.00001641  0.62611257  1
  Na  Na39  1  0.75028376  -0.00004137  0.87405510  1
  Na  Na40  1  0.75035999  0.33353417  0.12586326  1
  Na  Na41  1  0.74762517  0.33236078  0.37501099  1
  Na  Na42  1  0.75033169  0.33411781  0.62459150  1
  Na  Na43  1  0.75158228  0.33418705  0.87450564  1
  Na  Na44  1  0.75141130  0.66737925  0.12545235  1
  Na  Na45  1  0.75173918  0.66725546  0.37610792  1
  Na  Na46  1  0.74682419  0.66526603  0.62452544  1
  Na  Na47  1  0.74777784  0.66592975  0.87413303  1
  Na  Na48  1  0.00065785  0.16594643  0.00004288  1
  Na  Na49  1  -0.00098449  0.16725217  0.24959188  1
  Na  Na50  1  -0.00050498  0.16742061  0.49935121  1
  Na  Na51  1  0.00256148  0.16581689  0.75054553  1
  Na  Na52  1  0.00283109  0.49922685  -0.00046084  1
  Na  Na53  1  0.00151975  0.50055305  0.24991939  1
  Na  Na54  1  0.00223352  0.50013187  0.50130060  1
  Na  Na55  1  0.00026705  0.50137762  0.75004939  1
  Na  Na56  1  -0.00066570  0.83271459  0.00082556  1
  Na  Na57  1  0.00078136  0.83238093  0.25006979  1
  Na  Na58  1  0.00337904  0.83154329  0.49902426  1
  Na  Na59  1  -0.00019963  0.83348567  0.74987533  1
  Na  Na60  1  0.50026086  0.16687143  0.00069445  1
  Na  Na61  1  0.49968884  0.16658439  0.24987108  1
  Na  Na62  1  0.49744359  0.16747934  0.50014021  1
  Na  Na63  1  0.49978480  0.16621651  0.74910570  1
  Na  Na64  1  0.50011840  0.50033019  -0.00009376  1
  Na  Na65  1  0.49907754  0.50018999  0.25044827  1
  Na  Na66  1  0.49990720  0.49997350  0.49965460  1
  Na  Na67  1  0.50031192  0.50045361  0.74994788  1
  Na  Na68  1  0.50057918  0.83336473  -0.00037525  1
  Na  Na69  1  0.49909777  0.83414515  0.24956261  1
  Na  Na70  1  0.49943102  0.83298287  0.49981642  1
  Na  Na71  1  0.50007166  0.83266615  0.75110640  1
  Na  Na72  1  0.24756948  0.16748048  0.12381290  1
  Na  Na73  1  0.25158487  0.16596278  0.37546602  1
  Na  Na74  1  0.25020403  0.16630863  0.62488321  1
  Na  Na75  1  0.24706399  0.16689364  0.87545879  1
  Na  Na76  1  0.24845655  0.50070125  0.12468989  1
  Na  Na77  1  0.25068834  0.49977218  0.37503653  1
  Na  Na78  1  0.24987725  0.50109231  0.62494614  1
  Na  Na79  1  0.25022734  0.50048998  0.87524338  1
  Na  Na80  1  0.24986758  0.83324552  0.12502043  1
  Na  Na81  1  0.24914528  0.83331229  0.37448100  1
  Na  Na82  1  0.24933653  0.83321984  0.62490631  1
  Na  Na83  1  0.25104526  0.83247141  0.87630164  1
  Na  Na84  1  0.75221728  0.16592056  0.12506711  1
  Na  Na85  1  0.75083733  0.16678032  0.37469357  1
  Na  Na86  1  0.75035006  0.16657795  0.62582156  1
  Na  Na87  1  0.75057380  0.16708231  0.87395114  1
  Na  Na88  1  0.74866802  0.50094911  0.12636176  1
  Na  Na89  1  0.74966671  0.50005928  0.37542687  1
  Na  Na90  1  0.74854903  0.50043304  0.62355846  1
  Na  Na91  1  0.74870859  0.50047702  0.87480994  1
  Na  Na92  1  0.75014944  0.83341651  0.12387781  1
  Na  Na93  1  0.74924725  0.83329433  0.37633651  1
  Na  Na94  1  0.74912023  0.83257705  0.62568725  1
  Na  Na95  1  0.74990759  0.83287870  0.87412022  1
  Mn  Mn96  1  0.89359386  0.91675156  0.62650759  1
  Mn  Mn97  1  0.89229620  0.58454494  0.87678189  1
  Mn  Mn98  1  0.85860899  0.08350181  0.75224927  1
  Mn  Mn99  1  0.10832643  0.08390206  0.37210466  1
  Mn  Mn100  1  0.39154879  0.58402587  0.12697149  1
  Mn  Mn101  1  0.64273484  0.24988096  0.99728981  1
  Mn  Mn102  1  0.85814681  0.74985337  0.50270438  1
  Mn  Mn103  1  0.14210761  0.91644944  0.74818807  1
  Mn  Mn104  1  0.85846305  0.41696373  0.25292603  1
  Mn  Mn105  1  0.39149374  0.24945515  0.12751254  1
  Mn  Mn106  1  0.89285414  0.58353610  0.62714430  1
  Mn  Mn107  1  0.85809516  0.41717605  0.00278422  1
  Mn  Mn108  1  0.14236903  0.25029259  0.24759125  1
  Mn  Mn109  1  0.64141640  0.91681049  0.49789179  1
  Mn  Mn110  1  0.14264952  0.25038449  0.49749143  1
  Mn  Mn111  1  0.85832201  0.08315941  0.50263811  1
  Mn  Mn112  1  0.64187389  0.25000963  0.49774164  1
  Mn  Mn113  1  0.64245778  0.58399164  0.24860126  1
  Mn  Mn114  1  0.35697171  0.41672837  0.00197028  1
  Mn  Mn115  1  0.60712161  0.08370992  0.37273824  1
  Mn  Mn116  1  0.35775421  0.74955708  0.00214661  1
  Mn  Mn117  1  0.35781597  0.08386115  0.25190125  1
  Mn  Mn118  1  0.60755841  0.41690999  0.12335193  1
  Mn  Mn119  1  0.89284315  0.58246286  0.12686373  1
  Mn  Mn120  1  0.14180042  0.91656880  0.99765634  1
  Mn  Mn121  1  0.60880691  0.74972702  0.12313135  1
  Mn  Mn122  1  0.60772403  0.41593644  0.87290810  1
  Mn  Mn123  1  0.10795311  0.41683424  0.87141118  1
  Mn  Mn124  1  0.60884627  0.08328008  0.12260728  1
  Mn  Mn125  1  0.35747454  0.08353213  0.00182226  1
  Mn  Mn126  1  0.89285419  0.24932242  0.87731433  1
  Mn  Mn127  1  0.39173875  0.25071915  0.62772737  1
  Mn  Mn128  1  0.35694089  0.08305049  0.75331409  1
  Mn  Mn129  1  0.64192215  0.91620159  0.74795079  1
  Mn  Mn130  1  0.14238217  0.91655051  0.24727723  1
  Mn  Mn131  1  0.39105845  0.91539020  0.62782984  1
  Mn  Mn132  1  0.35704810  0.74909006  0.25187220  1
  Mn  Mn133  1  0.89159110  0.91697063  0.12759334  1
  Mn  Mn134  1  0.35703796  0.74986372  0.50224746  1
  Mn  Mn135  1  0.85788143  0.74877872  0.75165543  1
  Mn  Mn136  1  0.89234866  0.91577746  0.37748206  1
  Mn  Mn137  1  0.85763902  0.41686780  0.50169994  1
  Mn  Mn138  1  0.35800497  0.41664124  0.75255198  1
  Mn  Mn139  1  0.10797524  0.41670155  0.62306093  1
  Mn  Mn140  1  0.64193587  0.25085853  0.74790361  1
  Mn  Mn141  1  0.60718372  0.08316623  0.62226004  1
  Mn  Mn142  1  0.89204470  0.25168811  0.37706432  1
  Mn  Mn143  1  0.60723202  0.74996370  0.37221206  1
  Fe  Fe144  1  0.14255308  0.25061364  0.74791808  1
  Fe  Fe145  1  0.64164221  0.58272817  0.74789157  1
  Fe  Fe146  1  0.60587264  0.41645014  0.37316857  1
  Fe  Fe147  1  0.10722682  0.75108300  0.87339197  1
  Fe  Fe148  1  0.64253627  0.58373979  0.99848462  1
  Fe  Fe149  1  0.10789911  0.41622565  0.12317947  1
  Fe  Fe150  1  0.64257765  0.24930891  0.24834603  1
  Fe  Fe151  1  0.10679985  0.08209575  0.87340301  1
  Fe  Fe152  1  0.89309937  0.25006109  0.62674409  1
  Fe  Fe153  1  0.60732680  0.75020846  0.87318348  1
  Fe  Fe154  1  0.39300142  0.58359415  0.62681288  1
  Fe  Fe155  1  0.39180681  0.24956638  0.87642231  1
  Fe  Fe156  1  0.64309153  0.91649087  0.99746949  1
  Fe  Fe157  1  0.60634249  0.74957810  0.62367842  1
  Fe  Fe158  1  0.10772562  0.08325478  0.62283382  1
  Fe  Fe159  1  0.39172847  0.58333453  0.37702247  1
  Fe  Fe160  1  0.10760671  0.74931605  0.37270120  1
  Fe  Fe161  1  0.39262136  0.24985812  0.37646547  1
  Fe  Fe162  1  0.14299467  0.91652955  0.49777669  1
  Fe  Fe163  1  0.85771052  0.08282993  0.00122521  1
  Fe  Fe164  1  0.14259102  0.58287388  0.24861064  1
  Fe  Fe165  1  0.60740712  0.08349243  0.87394250  1
  Fe  Fe166  1  0.39307885  0.58337635  0.87672886  1
  Fe  Fe167  1  0.85678600  0.41756240  0.75069059  1
  Fe  Fe168  1  0.89412148  0.58315276  0.37669379  1
  Fe  Fe169  1  0.64255825  0.91687727  0.24875402  1
  Fe  Fe170  1  0.14159084  0.25030330  0.99824593  1
  Fe  Fe171  1  0.35739917  0.74984409  0.75224854  1
  Fe  Fe172  1  0.10886824  0.75083669  0.62330290  1
  Fe  Fe173  1  0.14356213  0.58318496  0.49786717  1
  Fe  Fe174  1  0.35686168  0.08314241  0.50161796  1
  Fe  Fe175  1  0.14387395  0.58313561  0.74833092  1
  Fe  Fe176  1  0.35672746  0.41713335  0.25165404  1
  Fe  Fe177  1  0.39325097  0.91679830  0.87710926  1
  Fe  Fe178  1  0.64183973  0.58332650  0.49754615  1
  Fe  Fe179  1  0.89329468  0.25055188  0.12626214  1
  Fe  Fe180  1  0.10859732  0.41707936  0.37350571  1
  Fe  Fe181  1  0.10667166  0.75031046  0.12289415  1
  Fe  Fe182  1  0.89255523  0.91628474  0.87641095  1
  Fe  Fe183  1  0.39347529  0.91648936  0.12635384  1
  Fe  Fe184  1  0.35756168  0.41673890  0.50152001  1
  Fe  Fe185  1  0.85721251  0.08277400  0.25127022  1
  Fe  Fe186  1  0.85695256  0.74990182  0.00074619  1
  Fe  Fe187  1  0.14221175  0.58332664  0.99759582  1
  Fe  Fe188  1  0.39208382  0.91662267  0.37649874  1
  Fe  Fe189  1  0.10658896  0.08356524  0.12334319  1
  Fe  Fe190  1  0.60721081  0.41723975  0.62270386  1
  Fe  Fe191  1  0.85812973  0.75036535  0.25187818  1
  P  P192  1  0.05296940  0.25013382  0.10949887  1
  P  P193  1  0.05362304  0.25129874  0.35986759  1
  P  P194  1  0.05374959  0.24960107  0.61115145  1
  P  P195  1  0.05535709  0.24893783  0.86046903  1
  P  P196  1  0.05563722  0.58325536  0.11073653  1
  P  P197  1  0.05513890  0.58298278  0.36074186  1
  P  P198  1  0.05636208  0.58438746  0.61072859  1
  P  P199  1  0.05546111  0.58479047  0.86033460  1
  P  P200  1  0.05304943  0.91671450  0.11029796  1
  P  P201  1  0.05485030  0.91587970  0.36067180  1
  P  P202  1  0.05495403  0.91668554  0.60909653  1
  P  P203  1  0.05199176  0.91622150  0.86039871  1
  P  P204  1  0.55445952  0.25001324  0.11100207  1
  P  P205  1  0.55234485  0.25067474  0.35952317  1
  P  P206  1  0.55288347  0.25101696  0.60970921  1
  P  P207  1  0.55155036  0.24921597  0.86003938  1
  P  P208  1  0.55374815  0.58352440  0.10941482  1
  P  P209  1  0.55240104  0.58261732  0.36121443  1
  P  P210  1  0.55388874  0.58344458  0.61053123  1
  P  P211  1  0.55429187  0.58371384  0.86066240  1
  P  P212  1  0.55507777  0.91640060  0.11018802  1
  P  P213  1  0.55207875  0.91687199  0.35937347  1
  P  P214  1  0.55241873  0.91531577  0.61026320  1
  P  P215  1  0.55382476  0.91693385  0.86156175  1
  P  P216  1  0.44696680  0.08227223  0.13975651  1
  P  P217  1  0.44548087  0.08318344  0.39039300  1
  P  P218  1  0.44454925  0.08292216  0.63933962  1
  P  P219  1  0.44766837  0.08344483  0.89013344  1
  P  P220  1  0.44523290  0.41709225  0.14082119  1
  P  P221  1  0.44490463  0.41672048  0.38893001  1
  P  P222  1  0.44653351  0.41814401  0.63862264  1
  P  P223  1  0.44622793  0.41670874  0.88995957  1
  P  P224  1  0.44699684  0.75063689  0.13977832  1
  P  P225  1  0.44580941  0.74991170  0.38982836  1
  P  P226  1  0.44649696  0.74873722  0.64090000  1
  P  P227  1  0.44652514  0.74962323  0.88872828  1
  P  P228  1  0.94576284  0.08422088  0.13915596  1
  P  P229  1  0.94550302  0.08355712  0.38863536  1
  P  P230  1  0.94858050  0.08403306  0.63985521  1
  P  P231  1  0.94738736  0.08221169  0.89048909  1
  P  P232  1  0.94850032  0.41604125  0.13977687  1
  P  P233  1  0.94895658  0.41824834  0.39036450  1
  P  P234  1  0.94619911  0.41652239  0.64074200  1
  P  P235  1  0.94554377  0.41768053  0.88855896  1
  P  P236  1  0.94578627  0.74971409  0.13932625  1
  P  P237  1  0.94703113  0.74864706  0.38889550  1
  P  P238  1  0.94911755  0.74969849  0.63981169  1
  P  P239  1  0.94728335  0.75044471  0.89045505  1
  P  P240  1  0.19633045  0.08337083  0.23355559  1
  P  P241  1  0.19663267  0.08272276  0.48591950  1
  P  P242  1  0.19446579  0.08378798  0.73580427  1
  P  P243  1  0.19406163  0.08380166  0.98561991  1
  P  P244  1  0.19618129  0.41757927  0.23558909  1
  P  P245  1  0.19762026  0.41750488  0.48471098  1
  P  P246  1  0.19721900  0.41673235  0.73494392  1
  P  P247  1  0.19451534  0.41669525  0.98601254  1
  P  P248  1  0.19452592  0.74880362  0.23527010  1
  P  P249  1  0.19477802  0.74988312  0.48558591  1
  P  P250  1  0.19652915  0.74963634  0.73603301  1
  P  P251  1  0.19452329  0.74958937  0.98552706  1
  P  P252  1  0.69779123  0.08310041  0.23518407  1
  P  P253  1  0.69686161  0.08352966  0.48466265  1
  P  P254  1  0.69535715  0.08352010  0.73606532  1
  P  P255  1  0.69787953  0.08274940  0.98401672  1
  P  P256  1  0.69532609  0.41613750  0.23681876  1
  P  P257  1  0.69408815  0.41746067  0.48497116  1
  P  P258  1  0.69653723  0.41749941  0.73399105  1
  P  P259  1  0.69691873  0.41737035  0.98525445  1
  P  P260  1  0.69846088  0.75074283  0.23544176  1
  P  P261  1  0.69478346  0.74908573  0.48628684  1
  P  P262  1  0.69434327  0.74886144  0.73538345  1
  P  P263  1  0.69694497  0.75001657  0.98424033  1
  P  P264  1  0.30265216  0.24981132  0.01390268  1
  P  P265  1  0.30356285  0.25088359  0.26553197  1
  P  P266  1  0.30491237  0.25021934  0.51360081  1
  P  P267  1  0.30194946  0.24992263  0.76602002  1
  P  P268  1  0.30274550  0.58355707  0.01378766  1
  P  P269  1  0.30225014  0.58285468  0.26543080  1
  P  P270  1  0.30434043  0.58265137  0.51457015  1
  P  P271  1  0.30449519  0.58426078  0.76453880  1
  P  P272  1  0.30528996  0.91649032  0.01460961  1
  P  P273  1  0.30495038  0.91638731  0.26412789  1
  P  P274  1  0.30298200  0.91699441  0.51386240  1
  P  P275  1  0.30353194  0.91549981  0.76646440  1
  P  P276  1  0.80450827  0.24918547  0.01557896  1
  P  P277  1  0.80370310  0.24956131  0.26371450  1
  P  P278  1  0.80395811  0.25032784  0.51597212  1
  P  P279  1  0.80495203  0.25125868  0.76359709  1
  P  P280  1  0.80215730  0.58447167  0.01482981  1
  P  P281  1  0.80473140  0.58416640  0.26613458  1
  P  P282  1  0.80342712  0.58313516  0.51392235  1
  P  P283  1  0.80172660  0.58253727  0.76437313  1
  P  P284  1  0.80383037  0.91625365  0.01287206  1
  P  P285  1  0.80234086  0.91638627  0.26503660  1
  P  P286  1  0.80298155  0.91630390  0.51586610  1
  P  P287  1  0.80452462  0.91607431  0.76533199  1
  O  O288  1  0.05628398  0.25029405  0.18627035  1
  O  O289  1  0.05673086  0.25053219  0.43669729  1
  O  O290  1  0.05831276  0.25042964  0.68787193  1
  O  O291  1  0.05866609  0.25014764  0.93729923  1
  O  O292  1  0.05897561  0.58315784  0.18759025  1
  O  O293  1  0.05941032  0.58271183  0.43751290  1
  O  O294  1  0.06048149  0.58353298  0.68754142  1
  O  O295  1  0.05874480  0.58348823  0.93719416  1
  O  O296  1  0.05599775  0.91672570  0.18705161  1
  O  O297  1  0.05905156  0.91671957  0.43746064  1
  O  O298  1  0.05699297  0.91629191  0.68593117  1
  O  O299  1  0.05533465  0.91613348  0.93710364  1
  O  O300  1  0.55915156  0.24965162  0.18778028  1
  O  O301  1  0.55585826  0.24987700  0.43625412  1
  O  O302  1  0.55614923  0.25046916  0.68652764  1
  O  O303  1  0.55546093  0.24999116  0.93679638  1
  O  O304  1  0.55699459  0.58366403  0.18625436  1
  O  O305  1  0.55708650  0.58345569  0.43788839  1
  O  O306  1  0.55795010  0.58286520  0.68733927  1
  O  O307  1  0.55910409  0.58325604  0.93737818  1
  O  O308  1  0.55987032  0.91645621  0.18695814  1
  O  O309  1  0.55592841  0.91671007  0.43610664  1
  O  O310  1  0.55574272  0.91618328  0.68706530  1
  O  O311  1  0.55858959  0.91677060  0.93831016  1
  O  O312  1  0.44366134  0.08324504  0.06300582  1
  O  O313  1  0.44326167  0.08315768  0.31354407  1
  O  O314  1  0.44002415  0.08285527  0.56254996  1
  O  O315  1  0.44401763  0.08337177  0.81337081  1
  O  O316  1  0.44209896  0.41710242  0.06397516  1
  O  O317  1  0.44053910  0.41718244  0.31220460  1
  O  O318  1  0.44173498  0.41736309  0.56193368  1
  O  O319  1  0.44383201  0.41693094  0.81308892  1
  O  O320  1  0.44408398  0.74976339  0.06297262  1
  O  O321  1  0.44294903  0.74954186  0.31305443  1
  O  O322  1  0.44257362  0.74968424  0.56416838  1
  O  O323  1  0.44198292  0.74940691  0.81204474  1
  O  O324  1  0.94122612  0.08290238  0.06243073  1
  O  O325  1  0.94073027  0.08319820  0.31181457  1
  O  O326  1  0.94497213  0.08370191  0.56308903  1
  O  O327  1  0.94417903  0.08302056  0.81371596  1
  O  O328  1  0.94455348  0.41685547  0.06303289  1
  O  O329  1  0.94509917  0.41760530  0.31361153  1
  O  O330  1  0.94334984  0.41743107  0.56390346  1
  O  O331  1  0.94086123  0.41816726  0.81187256  1
  O  O332  1  0.94057374  0.74970828  0.06266335  1
  O  O333  1  0.94208739  0.74978167  0.31217337  1
  O  O334  1  0.94507666  0.74894077  0.56307551  1
  O  O335  1  0.94368782  0.74940181  0.81370274  1
  O  O336  1  0.18986395  0.08294204  0.06240595  1
  O  O337  1  0.19369052  0.08325067  0.31044544  1
  O  O338  1  0.19201690  0.08343928  0.56266282  1
  O  O339  1  0.19042426  0.08245614  0.81263129  1
  O  O340  1  0.19117226  0.41637750  0.06287644  1
  O  O341  1  0.19205487  0.41683690  0.31234182  1
  O  O342  1  0.19378297  0.41672682  0.56140871  1
  O  O343  1  0.19451047  0.41672694  0.81177815  1
  O  O344  1  0.19038153  0.75067897  0.06232647  1
  O  O345  1  0.19112726  0.74972654  0.31215148  1
  O  O346  1  0.19196628  0.75008270  0.56249902  1
  O  O347  1  0.19184632  0.75087538  0.81273283  1
  O  O348  1  0.69438522  0.08320195  0.06078832  1
  O  O349  1  0.69407955  0.08344408  0.31187945  1
  O  O350  1  0.69339243  0.08348411  0.56149973  1
  O  O351  1  0.69068922  0.08372931  0.81284858  1
  O  O352  1  0.69379197  0.41673088  0.06204209  1
  O  O353  1  0.69052972  0.41644269  0.31357226  1
  O  O354  1  0.69021906  0.41695147  0.56180879  1
  O  O355  1  0.69306835  0.41664482  0.81079074  1
  O  O356  1  0.69416050  0.75012550  0.06103011  1
  O  O357  1  0.69431189  0.74997293  0.31216419  1
  O  O358  1  0.69027417  0.74948237  0.56303633  1
  O  O359  1  0.69022153  0.74990424  0.81221638  1
  O  O360  1  0.30573921  0.24998964  0.18862817  1
  O  O361  1  0.30876826  0.25026900  0.43683656  1
  O  O362  1  0.30610268  0.24992271  0.68923729  1
  O  O363  1  0.30790630  0.24928212  0.93723054  1
  O  O364  1  0.30552242  0.58379440  0.18865945  1
  O  O365  1  0.30877731  0.58340669  0.43779536  1
  O  O366  1  0.30897079  0.58376699  0.68779599  1
  O  O367  1  0.30828687  0.58394274  0.93714029  1
  O  O368  1  0.30926319  0.91632944  0.18735150  1
  O  O369  1  0.30773046  0.91633142  0.43714090  1
  O  O370  1  0.30587263  0.91610530  0.68955469  1
  O  O371  1  0.31008784  0.91661355  0.93781716  1
  O  O372  1  0.80893378  0.25077991  0.18707203  1
  O  O373  1  0.80694574  0.25058416  0.43906863  1
  O  O374  1  0.80916632  0.24994916  0.68683711  1
  O  O375  1  0.80739483  0.25012337  0.93869567  1
  O  O376  1  0.80772647  0.58313399  0.18927805  1
  O  O377  1  0.80936191  0.58317908  0.43735329  1
  O  O378  1  0.80591577  0.58351865  0.68767741  1
  O  O379  1  0.80582135  0.58364075  0.93812378  1
  O  O380  1  0.80566788  0.91621282  0.18818356  1
  O  O381  1  0.80654262  0.91612258  0.43903664  1
  O  O382  1  0.80798432  0.91614772  0.68854506  1
  O  O383  1  0.80850577  0.91642335  0.93620879  1
  O  O384  1  0.23224612  0.25024856  0.03740809  1
  O  O385  1  0.23402166  0.25009120  0.29122907  1
  O  O386  1  0.23494372  0.25025434  0.53823935  1
  O  O387  1  0.23175558  0.24994703  0.78996272  1
  O  O388  1  0.23231318  0.58341981  0.03705090  1
  O  O389  1  0.23220559  0.58293008  0.29014082  1
  O  O390  1  0.23386493  0.58355177  0.53798560  1
  O  O391  1  0.23405459  0.58347862  0.78819795  1
  O  O392  1  0.23495227  0.91638995  0.03786723  1
  O  O393  1  0.23480951  0.91651445  0.28799849  1
  O  O394  1  0.23272380  0.91618663  0.53792023  1
  O  O395  1  0.23386588  0.91609385  0.79183207  1
  O  O396  1  0.73477659  0.24980493  0.04070500  1
  O  O397  1  0.73331921  0.24949296  0.28758008  1
  O  O398  1  0.73415657  0.25035377  0.54079042  1
  O  O399  1  0.73494152  0.25099431  0.78806046  1
  O  O400  1  0.73217825  0.58441972  0.03980289  1
  O  O401  1  0.73488310  0.58354686  0.29105067  1
  O  O402  1  0.73281704  0.58292427  0.53673859  1
  O  O403  1  0.73157059  0.58292515  0.78865583  1
  O  O404  1  0.73346494  0.91627490  0.03682866  1
  O  O405  1  0.73239967  0.91658887  0.29018597  1
  O  O406  1  0.73328099  0.91633415  0.54085127  1
  O  O407  1  0.73454328  0.91624334  0.78968883  1
  O  O408  1  0.26595877  0.08371839  0.20827210  1
  O  O409  1  0.26688828  0.08314549  0.46185380  1
  O  O410  1  0.26456999  0.08296434  0.71168147  1
  O  O411  1  0.26422171  0.08326009  0.96162242  1
  O  O412  1  0.26642508  0.41717447  0.21138553  1
  O  O413  1  0.26779428  0.41715380  0.46048575  1
  O  O414  1  0.26673779  0.41687029  0.70925910  1
  O  O415  1  0.26434219  0.41675897  0.96108512  1
  O  O416  1  0.26443141  0.74925874  0.21055325  1
  O  O417  1  0.26464203  0.74948752  0.46066824  1
  O  O418  1  0.26687488  0.74990605  0.71205596  1
  O  O419  1  0.26467096  0.74976237  0.96162510  1
  O  O420  1  0.76778971  0.08277523  0.21011270  1
  O  O421  1  0.76659469  0.08359315  0.45978454  1
  O  O422  1  0.76559302  0.08327157  0.71239012  1
  O  O423  1  0.76802742  0.08308713  0.95950026  1
  O  O424  1  0.76551618  0.41727858  0.21289633  1
  O  O425  1  0.76422743  0.41659174  0.46084334  1
  O  O426  1  0.76652527  0.41731253  0.70918724  1
  O  O427  1  0.76660071  0.41715368  0.95998162  1
  O  O428  1  0.76846930  0.75033719  0.21073256  1
  O  O429  1  0.76493929  0.74965905  0.46236932  1
  O  O430  1  0.76447107  0.74910495  0.71124948  1
  O  O431  1  0.76691175  0.74987544  0.95901845  1
  O  O432  1  0.01619890  0.08381809  0.16294037  1
  O  O433  1  0.01570140  0.08389171  0.41228389  1
  O  O434  1  0.01858419  0.08310483  0.66458603  1
  O  O435  1  0.01747331  0.08270585  0.91507407  1
  O  O436  1  0.01867618  0.41687132  0.16406857  1
  O  O437  1  0.01890458  0.41741150  0.41526192  1
  O  O438  1  0.01598547  0.41701220  0.66582614  1
  O  O439  1  0.01579828  0.41684491  0.91211870  1
  O  O440  1  0.01637403  0.74984055  0.16242106  1
  O  O441  1  0.01749586  0.74849800  0.41224982  1
  O  O442  1  0.01924837  0.75066497  0.66409425  1
  O  O443  1  0.01736400  0.74990274  0.91501761  1
  O  O444  1  0.51664530  0.08261378  0.16492042  1
  O  O445  1  0.51506671  0.08335881  0.41617973  1
  O  O446  1  0.51464079  0.08285384  0.66324827  1
  O  O447  1  0.51761548  0.08325131  0.91527654  1
  O  O448  1  0.51499554  0.41693538  0.16569651  1
  O  O449  1  0.51529773  0.41681368  0.41285809  1
  O  O450  1  0.51684826  0.41782843  0.66252302  1
  O  O451  1  0.51572211  0.41673006  0.91578593  1
  O  O452  1  0.51653226  0.75004409  0.16536896  1
  O  O453  1  0.51541935  0.74990846  0.41530436  1
  O  O454  1  0.51660072  0.74898689  0.66525056  1
  O  O455  1  0.51691571  0.74998340  0.91268954  1
  O  O456  1  0.48425112  0.25003699  0.08735216  1
  O  O457  1  0.48211248  0.25005372  0.33521225  1
  O  O458  1  0.48311615  0.25104902  0.58479341  1
  O  O459  1  0.48156772  0.24980588  0.83504349  1
  O  O460  1  0.48396044  0.58379193  0.08450381  1
  O  O461  1  0.48200014  0.58279481  0.33741613  1
  O  O462  1  0.48353310  0.58355391  0.58647078  1
  O  O463  1  0.48378999  0.58318183  0.83714805  1
  O  O464  1  0.48466600  0.91645245  0.08663375  1
  O  O465  1  0.48184693  0.91676949  0.33531010  1
  O  O466  1  0.48264550  0.91557288  0.58530539  1
  O  O467  1  0.48344642  0.91644740  0.83762065  1
  O  O468  1  0.98298842  0.24990897  0.08445576  1
  O  O469  1  0.98401499  0.25119933  0.33453228  1
  O  O470  1  0.98351733  0.25029751  0.58699390  1
  O  O471  1  0.98532598  0.24931981  0.83617505  1
  O  O472  1  0.98565876  0.58303274  0.08592721  1
  O  O473  1  0.98494836  0.58364438  0.33637969  1
  O  O474  1  0.98623581  0.58327731  0.58662882  1
  O  O475  1  0.98555173  0.58494910  0.83560669  1
  O  O476  1  0.98331562  0.91648333  0.08513621  1
  O  O477  1  0.98488370  0.91612289  0.33622767  1
  O  O478  1  0.98549066  0.91635446  0.58294750  1
  O  O479  1  0.98216128  0.91647630  0.83510505  1
  O  O480  1  0.08704509  0.31521442  0.07682843  1
  O  O481  1  0.08786088  0.31660860  0.32802739  1
  O  O482  1  0.08749681  0.31454825  0.57777673  1
  O  O483  1  0.08928878  0.31368630  0.82681159  1
  O  O484  1  0.08921138  0.64859302  0.07797245  1
  O  O485  1  0.08912722  0.64783444  0.32753751  1
  O  O486  1  0.08953926  0.64977399  0.57793384  1
  O  O487  1  0.08966473  0.65001300  0.82830914  1
  O  O488  1  0.08697355  0.98187677  0.07782788  1
  O  O489  1  0.08861180  0.98080198  0.32741583  1
  O  O490  1  0.08926112  0.98203834  0.57713625  1
  O  O491  1  0.08627364  0.98118189  0.82791814  1
  O  O492  1  0.58770042  0.31519516  0.07782533  1
  O  O493  1  0.58594790  0.31595625  0.32698298  1
  O  O494  1  0.58687643  0.31621898  0.57750544  1
  O  O495  1  0.58569025  0.31429723  0.82727831  1
  O  O496  1  0.58821575  0.64841879  0.07685033  1
  O  O497  1  0.58576984  0.64761076  0.32753225  1
  O  O498  1  0.58728006  0.64878389  0.57766528  1
  O  O499  1  0.58740285  0.64890389  0.82738694  1
  O  O500  1  0.58866691  0.98132948  0.07674103  1
  O  O501  1  0.58591530  0.98197118  0.32654727  1
  O  O502  1  0.58649939  0.98026522  0.57738084  1
  O  O503  1  0.58678422  0.98221524  0.82833435  1
  O  O504  1  0.41303422  0.01692970  0.17180166  1
  O  O505  1  0.41106660  0.01801331  0.42263025  1
  O  O506  1  0.41099313  0.01791673  0.67255760  1
  O  O507  1  0.41358435  0.01833866  0.92264242  1
  O  O508  1  0.41076295  0.35217728  0.17323496  1
  O  O509  1  0.41173927  0.35135919  0.42204905  1
  O  O510  1  0.41296503  0.35329810  0.67231078  1
  O  O511  1  0.41187389  0.35144991  0.92185479  1
  O  O512  1  0.41233092  0.68579644  0.17230164  1
  O  O513  1  0.41162478  0.68483692  0.42237445  1
  O  O514  1  0.41276343  0.68343321  0.67336655  1
  O  O515  1  0.41343696  0.68433051  0.92216374  1
  O  O516  1  0.91213248  0.01934660  0.17293413  1
  O  O517  1  0.91247230  0.01833691  0.42207262  1
  O  O518  1  0.91435406  0.01903374  0.67243533  1
  O  O519  1  0.91353255  0.01702496  0.92296717  1
  O  O520  1  0.91514153  0.35071728  0.17249011  1
  O  O521  1  0.91443699  0.35339594  0.42293283  1
  O  O522  1  0.91215807  0.35126563  0.67277669  1
  O  O523  1  0.91196844  0.35258953  0.92160282  1
  O  O524  1  0.91278452  0.68467084  0.17297922  1
  O  O525  1  0.91383915  0.68346394  0.42214758  1
  O  O526  1  0.91584507  0.68453547  0.67321620  1
  O  O527  1  0.91301025  0.68571668  0.92372950  1
  O  O528  1  0.16199628  0.01841023  0.20111839  1
  O  O529  1  0.16344704  0.01754244  0.45272468  1
  O  O530  1  0.16045758  0.01899121  0.70245877  1
  O  O531  1  0.16035944  0.01881830  0.95207699  1
  O  O532  1  0.16238381  0.35270714  0.20206543  1
  O  O533  1  0.16356365  0.35276062  0.45142794  1
  O  O534  1  0.16301736  0.35156656  0.70268423  1
  O  O535  1  0.16073802  0.35161078  0.95320710  1
  O  O536  1  0.16085729  0.68342497  0.20301797  1
  O  O537  1  0.16074677  0.68460906  0.45314656  1
  O  O538  1  0.16324816  0.68436472  0.70305663  1
  O  O539  1  0.16092704  0.68451456  0.95265930  1
  O  O540  1  0.66391710  0.01785100  0.20269850  1
  O  O541  1  0.66273947  0.01845678  0.45218122  1
  O  O542  1  0.66192143  0.01833510  0.70301452  1
  O  O543  1  0.66378554  0.01770177  0.95147440  1
  O  O544  1  0.66244999  0.35077857  0.20355621  1
  O  O545  1  0.65992790  0.35262471  0.45187618  1
  O  O546  1  0.66225143  0.35266202  0.70108609  1
  O  O547  1  0.66292551  0.35226775  0.95236548  1
  O  O548  1  0.66451120  0.68564214  0.20261180  1
  O  O549  1  0.66158384  0.68378264  0.45302152  1
  O  O550  1  0.66064909  0.68363907  0.70276881  1
  O  O551  1  0.66246747  0.68501320  0.95192793  1
  O  O552  1  0.33609999  0.31482654  0.04712736  1
  O  O553  1  0.33759129  0.31629431  0.29733475  1
  O  O554  1  0.33831751  0.31564015  0.54654151  1
  O  O555  1  0.33590716  0.31493582  0.79877078  1
  O  O556  1  0.33569788  0.64854899  0.04770828  1
  O  O557  1  0.33621871  0.64772600  0.29864473  1
  O  O558  1  0.33805797  0.64740098  0.54826294  1
  O  O559  1  0.33749671  0.64946143  0.79804762  1
  O  O560  1  0.33871858  0.98150374  0.04791923  1
  O  O561  1  0.33854438  0.98139498  0.29739480  1
  O  O562  1  0.33596793  0.98216617  0.54717802  1
  O  O563  1  0.33818124  0.98038982  0.79893230  1
  O  O564  1  0.83925462  0.31387421  0.04849466  1
  O  O565  1  0.83675442  0.31466662  0.29774809  1
  O  O566  1  0.83830666  0.31539530  0.54819880  1
  O  O567  1  0.83834203  0.31671630  0.79600842  1
  O  O568  1  0.83619745  0.64973389  0.04697228  1
  O  O569  1  0.83856815  0.64961015  0.29815071  1
  O  O570  1  0.83638965  0.64810676  0.54801038  1
  O  O571  1  0.83557916  0.64751645  0.79761418  1
  O  O572  1  0.83710837  0.98132459  0.04645877  1
  O  O573  1  0.83652198  0.98154351  0.29719719  1
  O  O574  1  0.83710146  0.98151938  0.54810269  1
  O  O575  1  0.83874734  0.98100265  0.79809247  1
  O  O576  1  0.41264006  0.14717990  0.17247057  1
  O  O577  1  0.41094966  0.14834575  0.42238283  1
  O  O578  1  0.41115180  0.14813480  0.67246225  1
  O  O579  1  0.41368938  0.14867129  0.92265799  1
  O  O580  1  0.41109203  0.48222202  0.17329193  1
  O  O581  1  0.41134488  0.48156886  0.42265897  1
  O  O582  1  0.41334148  0.48338227  0.67177056  1
  O  O583  1  0.41189824  0.48203721  0.92197437  1
  O  O584  1  0.41293202  0.81597050  0.17167731  1
  O  O585  1  0.41169817  0.81524001  0.42205086  1
  O  O586  1  0.41229766  0.81345969  0.67417200  1
  O  O587  1  0.41301457  0.81463125  0.92193766  1
  O  O588  1  0.91254156  0.14958270  0.17192161  1
  O  O589  1  0.91208854  0.14874601  0.42159788  1
  O  O590  1  0.91505031  0.14922491  0.67269429  1
  O  O591  1  0.91320614  0.14706500  0.92344247  1
  O  O592  1  0.91441263  0.48084115  0.17284475  1
  O  O593  1  0.91538520  0.48353428  0.42299649  1
  O  O594  1  0.91173093  0.48145858  0.67341134  1
  O  O595  1  0.91289246  0.48296068  0.92233318  1
  O  O596  1  0.91253247  0.81480505  0.17299466  1
  O  O597  1  0.91400366  0.81367658  0.42275876  1
  O  O598  1  0.91472282  0.81456370  0.67213349  1
  O  O599  1  0.91344936  0.81570876  0.92289393  1
  O  O600  1  0.08713737  0.18503895  0.07702384  1
  O  O601  1  0.08774846  0.18633277  0.32709974  1
  O  O602  1  0.08696760  0.18432980  0.57803155  1
  O  O603  1  0.08889469  0.18350258  0.82829701  1
  O  O604  1  0.08964597  0.51830160  0.07782969  1
  O  O605  1  0.08845517  0.51774949  0.32745979  1
  O  O606  1  0.09058299  0.51968006  0.57730697  1
  O  O607  1  0.08942577  0.51996870  0.82682783  1
  O  O608  1  0.08727332  0.85164397  0.07784916  1
  O  O609  1  0.08829172  0.85042526  0.32815197  1
  O  O610  1  0.08981250  0.85174885  0.57703406  1
  O  O611  1  0.08594389  0.85106757  0.82769741  1
  O  O612  1  0.58791121  0.18501683  0.07761193  1
  O  O613  1  0.58660497  0.18584294  0.32645416  1
  O  O614  1  0.58666313  0.18579407  0.57703905  1
  O  O615  1  0.58546405  0.18404746  0.82768343  1
  O  O616  1  0.58784100  0.51844467  0.07689286  1
  O  O617  1  0.58573939  0.51752337  0.32811322  1
  O  O618  1  0.58750820  0.51862942  0.57694441  1
  O  O619  1  0.58776024  0.51876548  0.82695259  1
  O  O620  1  0.58845660  0.85132851  0.07682166  1
  O  O621  1  0.58607732  0.85194620  0.32633066  1
  O  O622  1  0.58614336  0.84984421  0.57821090  1
  O  O623  1  0.58729539  0.85185459  0.82833741  1
  O  O624  1  0.33569003  0.18474554  0.04761719  1
  O  O625  1  0.33856476  0.18618588  0.29786880  1
  O  O626  1  0.33834550  0.18505701  0.54661769  1
  O  O627  1  0.33568241  0.18491066  0.79915296  1
  O  O628  1  0.33585451  0.51848599  0.04725705  1
  O  O629  1  0.33636745  0.51777253  0.29783802  1
  O  O630  1  0.33737835  0.51735184  0.54770862  1
  O  O631  1  0.33825547  0.51943663  0.79806197  1
  O  O632  1  0.33875778  0.85147521  0.04791552  1
  O  O633  1  0.33833722  0.85134119  0.29755881  1
  O  O634  1  0.33647434  0.85191717  0.54735991  1
  O  O635  1  0.33781038  0.85026854  0.79835609  1
  O  O636  1  0.83845024  0.18366201  0.04732556  1
  O  O637  1  0.83706226  0.18429941  0.29646291  1
  O  O638  1  0.83834416  0.18536602  0.54845787  1
  O  O639  1  0.83867225  0.18632072  0.79711387  1
  O  O640  1  0.83611192  0.51955112  0.04810001  1
  O  O641  1  0.83941071  0.51943171  0.29897490  1
  O  O642  1  0.83651391  0.51802759  0.54747344  1
  O  O643  1  0.83538579  0.51740347  0.79704908  1
  O  O644  1  0.83706105  0.85101829  0.04614526  1
  O  O645  1  0.83636854  0.85126732  0.29769081  1
  O  O646  1  0.83713290  0.85119853  0.54827411  1
  O  O647  1  0.83842109  0.85088872  0.79793656  1
  O  O648  1  0.16161740  0.14835684  0.20154125  1
  O  O649  1  0.16319608  0.14777767  0.45246988  1
  O  O650  1  0.16133134  0.14928591  0.70298439  1
  O  O651  1  0.16063477  0.14900565  0.95287321  1
  O  O652  1  0.16268596  0.48276213  0.20271876  1
  O  O653  1  0.16396154  0.48274576  0.45201976  1
  O  O654  1  0.16299389  0.48195132  0.70292330  1
  O  O655  1  0.16081322  0.48190545  0.95327053  1
  O  O656  1  0.16039766  0.81354505  0.20191182  1
  O  O657  1  0.16094065  0.81482617  0.45254412  1
  O  O658  1  0.16285360  0.81446962  0.70229664  1
  O  O659  1  0.16091301  0.81456272  0.95190305  1
  O  O660  1  0.66405745  0.14820267  0.20222910  1
  O  O661  1  0.66286526  0.14867580  0.45210711  1
  O  O662  1  0.66204556  0.14861195  0.70277100  1
  O  O663  1  0.66373900  0.14778975  0.95122331  1
  O  O664  1  0.66148188  0.48118546  0.20379055  1
  O  O665  1  0.66055922  0.48270977  0.45212881  1
  O  O666  1  0.66243178  0.48268989  0.70163240  1
  O  O667  1  0.66281737  0.48259492  0.95313921  1
  O  O668  1  0.66470203  0.81587561  0.20283708  1
  O  O669  1  0.66108464  0.81403553  0.45295814  1
  O  O670  1  0.66044207  0.81373194  0.70209820  1
  O  O671  1  0.66277614  0.81507283  0.95156586  1
