# generated using pymatgen
data_Na2MnFe(PO4)2
_symmetry_space_group_name_H-M   'P 1'
_cell_length_a   21.08907409
_cell_length_b   18.94160711
_cell_length_c   20.04783970
_cell_angle_alpha   90.00050982
_cell_angle_beta   89.99853609
_cell_angle_gamma   89.99925722
_symmetry_Int_Tables_number   1
_chemical_formula_structural   Na2MnFe(PO4)2
_chemical_formula_sum   'Na96 Mn48 Fe48 P96 O384'
_cell_volume   8008.32920219
_cell_formula_units_Z   48
loop_
 _symmetry_equiv_pos_site_id
 _symmetry_equiv_pos_as_xyz
  1  'x, y, z'
loop_
 _atom_site_type_symbol
 _atom_site_label
 _atom_site_symmetry_multiplicity
 _atom_site_fract_x
 _atom_site_fract_y
 _atom_site_fract_z
 _atom_site_occupancy
  Na  Na0  1  0.00098722  0.00034562  -0.00065248  1
  Na  Na1  1  -0.00175671  -0.00101000  0.25117748  1
  Na  Na2  1  0.00133946  0.00004120  0.49875100  1
  Na  Na3  1  0.00177990  0.00043868  0.75035684  1
  Na  Na4  1  -0.00362738  0.33282379  0.00069131  1
  Na  Na5  1  -0.00065355  0.33356431  0.25021774  1
  Na  Na6  1  0.00339472  0.33478705  0.49869201  1
  Na  Na7  1  -0.00071991  0.33330747  0.74962713  1
  Na  Na8  1  -0.00075733  0.66516691  0.00046825  1
  Na  Na9  1  0.00230237  0.66764417  0.24983796  1
  Na  Na10  1  0.00008266  0.66655504  0.50099489  1
  Na  Na11  1  -0.00026784  0.66631556  0.74950701  1
  Na  Na12  1  0.50023747  -0.00035925  -0.00022794  1
  Na  Na13  1  0.49933108  -0.00061954  0.25121422  1
  Na  Na14  1  0.50162595  0.00061110  0.49895781  1
  Na  Na15  1  0.50003659  -0.00084041  0.75022323  1
  Na  Na16  1  0.50146547  0.33378975  0.00141508  1
  Na  Na17  1  0.49897668  0.33273744  0.24988091  1
  Na  Na18  1  0.50106998  0.33369437  0.49966938  1
  Na  Na19  1  0.50090099  0.33307601  0.74962169  1
  Na  Na20  1  0.49916384  0.66587162  0.00053363  1
  Na  Na21  1  0.50013176  0.66708844  0.24890052  1
  Na  Na22  1  0.49847760  0.66591808  0.49992021  1
  Na  Na23  1  0.50090060  0.66681882  0.75005623  1
  Na  Na24  1  0.25004195  -0.00001039  0.12390632  1
  Na  Na25  1  0.25042923  0.00007002  0.37493764  1
  Na  Na26  1  0.24946879  -0.00068285  0.62528454  1
  Na  Na27  1  0.24986859  -0.00032797  0.87527241  1
  Na  Na28  1  0.25023962  0.33400502  0.12557213  1
  Na  Na29  1  0.25022230  0.33363115  0.37554855  1
  Na  Na30  1  0.24912078  0.33267217  0.62472066  1
  Na  Na31  1  0.24917092  0.33365880  0.87509072  1
  Na  Na32  1  0.25137772  0.66703897  0.12604381  1
  Na  Na33  1  0.25017184  0.66652687  0.37423591  1
  Na  Na34  1  0.25131510  0.66698456  0.62492030  1
  Na  Na35  1  0.24997010  0.66591733  0.87496374  1
  Na  Na36  1  0.75040791  -0.00029865  0.12583454  1
  Na  Na37  1  0.75102107  0.00016768  0.37505439  1
  Na  Na38  1  0.74675432  -0.00134277  0.62367775  1
  Na  Na39  1  0.74849262  -0.00029203  0.87566566  1
  Na  Na40  1  0.75203259  0.33423045  0.12502075  1
  Na  Na41  1  0.74798526  0.33250290  0.37389548  1
  Na  Na42  1  0.74794940  0.33314654  0.62544525  1
  Na  Na43  1  0.75038608  0.33347730  0.87524833  1
  Na  Na44  1  0.75009673  0.66625080  0.12539131  1
  Na  Na45  1  0.74877754  0.66578801  0.37385225  1
  Na  Na46  1  0.75057078  0.66732241  0.62461686  1
  Na  Na47  1  0.74912376  0.66604016  0.87568440  1
  Na  Na48  1  -0.00216292  0.16725610  0.00031826  1
  Na  Na49  1  -0.00056655  0.16689278  0.25120004  1
  Na  Na50  1  0.00214759  0.16552281  0.49863710  1
  Na  Na51  1  -0.00084308  0.16697368  0.74958843  1
  Na  Na52  1  0.00000148  0.50031516  0.00052621  1
  Na  Na53  1  0.00104193  0.49979539  0.24941280  1
  Na  Na54  1  0.00224381  0.49958509  0.49941120  1
  Na  Na55  1  0.00113481  0.49973347  0.75032338  1
  Na  Na56  1  -0.00049938  0.83361490  -0.00020519  1
  Na  Na57  1  -0.00139996  0.83430581  0.25020943  1
  Na  Na58  1  0.00085445  0.83305213  0.50054906  1
  Na  Na59  1  0.00046913  0.83342981  0.74952625  1
  Na  Na60  1  0.50105076  0.16669797  0.00053358  1
  Na  Na61  1  0.50027578  0.16688325  0.25061187  1
  Na  Na62  1  0.50004615  0.16763599  0.49907553  1
  Na  Na63  1  0.50251829  0.16613600  0.75001942  1
  Na  Na64  1  0.50090561  0.50054871  0.00043652  1
  Na  Na65  1  0.50049442  0.49977744  0.24990154  1
  Na  Na66  1  0.50002484  0.49992860  0.49941198  1
  Na  Na67  1  0.50188283  0.49949375  0.75055245  1
  Na  Na68  1  0.49817784  0.83394410  0.00043753  1
  Na  Na69  1  0.49786624  0.83361812  0.24966998  1
  Na  Na70  1  0.50033040  0.83269428  0.49985618  1
  Na  Na71  1  0.49872018  0.83387075  0.74952870  1
  Na  Na72  1  0.25008918  0.16663380  0.12463485  1
  Na  Na73  1  0.25154699  0.16631683  0.37595303  1
  Na  Na74  1  0.24940877  0.16746040  0.62455609  1
  Na  Na75  1  0.25021021  0.16624183  0.87537614  1
  Na  Na76  1  0.24897997  0.49981003  0.12514296  1
  Na  Na77  1  0.24823407  0.50048963  0.37514762  1
  Na  Na78  1  0.24892203  0.50025904  0.62454012  1
  Na  Na79  1  0.24740228  0.50080048  0.87540850  1
  Na  Na80  1  0.25256207  0.83274932  0.12571629  1
  Na  Na81  1  0.25077087  0.83366401  0.37376204  1
  Na  Na82  1  0.25146953  0.83334108  0.62594913  1
  Na  Na83  1  0.25189764  0.83329815  0.87459850  1
  Na  Na84  1  0.75036036  0.16696484  0.12400820  1
  Na  Na85  1  0.74940582  0.16672729  0.37496786  1
  Na  Na86  1  0.74682731  0.16771752  0.62473539  1
  Na  Na87  1  0.74962308  0.16639615  0.87607729  1
  Na  Na88  1  0.75087535  0.49992851  0.12540740  1
  Na  Na89  1  0.74880044  0.50035809  0.37433519  1
  Na  Na90  1  0.74891193  0.50040681  0.62497384  1
  Na  Na91  1  0.75011262  0.50051941  0.87533777  1
  Na  Na92  1  0.75055014  0.83323496  0.12686892  1
  Na  Na93  1  0.75019060  0.83343558  0.37346490  1
  Na  Na94  1  0.74849121  0.83371844  0.62431667  1
  Na  Na95  1  0.74777587  0.83416182  0.87526776  1
  Mn  Mn96  1  0.35747243  0.41711781  0.50224743  1
  Mn  Mn97  1  0.89237944  0.58280487  0.62696406  1
  Mn  Mn98  1  0.10822575  0.75053541  0.12208814  1
  Mn  Mn99  1  0.10798446  0.74970622  0.87350411  1
  Mn  Mn100  1  0.39233256  0.24985574  0.12764925  1
  Mn  Mn101  1  0.10739474  0.08402623  0.87285676  1
  Mn  Mn102  1  0.85755440  0.41682188  0.50162023  1
  Mn  Mn103  1  0.35820196  0.74946242  0.75241163  1
  Mn  Mn104  1  0.60808706  0.08354374  0.87262890  1
  Mn  Mn105  1  0.14293906  0.25002612  0.24756659  1
  Mn  Mn106  1  0.89219597  0.25018809  0.37779406  1
  Mn  Mn107  1  0.89298148  0.58417905  0.37678195  1
  Mn  Mn108  1  0.35791814  0.08276538  0.50319585  1
  Mn  Mn109  1  0.35761240  0.41663401  0.75241295  1
  Mn  Mn110  1  0.14259904  0.91677655  0.24724812  1
  Mn  Mn111  1  0.60756297  0.41627903  0.62249000  1
  Mn  Mn112  1  0.64315113  0.25034669  0.99804010  1
  Mn  Mn113  1  0.85777692  0.08279574  0.00296269  1
  Mn  Mn114  1  0.85751750  0.74987186  0.00240307  1
  Mn  Mn115  1  0.89223730  0.24987351  0.62599803  1
  Mn  Mn116  1  0.14281511  0.91635554  0.74786522  1
  Mn  Mn117  1  0.89126401  0.91648276  0.87712708  1
  Mn  Mn118  1  0.64280863  0.91688284  0.24750531  1
  Mn  Mn119  1  0.14274764  0.58417408  0.49746552  1
  Mn  Mn120  1  0.39282665  0.25020354  0.87719650  1
  Mn  Mn121  1  0.10807922  0.08286428  0.37206110  1
  Mn  Mn122  1  0.10840740  0.75044921  0.62211660  1
  Mn  Mn123  1  0.85714560  0.75044841  0.75228408  1
  Mn  Mn124  1  0.64158347  0.58369248  0.49750159  1
  Mn  Mn125  1  0.39241003  0.58282263  0.87747803  1
  Mn  Mn126  1  0.35774481  0.41731403  0.00200512  1
  Mn  Mn127  1  0.85682862  0.08295287  0.75082206  1
  Mn  Mn128  1  0.60736089  0.75002520  0.62203149  1
  Mn  Mn129  1  0.60673081  0.75068587  0.12272470  1
  Mn  Mn130  1  0.89209925  0.91725099  0.62672562  1
  Mn  Mn131  1  0.35794050  0.08325212  0.00279768  1
  Mn  Mn132  1  0.10658145  0.41632535  0.87330978  1
  Mn  Mn133  1  0.60731418  0.74954680  0.87334611  1
  Mn  Mn134  1  0.60794015  0.41650611  0.12308296  1
  Mn  Mn135  1  0.35832991  0.08393667  0.75160669  1
  Mn  Mn136  1  0.39238664  0.91688001  0.37778762  1
  Mn  Mn137  1  0.85821098  0.74972173  0.25281102  1
  Mn  Mn138  1  0.60787238  0.08348058  0.37173990  1
  Mn  Mn139  1  0.14115987  0.25030212  0.74745317  1
  Mn  Mn140  1  0.85746420  0.41672847  0.75178893  1
  Mn  Mn141  1  0.39252710  0.58262703  0.37650737  1
  Mn  Mn142  1  0.85697561  0.08328440  0.50297520  1
  Mn  Mn143  1  0.14084911  0.25005676  0.99806579  1
  Fe  Fe144  1  0.39337741  0.25047257  0.37663210  1
  Fe  Fe145  1  0.60747758  0.08271491  0.12438211  1
  Fe  Fe146  1  0.89318202  0.91587240  0.37767457  1
  Fe  Fe147  1  0.14331318  0.91643286  0.49856143  1
  Fe  Fe148  1  0.35727100  0.74950131  0.00151159  1
  Fe  Fe149  1  0.35680920  0.41652061  0.25192117  1
  Fe  Fe150  1  0.35789923  0.08396808  0.25105375  1
  Fe  Fe151  1  0.89224351  0.58314597  0.87687092  1
  Fe  Fe152  1  0.85733266  0.41753262  0.00178906  1
  Fe  Fe153  1  0.64313560  0.25011200  0.24803609  1
  Fe  Fe154  1  0.64250684  0.25008613  0.74820682  1
  Fe  Fe155  1  0.64115631  0.91648867  0.74787600  1
  Fe  Fe156  1  0.14263918  0.58412483  0.99877924  1
  Fe  Fe157  1  0.10800258  0.74998792  0.37382429  1
  Fe  Fe158  1  0.10788553  0.41723049  0.37218090  1
  Fe  Fe159  1  0.64300264  0.58356181  0.99872087  1
  Fe  Fe160  1  0.85715170  0.74995873  0.50076946  1
  Fe  Fe161  1  0.39297267  0.91692325  0.87726687  1
  Fe  Fe162  1  0.10803893  0.08379024  0.62314906  1
  Fe  Fe163  1  0.39328823  0.91712869  0.62620743  1
  Fe  Fe164  1  0.14217121  0.58336412  0.74833301  1
  Fe  Fe165  1  0.85719125  0.41649867  0.25202991  1
  Fe  Fe166  1  0.60725532  0.74923820  0.37325635  1
  Fe  Fe167  1  0.89300825  0.58329632  0.12706088  1
  Fe  Fe168  1  0.64275222  0.58361540  0.74828555  1
  Fe  Fe169  1  0.39241992  0.58282346  0.62735590  1
  Fe  Fe170  1  0.89109332  0.25029173  0.87602427  1
  Fe  Fe171  1  0.64197284  0.91597211  0.99924076  1
  Fe  Fe172  1  0.14326446  0.58345114  0.24786223  1
  Fe  Fe173  1  0.35767776  0.75025619  0.50097677  1
  Fe  Fe174  1  0.14329511  0.24936058  0.49817113  1
  Fe  Fe175  1  0.85751307  0.08393855  0.25099959  1
  Fe  Fe176  1  0.10697614  0.08360609  0.12414053  1
  Fe  Fe177  1  0.14306161  0.91587880  0.99883733  1
  Fe  Fe178  1  0.39223110  0.58314353  0.12696086  1
  Fe  Fe179  1  0.39306953  0.25003369  0.62675771  1
  Fe  Fe180  1  0.64156021  0.24996247  0.49758554  1
  Fe  Fe181  1  0.10642626  0.41602391  0.12359414  1
  Fe  Fe182  1  0.10774358  0.41587616  0.62315929  1
  Fe  Fe183  1  0.35709314  0.74950068  0.25237758  1
  Fe  Fe184  1  0.89261566  0.91694237  0.12606643  1
  Fe  Fe185  1  0.60691754  0.08328327  0.62331241  1
  Fe  Fe186  1  0.60727772  0.41719275  0.37242376  1
  Fe  Fe187  1  0.39243263  0.91721860  0.12646261  1
  Fe  Fe188  1  0.60868048  0.41672286  0.87385035  1
  Fe  Fe189  1  0.64241046  0.91598874  0.49764236  1
  Fe  Fe190  1  0.64276980  0.58275054  0.24770465  1
  Fe  Fe191  1  0.89267106  0.24969045  0.12755940  1
  P  P192  1  0.05175846  0.25004499  0.11089841  1
  P  P193  1  0.05504815  0.25058563  0.36074694  1
  P  P194  1  0.05395791  0.24986486  0.60872458  1
  P  P195  1  0.05078898  0.25039758  0.86011892  1
  P  P196  1  0.05427296  0.58255075  0.11105902  1
  P  P197  1  0.05492716  0.58402540  0.35924569  1
  P  P198  1  0.05494211  0.58248961  0.61098185  1
  P  P199  1  0.05366924  0.58342318  0.86089187  1
  P  P200  1  0.05267102  0.91764087  0.10979238  1
  P  P201  1  0.05413794  0.91532931  0.36119372  1
  P  P202  1  0.05435594  0.91771964  0.60912511  1
  P  P203  1  0.05441776  0.91621013  0.86115146  1
  P  P204  1  0.55503373  0.24905969  0.11166968  1
  P  P205  1  0.55443312  0.25110745  0.35999794  1
  P  P206  1  0.55389277  0.24918927  0.61032892  1
  P  P207  1  0.55468718  0.25115744  0.85981505  1
  P  P208  1  0.55373931  0.58334876  0.11074007  1
  P  P209  1  0.55416652  0.58353450  0.35902393  1
  P  P210  1  0.55276345  0.58325031  0.61093418  1
  P  P211  1  0.55545621  0.58257397  0.86095017  1
  P  P212  1  0.55229075  0.91741204  0.11019916  1
  P  P213  1  0.55477360  0.91520756  0.36082306  1
  P  P214  1  0.55381611  0.91724146  0.61008304  1
  P  P215  1  0.55356660  0.91607315  0.86081544  1
  P  P216  1  0.44766037  0.08260090  0.14081393  1
  P  P217  1  0.44539929  0.08450388  0.38885121  1
  P  P218  1  0.44813842  0.08348259  0.63950328  1
  P  P219  1  0.44691857  0.08303651  0.89008052  1
  P  P220  1  0.44575585  0.41769153  0.14072852  1
  P  P221  1  0.44666150  0.41600513  0.38849605  1
  P  P222  1  0.44633083  0.41650708  0.63987113  1
  P  P223  1  0.44882803  0.41655139  0.89037279  1
  P  P224  1  0.44378688  0.74976932  0.13904357  1
  P  P225  1  0.44610907  0.74947516  0.38922501  1
  P  P226  1  0.44509995  0.74998626  0.63840772  1
  P  P227  1  0.44582396  0.75026576  0.89076520  1
  P  P228  1  0.94728749  0.08313146  0.14069481  1
  P  P229  1  0.94489237  0.08258288  0.38885612  1
  P  P230  1  0.94823874  0.08332104  0.63947412  1
  P  P231  1  0.94556892  0.08383557  0.88964766  1
  P  P232  1  0.94530500  0.41710538  0.13941787  1
  P  P233  1  0.94708186  0.41729666  0.38862686  1
  P  P234  1  0.94807537  0.41636817  0.63943300  1
  P  P235  1  0.94506381  0.41721850  0.89046932  1
  P  P236  1  0.94670697  0.74987765  0.13988446  1
  P  P237  1  0.94786743  0.75041519  0.39076398  1
  P  P238  1  0.94553052  0.75028216  0.63884524  1
  P  P239  1  0.94642554  0.74903104  0.88999729  1
  P  P240  1  0.19792314  0.08346293  0.23428347  1
  P  P241  1  0.19563722  0.08295550  0.48616539  1
  P  P242  1  0.19624452  0.08353000  0.73427452  1
  P  P243  1  0.19491648  0.08250171  0.98646730  1
  P  P244  1  0.19579918  0.41724769  0.23558607  1
  P  P245  1  0.19483057  0.41580675  0.48540526  1
  P  P246  1  0.19551612  0.41737516  0.73453921  1
  P  P247  1  0.19471687  0.41744443  0.98662012  1
  P  P248  1  0.19670960  0.74956022  0.23619344  1
  P  P249  1  0.19807993  0.75117651  0.48422731  1
  P  P250  1  0.19670101  0.74916086  0.73520281  1
  P  P251  1  0.19813720  0.74999052  0.98555254  1
  P  P252  1  0.69754713  0.08419510  0.23441838  1
  P  P253  1  0.69441262  0.08315753  0.48592290  1
  P  P254  1  0.69524544  0.08327304  0.73426252  1
  P  P255  1  0.69516017  0.08200910  0.98698581  1
  P  P256  1  0.69648705  0.41655279  0.23597496  1
  P  P257  1  0.69543968  0.41613111  0.48386113  1
  P  P258  1  0.69528609  0.41702997  0.73641122  1
  P  P259  1  0.69755129  0.41758105  0.98512788  1
  P  P260  1  0.69527982  0.74903727  0.23604181  1
  P  P261  1  0.69692156  0.75052639  0.48365123  1
  P  P262  1  0.69568327  0.74977692  0.73504080  1
  P  P263  1  0.69618620  0.75017406  0.98597380  1
  P  P264  1  0.30287273  0.25045110  0.01521847  1
  P  P265  1  0.30436495  0.25015502  0.26572365  1
  P  P266  1  0.30431078  0.25019724  0.51440394  1
  P  P267  1  0.30399142  0.25006835  0.76422530  1
  P  P268  1  0.30274187  0.58380936  0.01575072  1
  P  P269  1  0.30357682  0.58260612  0.26369388  1
  P  P270  1  0.30438453  0.58419696  0.51510156  1
  P  P271  1  0.30300974  0.58266885  0.76431163  1
  P  P272  1  0.30417324  0.91581068  0.01430689  1
  P  P273  1  0.30530082  0.91737822  0.26348046  1
  P  P274  1  0.30311513  0.91575875  0.51543559  1
  P  P275  1  0.30595594  0.91723264  0.76460870  1
  P  P276  1  0.80565764  0.25102243  0.01461697  1
  P  P277  1  0.80399858  0.24989747  0.26361983  1
  P  P278  1  0.80106125  0.25039549  0.51478939  1
  P  P279  1  0.80205053  0.24960253  0.76488454  1
  P  P280  1  0.80398651  0.58274821  0.01478939  1
  P  P281  1  0.80380840  0.58238223  0.26371275  1
  P  P282  1  0.80315196  0.58411845  0.51440594  1
  P  P283  1  0.80266724  0.58349465  0.76542762  1
  P  P284  1  0.80208956  0.91626755  0.01609992  1
  P  P285  1  0.80609255  0.91779649  0.26446513  1
  P  P286  1  0.80307388  0.91535714  0.51338702  1
  P  P287  1  0.80085804  0.91703527  0.76455055  1
  O  O288  1  0.05586782  0.25021073  0.18753163  1
  O  O289  1  0.05962994  0.24982828  0.43740707  1
  O  O290  1  0.05580288  0.24983773  0.68560579  1
  O  O291  1  0.05461307  0.25040455  0.93679998  1
  O  O292  1  0.05940466  0.58356623  0.18768776  1
  O  O293  1  0.05748438  0.58403810  0.43609445  1
  O  O294  1  0.05857461  0.58345103  0.68774561  1
  O  O295  1  0.05867134  0.58392519  0.93760606  1
  O  O296  1  0.05632510  0.91669367  0.18653827  1
  O  O297  1  0.05940478  0.91589556  0.43775195  1
  O  O298  1  0.05732662  0.91668205  0.68593064  1
  O  O299  1  0.05917115  0.91571719  0.93787238  1
  O  O300  1  0.55924180  0.24993393  0.18840411  1
  O  O301  1  0.55854396  0.25042557  0.43676301  1
  O  O302  1  0.55874727  0.24998781  0.68698790  1
  O  O303  1  0.55765191  0.25056074  0.93664919  1
  O  O304  1  0.55887737  0.58311583  0.18739339  1
  O  O305  1  0.55646162  0.58357559  0.43586263  1
  O  O306  1  0.55802837  0.58358078  0.68753856  1
  O  O307  1  0.55971085  0.58342056  0.93774799  1
  O  O308  1  0.55629953  0.91644922  0.18688367  1
  O  O309  1  0.55887720  0.91568676  0.43757967  1
  O  O310  1  0.55798365  0.91625065  0.68685938  1
  O  O311  1  0.55834630  0.91598481  0.93746916  1
  O  O312  1  0.44418873  0.08329121  0.06408792  1
  O  O313  1  0.44116648  0.08369228  0.31218077  1
  O  O314  1  0.44483060  0.08351377  0.56275315  1
  O  O315  1  0.44407810  0.08360590  0.81334938  1
  O  O316  1  0.44294041  0.41733032  0.06394630  1
  O  O317  1  0.44145135  0.41663662  0.31191023  1
  O  O318  1  0.44343801  0.41670955  0.56307038  1
  O  O319  1  0.44459080  0.41669191  0.81371837  1
  O  O320  1  0.44019537  0.74939805  0.06225945  1
  O  O321  1  0.44099041  0.74964135  0.31252058  1
  O  O322  1  0.44144394  0.74995179  0.56163799  1
  O  O323  1  0.44341709  0.74935086  0.81392684  1
  O  O324  1  0.94393606  0.08308020  0.06395694  1
  O  O325  1  0.94051004  0.08368499  0.31216737  1
  O  O326  1  0.94391907  0.08300699  0.56275609  1
  O  O327  1  0.94255246  0.08299859  0.81289203  1
  O  O328  1  0.94090334  0.41761205  0.06273117  1
  O  O329  1  0.94147077  0.41687271  0.31201379  1
  O  O330  1  0.94422205  0.41673465  0.56272983  1
  O  O331  1  0.94271555  0.41740378  0.81360873  1
  O  O332  1  0.94345964  0.74937625  0.06317035  1
  O  O333  1  0.94406791  0.74985821  0.31399295  1
  O  O334  1  0.94084819  0.75025601  0.56214252  1
  O  O335  1  0.94350967  0.74985036  0.81319669  1
  O  O336  1  0.19024732  0.08358431  0.06319644  1
  O  O337  1  0.19403356  0.08330585  0.31102407  1
  O  O338  1  0.19181684  0.08328389  0.56286806  1
  O  O339  1  0.19305096  0.08365392  0.81110632  1
  O  O340  1  0.19036169  0.41612776  0.06335610  1
  O  O341  1  0.19139348  0.41667772  0.31233610  1
  O  O342  1  0.19111287  0.41624690  0.56214844  1
  O  O343  1  0.19229549  0.41658197  0.81136142  1
  O  O344  1  0.19484565  0.75031660  0.06229868  1
  O  O345  1  0.19185490  0.75029397  0.31277748  1
  O  O346  1  0.19455138  0.75057706  0.56093394  1
  O  O347  1  0.19361268  0.74966913  0.81195261  1
  O  O348  1  0.69120431  0.08256766  0.06368074  1
  O  O349  1  0.69385934  0.08344159  0.31117114  1
  O  O350  1  0.69025931  0.08323996  0.56263827  1
  O  O351  1  0.69325611  0.08317615  0.81114792  1
  O  O352  1  0.69393942  0.41689221  0.06184033  1
  O  O353  1  0.69162146  0.41668753  0.31257810  1
  O  O354  1  0.69249914  0.41686809  0.56071802  1
  O  O355  1  0.69230388  0.41687349  0.81314385  1
  O  O356  1  0.69347734  0.75009730  0.06273036  1
  O  O357  1  0.69108537  0.74959389  0.31269627  1
  O  O358  1  0.69309020  0.75012468  0.56039431  1
  O  O359  1  0.69291323  0.74991293  0.81177415  1
  O  O360  1  0.30677758  0.25017670  0.18889284  1
  O  O361  1  0.30943514  0.25039202  0.43777582  1
  O  O362  1  0.30907939  0.24989814  0.68749137  1
  O  O363  1  0.30632228  0.25041722  0.93845773  1
  O  O364  1  0.30790553  0.58249503  0.18707343  1
  O  O365  1  0.30731917  0.58300746  0.43831236  1
  O  O366  1  0.30827315  0.58253434  0.68767933  1
  O  O367  1  0.30634798  0.58278596  0.93900922  1
  O  O368  1  0.30906998  0.91763992  0.18671788  1
  O  O369  1  0.30670371  0.91680989  0.43865516  1
  O  O370  1  0.31043084  0.91748605  0.68784553  1
  O  O371  1  0.30869998  0.91694956  0.93760264  1
  O  O372  1  0.80884011  0.24989815  0.18690427  1
  O  O373  1  0.80554840  0.25029542  0.43809292  1
  O  O374  1  0.80593931  0.24986974  0.68818958  1
  O  O375  1  0.80894080  0.24997080  0.93781436  1
  O  O376  1  0.80896624  0.58321146  0.18708003  1
  O  O377  1  0.80648276  0.58331342  0.43766301  1
  O  O378  1  0.80666102  0.58328620  0.68870478  1
  O  O379  1  0.80846055  0.58352751  0.93813223  1
  O  O380  1  0.81031965  0.91680864  0.18770274  1
  O  O381  1  0.80831811  0.91598062  0.43674856  1
  O  O382  1  0.80531364  0.91702328  0.68788559  1
  O  O383  1  0.80562144  0.91651025  0.93937128  1
  O  O384  1  0.23315556  0.25033265  0.04020298  1
  O  O385  1  0.23475186  0.25011445  0.29114821  1
  O  O386  1  0.23378633  0.24982953  0.53749370  1
  O  O387  1  0.23384331  0.25016340  0.78799203  1
  O  O388  1  0.23267509  0.58364089  0.04034875  1
  O  O389  1  0.23337873  0.58306658  0.28792557  1
  O  O390  1  0.23452255  0.58369252  0.53979457  1
  O  O391  1  0.23269421  0.58315526  0.78787846  1
  O  O392  1  0.23386223  0.91617449  0.03832036  1
  O  O393  1  0.23534887  0.91698767  0.28799013  1
  O  O394  1  0.23311182  0.91627551  0.53995253  1
  O  O395  1  0.23579353  0.91666695  0.78828435  1
  O  O396  1  0.73564159  0.25060306  0.03900306  1
  O  O397  1  0.73361716  0.24985340  0.28728447  1
  O  O398  1  0.73088530  0.25041166  0.53870028  1
  O  O399  1  0.73199639  0.24984358  0.78939680  1
  O  O400  1  0.73356795  0.58329615  0.03855208  1
  O  O401  1  0.73339890  0.58262170  0.28706933  1
  O  O402  1  0.73342971  0.58397673  0.53947330  1
  O  O403  1  0.73253133  0.58332002  0.78955632  1
  O  O404  1  0.73212927  0.91616385  0.04089273  1
  O  O405  1  0.73581007  0.91689037  0.28797283  1
  O  O406  1  0.73259480  0.91593271  0.53670148  1
  O  O407  1  0.73066488  0.91691737  0.78861519  1
  O  O408  1  0.26803709  0.08359536  0.21003423  1
  O  O409  1  0.26563003  0.08289187  0.46176481  1
  O  O410  1  0.26594944  0.08351440  0.70928081  1
  O  O411  1  0.26501086  0.08276602  0.96249185  1
  O  O412  1  0.26619972  0.41659379  0.21207918  1
  O  O413  1  0.26493098  0.41713701  0.46121772  1
  O  O414  1  0.26519229  0.41659250  0.70941707  1
  O  O415  1  0.26463861  0.41749333  0.96207026  1
  O  O416  1  0.26717146  0.74977077  0.21282840  1
  O  O417  1  0.26807477  0.75027622  0.45946436  1
  O  O418  1  0.26642940  0.74967725  0.71029914  1
  O  O419  1  0.26793275  0.74957653  0.96025665  1
  O  O420  1  0.76762663  0.08370303  0.21003729  1
  O  O421  1  0.76439574  0.08315991  0.46155108  1
  O  O422  1  0.76461678  0.08309187  0.70800338  1
  O  O423  1  0.76506438  0.08278424  0.96246692  1
  O  O424  1  0.76680346  0.41667593  0.21215704  1
  O  O425  1  0.76512343  0.41652774  0.45867897  1
  O  O426  1  0.76498012  0.41705439  0.71088268  1
  O  O427  1  0.76760543  0.41710093  0.96069560  1
  O  O428  1  0.76545130  0.74962719  0.21215160  1
  O  O429  1  0.76692672  0.74978949  0.45900024  1
  O  O430  1  0.76519706  0.75020565  0.70937030  1
  O  O431  1  0.76561605  0.75016927  0.96013717  1
  O  O432  1  0.01727683  0.08318159  0.16579279  1
  O  O433  1  0.01512625  0.08259171  0.41230638  1
  O  O434  1  0.01822181  0.08371638  0.66387208  1
  O  O435  1  0.01520952  0.08374983  0.91494433  1
  O  O436  1  0.01579319  0.41677979  0.16309273  1
  O  O437  1  0.01765058  0.41757698  0.41139292  1
  O  O438  1  0.01800371  0.41602074  0.66411580  1
  O  O439  1  0.01458929  0.41684544  0.91615085  1
  O  O440  1  0.01648962  0.75054551  0.16484336  1
  O  O441  1  0.01794226  0.74977371  0.41514119  1
  O  O442  1  0.01566335  0.75031962  0.66259613  1
  O  O443  1  0.01591128  0.74922428  0.91567734  1
  O  O444  1  0.51759074  0.08288496  0.16583441  1
  O  O445  1  0.51549889  0.08415183  0.41267098  1
  O  O446  1  0.51796068  0.08299981  0.66472185  1
  O  O447  1  0.51657909  0.08328463  0.91527392  1
  O  O448  1  0.51558592  0.41654183  0.16548590  1
  O  O449  1  0.51700800  0.41693909  0.41207728  1
  O  O450  1  0.51600847  0.41625867  0.66496612  1
  O  O451  1  0.51880143  0.41692635  0.91500595  1
  O  O452  1  0.51386794  0.75036523  0.16330081  1
  O  O453  1  0.51646532  0.74909063  0.41264862  1
  O  O454  1  0.51493304  0.75026694  0.66325837  1
  O  O455  1  0.51535699  0.74975378  0.91626578  1
  O  O456  1  0.48504000  0.25009105  0.08739814  1
  O  O457  1  0.48411601  0.25015911  0.33626647  1
  O  O458  1  0.48352081  0.25035665  0.58659894  1
  O  O459  1  0.48507297  0.24985767  0.83456644  1
  O  O460  1  0.48322561  0.58330075  0.08762022  1
  O  O461  1  0.48451713  0.58346186  0.33368928  1
  O  O462  1  0.48249097  0.58296679  0.58718071  1
  O  O463  1  0.48535650  0.58334528  0.83691837  1
  O  O464  1  0.48208322  0.91669875  0.08607298  1
  O  O465  1  0.48470076  0.91618586  0.33688257  1
  O  O466  1  0.48350484  0.91672717  0.58606396  1
  O  O467  1  0.48320319  0.91630054  0.83721340  1
  O  O468  1  0.98153995  0.25014937  0.08670968  1
  O  O469  1  0.98489932  0.25026906  0.33701598  1
  O  O470  1  0.98456412  0.25003509  0.58241511  1
  O  O471  1  0.98082168  0.25055542  0.83542080  1
  O  O472  1  0.98368732  0.58277986  0.08795349  1
  O  O473  1  0.98528309  0.58378425  0.33387586  1
  O  O474  1  0.98513677  0.58278393  0.58610784  1
  O  O475  1  0.98329114  0.58284885  0.83735593  1
  O  O476  1  0.98250518  0.91694647  0.08534848  1
  O  O477  1  0.98368637  0.91607984  0.33790672  1
  O  O478  1  0.98462489  0.91691553  0.58405879  1
  O  O479  1  0.98438267  0.91666078  0.83704859  1
  O  O480  1  0.08519391  0.31513967  0.07781740  1
  O  O481  1  0.08824827  0.31579593  0.32771371  1
  O  O482  1  0.08878678  0.31489036  0.57700866  1
  O  O483  1  0.08474261  0.31536700  0.82746412  1
  O  O484  1  0.08753651  0.64743990  0.07711396  1
  O  O485  1  0.08910670  0.64928278  0.32719808  1
  O  O486  1  0.08878742  0.64740109  0.57771956  1
  O  O487  1  0.08696270  0.64832106  0.82723832  1
  O  O488  1  0.08633656  0.98288958  0.07761433  1
  O  O489  1  0.08754597  0.98016306  0.32737972  1
  O  O490  1  0.08816504  0.98304604  0.57701569  1
  O  O491  1  0.08822858  0.98122019  0.82833367  1
  O  O492  1  0.58902009  0.31383047  0.07844220  1
  O  O493  1  0.58757754  0.31632566  0.32695202  1
  O  O494  1  0.58788188  0.31382276  0.57674308  1
  O  O495  1  0.58831371  0.31652991  0.82758338  1
  O  O496  1  0.58691493  0.64838063  0.07732562  1
  O  O497  1  0.58844626  0.64851641  0.32673067  1
  O  O498  1  0.58584010  0.64824392  0.57720281  1
  O  O499  1  0.58927277  0.64735781  0.82746010  1
  O  O500  1  0.58588273  0.98262660  0.07776652  1
  O  O501  1  0.58857505  0.98019705  0.32777682  1
  O  O502  1  0.58717663  0.98242411  0.57736341  1
  O  O503  1  0.58707854  0.98098659  0.82740837  1
  O  O504  1  0.41356864  0.01755523  0.17311402  1
  O  O505  1  0.41197766  0.01952543  0.42237242  1
  O  O506  1  0.41402401  0.01843993  0.67177789  1
  O  O507  1  0.41295921  0.01779975  0.92230402  1
  O  O508  1  0.41098105  0.35301579  0.17322997  1
  O  O509  1  0.41390871  0.35072239  0.42191152  1
  O  O510  1  0.41230218  0.35127498  0.67203506  1
  O  O511  1  0.41510714  0.35151783  0.92317050  1
  O  O512  1  0.41056045  0.68449080  0.17227399  1
  O  O513  1  0.41240262  0.68464171  0.42235715  1
  O  O514  1  0.41163188  0.68476788  0.67145503  1
  O  O515  1  0.41112817  0.68550583  0.92325847  1
  O  O516  1  0.91316747  0.01808781  0.17301726  1
  O  O517  1  0.91158668  0.01729792  0.42167335  1
  O  O518  1  0.91458261  0.01829827  0.67249959  1
  O  O519  1  0.91151337  0.01886076  0.92252595  1
  O  O520  1  0.91178827  0.35203642  0.17260142  1
  O  O521  1  0.91416836  0.35230898  0.42248853  1
  O  O522  1  0.91388300  0.35135244  0.67180698  1
  O  O523  1  0.91035510  0.35230465  0.92236646  1
  O  O524  1  0.91313831  0.68464702  0.17276219  1
  O  O525  1  0.91360675  0.68556904  0.42347299  1
  O  O526  1  0.91214909  0.68516716  0.67197485  1
  O  O527  1  0.91231225  0.68374515  0.92194132  1
  O  O528  1  0.16389654  0.01859431  0.20149827  1
  O  O529  1  0.16222265  0.01765150  0.45325793  1
  O  O530  1  0.16204017  0.01853233  0.70193439  1
  O  O531  1  0.16175510  0.01703748  0.95389426  1
  O  O532  1  0.16209606  0.35242924  0.20207738  1
  O  O533  1  0.16191577  0.35044326  0.45240967  1
  O  O534  1  0.16090578  0.35261370  0.70184640  1
  O  O535  1  0.16113818  0.35261328  0.95302455  1
  O  O536  1  0.16362874  0.68445264  0.20290442  1
  O  O537  1  0.16361703  0.68637242  0.45147069  1
  O  O538  1  0.16285773  0.68409364  0.70276177  1
  O  O539  1  0.16392663  0.68477791  0.95350847  1
  O  O540  1  0.66330095  0.01926992  0.20171443  1
  O  O541  1  0.66095251  0.01801470  0.45291005  1
  O  O542  1  0.66040610  0.01839229  0.70226108  1
  O  O543  1  0.66183146  0.01667662  0.95424300  1
  O  O544  1  0.66347165  0.35136414  0.20262299  1
  O  O545  1  0.66122216  0.35102964  0.45177471  1
  O  O546  1  0.66147050  0.35184395  0.70375544  1
  O  O547  1  0.66341449  0.35276299  0.95217524  1
  O  O548  1  0.66203186  0.68391418  0.20300733  1
  O  O549  1  0.66245149  0.68565039  0.45111271  1
  O  O550  1  0.66185953  0.68436301  0.70273008  1
  O  O551  1  0.66201938  0.68502133  0.95380182  1
  O  O552  1  0.33695277  0.31544924  0.04765088  1
  O  O553  1  0.33860960  0.31533590  0.29796475  1
  O  O554  1  0.33729374  0.31528051  0.54794354  1
  O  O555  1  0.33732872  0.31511243  0.79756156  1
  O  O556  1  0.33670591  0.64895703  0.04801924  1
  O  O557  1  0.33728269  0.64757165  0.29672717  1
  O  O558  1  0.33809191  0.64955989  0.54707467  1
  O  O559  1  0.33665831  0.64755534  0.79753072  1
  O  O560  1  0.33792702  0.98052244  0.04807473  1
  O  O561  1  0.33860397  0.98253384  0.29658400  1
  O  O562  1  0.33738099  0.98046038  0.54857759  1
  O  O563  1  0.33911930  0.98230215  0.79801459  1
  O  O564  1  0.83905981  0.31635294  0.04709744  1
  O  O565  1  0.83714352  0.31507641  0.29695117  1
  O  O566  1  0.83471820  0.31546083  0.54752525  1
  O  O567  1  0.83620979  0.31452368  0.79765704  1
  O  O568  1  0.83776675  0.64740871  0.04848245  1
  O  O569  1  0.83695806  0.64742730  0.29738678  1
  O  O570  1  0.83714130  0.64940318  0.54636483  1
  O  O571  1  0.83636409  0.64849473  0.79835256  1
  O  O572  1  0.83632554  0.98117097  0.04880295  1
  O  O573  1  0.83890607  0.98322935  0.29724733  1
  O  O574  1  0.83621465  0.98029079  0.54726499  1
  O  O575  1  0.83441700  0.98209600  0.79745541  1
  O  O576  1  0.41343945  0.14753657  0.17356349  1
  O  O577  1  0.41216109  0.14973641  0.42170872  1
  O  O578  1  0.41448097  0.14872653  0.67205342  1
  O  O579  1  0.41277637  0.14791394  0.92280374  1
  O  O580  1  0.41216007  0.48302355  0.17317773  1
  O  O581  1  0.41302656  0.48080785  0.42200887  1
  O  O582  1  0.41252568  0.48163192  0.67254264  1
  O  O583  1  0.41469645  0.48152557  0.92305910  1
  O  O584  1  0.40990206  0.81476052  0.17179781  1
  O  O585  1  0.41286543  0.81449032  0.42282668  1
  O  O586  1  0.41146413  0.81523195  0.67097409  1
  O  O587  1  0.41163984  0.81551634  0.92256537  1
  O  O588  1  0.91312632  0.14818932  0.17329639  1
  O  O589  1  0.91164120  0.14754072  0.42253210  1
  O  O590  1  0.91407813  0.14838663  0.67173029  1
  O  O591  1  0.91146874  0.14901963  0.92165731  1
  O  O592  1  0.91217000  0.48214847  0.17301975  1
  O  O593  1  0.91411155  0.48239950  0.42204279  1
  O  O594  1  0.91432198  0.48128616  0.67250748  1
  O  O595  1  0.91107663  0.48245347  0.92293842  1
  O  O596  1  0.91241431  0.81495585  0.17193855  1
  O  O597  1  0.91392995  0.81547836  0.42335297  1
  O  O598  1  0.91215203  0.81538476  0.67208862  1
  O  O599  1  0.91203065  0.81397914  0.92238235  1
  O  O600  1  0.08517555  0.18483403  0.07812031  1
  O  O601  1  0.08845088  0.18556091  0.32735256  1
  O  O602  1  0.08859294  0.18478437  0.57677302  1
  O  O603  1  0.08477349  0.18551084  0.82737531  1
  O  O604  1  0.08730921  0.51735654  0.07798669  1
  O  O605  1  0.08943455  0.51912083  0.32689077  1
  O  O606  1  0.08858976  0.51726798  0.57855881  1
  O  O607  1  0.08735210  0.51843392  0.82787392  1
  O  O608  1  0.08700002  0.85289121  0.07671317  1
  O  O609  1  0.08688342  0.85005131  0.32775594  1
  O  O610  1  0.08911456  0.85304061  0.57636477  1
  O  O611  1  0.08770018  0.85112327  0.82780865  1
  O  O612  1  0.58803712  0.18360823  0.07905722  1
  O  O613  1  0.58846972  0.18639309  0.32667305  1
  O  O614  1  0.58658660  0.18376624  0.57714376  1
  O  O615  1  0.58958191  0.18649558  0.82732531  1
  O  O616  1  0.58724673  0.51845639  0.07734723  1
  O  O617  1  0.58851337  0.51842030  0.32679957  1
  O  O618  1  0.58624810  0.51828715  0.57769317  1
  O  O619  1  0.58881967  0.51733856  0.82818093  1
  O  O620  1  0.58623659  0.85268294  0.07681662  1
  O  O621  1  0.58765631  0.84998088  0.32773123  1
  O  O622  1  0.58759857  0.85246910  0.57652958  1
  O  O623  1  0.58665315  0.85103038  0.82723027  1
  O  O624  1  0.33708508  0.18542656  0.04767425  1
  O  O625  1  0.33876258  0.18509267  0.29777583  1
  O  O626  1  0.33773364  0.18533859  0.54802776  1
  O  O627  1  0.33735461  0.18497229  0.79737179  1
  O  O628  1  0.33689253  0.51905313  0.04885570  1
  O  O629  1  0.33659232  0.51739210  0.29714701  1
  O  O630  1  0.33866865  0.51946933  0.54810505  1
  O  O631  1  0.33592069  0.51763797  0.79811903  1
  O  O632  1  0.33749627  0.85056614  0.04702414  1
  O  O633  1  0.33906586  0.85219800  0.29618083  1
  O  O634  1  0.33701857  0.85052842  0.54745587  1
  O  O635  1  0.33977996  0.85233141  0.79766509  1
  O  O636  1  0.83957602  0.18623925  0.04800984  1
  O  O637  1  0.83712182  0.18477878  0.29687081  1
  O  O638  1  0.83462334  0.18533687  0.54775490  1
  O  O639  1  0.83572892  0.18449969  0.79761626  1
  O  O640  1  0.83714634  0.51747806  0.04785403  1
  O  O641  1  0.83696436  0.51733913  0.29695580  1
  O  O642  1  0.83702381  0.51901614  0.54718653  1
  O  O643  1  0.83669538  0.51856236  0.79825017  1
  O  O644  1  0.83636368  0.85142313  0.04868476  1
  O  O645  1  0.84002324  0.85299812  0.29796978  1
  O  O646  1  0.83589906  0.85006447  0.54651153  1
  O  O647  1  0.83457644  0.85209801  0.79764811  1
  O  O648  1  0.16387453  0.14845625  0.20167322  1
  O  O649  1  0.16215126  0.14800364  0.45294857  1
  O  O650  1  0.16188650  0.14842720  0.70179777  1
  O  O651  1  0.16144342  0.14749663  0.95294609  1
  O  O652  1  0.16243817  0.48232154  0.20257307  1
  O  O653  1  0.16061782  0.48059132  0.45231373  1
  O  O654  1  0.16165359  0.48265675  0.70242131  1
  O  O655  1  0.16119911  0.48296734  0.95446939  1
  O  O656  1  0.16368309  0.81449432  0.20230940  1
  O  O657  1  0.16442174  0.81636895  0.45161499  1
  O  O658  1  0.16270110  0.81419013  0.70257457  1
  O  O659  1  0.16429686  0.81502917  0.95291920  1
  O  O660  1  0.66366073  0.14918910  0.20193969  1
  O  O661  1  0.66099225  0.14839731  0.45293441  1
  O  O662  1  0.66083255  0.14854712  0.70245652  1
  O  O663  1  0.66138277  0.14694076  0.95383524  1
  O  O664  1  0.66309369  0.48153685  0.20256110  1
  O  O665  1  0.66093655  0.48105104  0.45141454  1
  O  O666  1  0.66138133  0.48216286  0.70377958  1
  O  O667  1  0.66368847  0.48268342  0.95272047  1
  O  O668  1  0.66171293  0.81406335  0.20282754  1
  O  O669  1  0.66301764  0.81552973  0.45099493  1
  O  O670  1  0.66117341  0.81470301  0.70273511  1
  O  O671  1  0.66184140  0.81528540  0.95389888  1
