# generated using pymatgen
data_Na2MnFe(PO4)2
_symmetry_space_group_name_H-M   'P 1'
_cell_length_a   21.08693965
_cell_length_b   18.93956544
_cell_length_c   20.04569677
_cell_angle_alpha   90.00019227
_cell_angle_beta   89.99940188
_cell_angle_gamma   90.00312641
_symmetry_Int_Tables_number   1
_chemical_formula_structural   Na2MnFe(PO4)2
_chemical_formula_sum   'Na96 Mn48 Fe48 P96 O384'
_cell_volume   8005.79971497
_cell_formula_units_Z   48
loop_
 _symmetry_equiv_pos_site_id
 _symmetry_equiv_pos_as_xyz
  1  'x, y, z'
loop_
 _atom_site_type_symbol
 _atom_site_label
 _atom_site_symmetry_multiplicity
 _atom_site_fract_x
 _atom_site_fract_y
 _atom_site_fract_z
 _atom_site_occupancy
  Na  Na0  1  0.00323169  0.00066611  -0.00025945  1
  Na  Na1  1  0.00138759  -0.00032416  0.24994495  1
  Na  Na2  1  -0.00057041  -0.00026346  0.49984697  1
  Na  Na3  1  -0.00047775  -0.00033432  0.75015658  1
  Na  Na4  1  0.00386045  0.33480782  -0.00004993  1
  Na  Na5  1  0.00182857  0.33344055  0.25018490  1
  Na  Na6  1  0.00023960  0.33308957  0.50005399  1
  Na  Na7  1  -0.00046026  0.33213614  0.75028121  1
  Na  Na8  1  -0.00003969  0.66646165  0.00023653  1
  Na  Na9  1  -0.00163598  0.66639520  0.25061475  1
  Na  Na10  1  -0.00135463  0.66724064  0.50002222  1
  Na  Na11  1  0.00124767  0.66793527  0.74894393  1
  Na  Na12  1  0.49947167  -0.00009343  0.00089375  1
  Na  Na13  1  0.49870968  -0.00086310  0.25055370  1
  Na  Na14  1  0.50054495  -0.00042589  0.49839531  1
  Na  Na15  1  0.50128155  0.00002908  0.74957229  1
  Na  Na16  1  0.49846331  0.33234076  0.00054159  1
  Na  Na17  1  0.49923328  0.33276020  0.24886996  1
  Na  Na18  1  0.50266495  0.33359564  0.50055327  1
  Na  Na19  1  0.50252623  0.33366104  0.75056920  1
  Na  Na20  1  0.49842939  0.66702754  0.00057866  1
  Na  Na21  1  0.50027822  0.66722992  0.24972673  1
  Na  Na22  1  0.50257682  0.66773936  0.49956136  1
  Na  Na23  1  0.50073190  0.66742176  0.75003148  1
  Na  Na24  1  0.24935811  -0.00055458  0.12501691  1
  Na  Na25  1  0.25056606  -0.00010620  0.37606493  1
  Na  Na26  1  0.24927442  -0.00045851  0.62478910  1
  Na  Na27  1  0.24764727  -0.00090398  0.87383770  1
  Na  Na28  1  0.24930616  0.33324747  0.12611537  1
  Na  Na29  1  0.24943374  0.33276789  0.37398935  1
  Na  Na30  1  0.24905885  0.33283134  0.62512067  1
  Na  Na31  1  0.25055525  0.33402099  0.87513986  1
  Na  Na32  1  0.25119932  0.66797085  0.12495030  1
  Na  Na33  1  0.24945096  0.66727380  0.37674560  1
  Na  Na34  1  0.24870881  0.66680883  0.62434238  1
  Na  Na35  1  0.24979747  0.66738280  0.87448881  1
  Na  Na36  1  0.74915235  -0.00032940  0.12473484  1
  Na  Na37  1  0.75077100  -0.00018949  0.37565291  1
  Na  Na38  1  0.75089300  -0.00009991  0.62508541  1
  Na  Na39  1  0.74981612  -0.00019112  0.87400203  1
  Na  Na40  1  0.74849419  0.33271942  0.12588732  1
  Na  Na41  1  0.74805717  0.33260593  0.37557414  1
  Na  Na42  1  0.75014929  0.33336784  0.62482819  1
  Na  Na43  1  0.74805219  0.33204774  0.87390209  1
  Na  Na44  1  0.75151858  0.66745272  0.12566531  1
  Na  Na45  1  0.74898129  0.66702957  0.37459665  1
  Na  Na46  1  0.74834812  0.66719163  0.62424948  1
  Na  Na47  1  0.74932429  0.66646704  0.87550520  1
  Na  Na48  1  0.00326653  0.16585672  -0.00104346  1
  Na  Na49  1  0.00130765  0.16620727  0.25077602  1
  Na  Na50  1  -0.00157710  0.16647449  0.49967946  1
  Na  Na51  1  0.00026813  0.16588994  0.75028102  1
  Na  Na52  1  0.00059954  0.50064399  0.00033159  1
  Na  Na53  1  0.00255499  0.49918982  0.24979468  1
  Na  Na54  1  0.00119759  0.50000079  0.50083507  1
  Na  Na55  1  0.00252071  0.49896572  0.74948109  1
  Na  Na56  1  0.00257986  0.83253351  0.00025423  1
  Na  Na57  1  -0.00117453  0.83408994  0.25048385  1
  Na  Na58  1  -0.00174797  0.83358975  0.49920927  1
  Na  Na59  1  -0.00073758  0.83351702  0.75008927  1
  Na  Na60  1  0.50062565  0.16655951  0.00041378  1
  Na  Na61  1  0.49770206  0.16747633  0.24975244  1
  Na  Na62  1  0.50048167  0.16652524  0.49950891  1
  Na  Na63  1  0.50276708  0.16571902  0.75004982  1
  Na  Na64  1  0.49846860  0.50082763  0.00102034  1
  Na  Na65  1  0.50271410  0.49887307  0.24959956  1
  Na  Na66  1  0.50345840  0.49971765  0.50018036  1
  Na  Na67  1  0.50259896  0.49968412  0.74960157  1
  Na  Na68  1  0.49679999  0.83403726  0.00052221  1
  Na  Na69  1  0.49831633  0.83389406  0.24993740  1
  Na  Na70  1  0.50193989  0.83266844  0.49872858  1
  Na  Na71  1  0.49933965  0.83342711  0.75041913  1
  Na  Na72  1  0.25100366  0.16603469  0.12519470  1
  Na  Na73  1  0.25063243  0.16642650  0.37584534  1
  Na  Na74  1  0.24814135  0.16686507  0.62434368  1
  Na  Na75  1  0.24753842  0.16733667  0.87509827  1
  Na  Na76  1  0.24881537  0.49989944  0.12541657  1
  Na  Na77  1  0.24762593  0.50079457  0.37514944  1
  Na  Na78  1  0.24922638  0.49986810  0.62476798  1
  Na  Na79  1  0.24860744  0.50039857  0.87510494  1
  Na  Na80  1  0.24998198  0.83373190  0.12537455  1
  Na  Na81  1  0.25050142  0.83373917  0.37588107  1
  Na  Na82  1  0.25031272  0.83346310  0.62484550  1
  Na  Na83  1  0.25059894  0.83321942  0.87337511  1
  Na  Na84  1  0.74765406  0.16700672  0.12483543  1
  Na  Na85  1  0.75093817  0.16553091  0.37588332  1
  Na  Na86  1  0.75053958  0.16588693  0.62541576  1
  Na  Na87  1  0.74771036  0.16735174  0.87413395  1
  Na  Na88  1  0.75032004  0.49967887  0.12580780  1
  Na  Na89  1  0.74698497  0.50098505  0.37423033  1
  Na  Na90  1  0.74635447  0.50163611  0.62464918  1
  Na  Na91  1  0.74912972  0.50052022  0.87514967  1
  Na  Na92  1  0.75132117  0.83314828  0.12558966  1
  Na  Na93  1  0.75043925  0.83332701  0.37559235  1
  Na  Na94  1  0.75098065  0.83312671  0.62434506  1
  Na  Na95  1  0.75055639  0.83341163  0.87412144  1
  Mn  Mn96  1  0.89319986  0.91648805  0.87751590  1
  Mn  Mn97  1  0.14204935  0.91596413  0.74651553  1
  Mn  Mn98  1  0.60738229  0.75050124  0.87312344  1
  Mn  Mn99  1  0.39166277  0.58293433  0.87659062  1
  Mn  Mn100  1  0.89324761  0.91703695  0.12705503  1
  Mn  Mn101  1  0.35804027  0.08332984  0.75162478  1
  Mn  Mn102  1  0.64265945  0.91628718  0.74707842  1
  Mn  Mn103  1  0.10742756  0.08317883  0.37297400  1
  Mn  Mn104  1  0.14203261  0.58388308  0.99747579  1
  Mn  Mn105  1  0.85846877  0.41597484  0.00202916  1
  Mn  Mn106  1  0.35821662  0.41664859  0.50180780  1
  Mn  Mn107  1  0.85881265  0.75006415  0.00193118  1
  Mn  Mn108  1  0.14281492  0.24958125  0.24737608  1
  Mn  Mn109  1  0.89258644  0.25032222  0.87770825  1
  Mn  Mn110  1  0.60668272  0.08290226  0.12336624  1
  Mn  Mn111  1  0.60737634  0.41639862  0.12215696  1
  Mn  Mn112  1  0.85805212  0.08307743  0.25108080  1
  Mn  Mn113  1  0.60761415  0.08337528  0.37221514  1
  Mn  Mn114  1  0.89282143  0.58309308  0.87623552  1
  Mn  Mn115  1  0.35842268  0.41735303  0.75193667  1
  Mn  Mn116  1  0.89196102  0.25006408  0.37682593  1
  Mn  Mn117  1  0.85761458  0.41645401  0.25236935  1
  Mn  Mn118  1  0.35714782  0.08351213  0.00172599  1
  Mn  Mn119  1  0.35825930  0.74980677  0.50249674  1
  Mn  Mn120  1  0.39184962  0.91747223  0.87695753  1
  Mn  Mn121  1  0.85707279  0.41699956  0.50207684  1
  Mn  Mn122  1  0.64246072  0.58329101  0.99815428  1
  Mn  Mn123  1  0.85806849  0.08386005  0.00211615  1
  Mn  Mn124  1  0.60770353  0.41654972  0.87346838  1
  Mn  Mn125  1  0.89180394  0.58292383  0.37725718  1
  Mn  Mn126  1  0.39347372  0.58373655  0.62732517  1
  Mn  Mn127  1  0.10767657  0.41597269  0.62217658  1
  Mn  Mn128  1  0.64150461  0.91691896  0.99819689  1
  Mn  Mn129  1  0.10677214  0.74982363  0.37278155  1
  Mn  Mn130  1  0.39318773  0.58284974  0.37697328  1
  Mn  Mn131  1  0.39304641  0.24953407  0.62727579  1
  Mn  Mn132  1  0.39108347  0.58326384  0.12821449  1
  Mn  Mn133  1  0.14174140  0.25046526  0.74726457  1
  Mn  Mn134  1  0.60695769  0.75056140  0.12298089  1
  Mn  Mn135  1  0.14171471  0.58319939  0.49762769  1
  Mn  Mn136  1  0.10805278  0.75002032  0.12343603  1
  Mn  Mn137  1  0.85722502  0.41720419  0.75240081  1
  Mn  Mn138  1  0.89273040  0.25017976  0.12666056  1
  Mn  Mn139  1  0.39279584  0.24963232  0.87683989  1
  Mn  Mn140  1  0.35762649  0.08350622  0.50277956  1
  Mn  Mn141  1  0.89157536  0.58323250  0.62759069  1
  Mn  Mn142  1  0.64274233  0.24959771  0.49750788  1
  Mn  Mn143  1  0.35709606  0.41733650  0.25316090  1
  Fe  Fe144  1  0.60823753  0.08233617  0.62291837  1
  Fe  Fe145  1  0.39190147  0.24955159  0.12665437  1
  Fe  Fe146  1  0.14316148  0.91622254  0.24906067  1
  Fe  Fe147  1  0.35696868  0.08267490  0.25177553  1
  Fe  Fe148  1  0.64163585  0.24936650  0.24828783  1
  Fe  Fe149  1  0.35687200  0.75028660  0.25221042  1
  Fe  Fe150  1  0.60831217  0.41641538  0.62308234  1
  Fe  Fe151  1  0.89308818  0.58290369  0.12703352  1
  Fe  Fe152  1  0.64300373  0.58400710  0.24763496  1
  Fe  Fe153  1  0.64168535  0.24982405  0.99836148  1
  Fe  Fe154  1  0.60764532  0.75034912  0.37214225  1
  Fe  Fe155  1  0.10641866  0.75110009  0.62309992  1
  Fe  Fe156  1  0.60798293  0.75085088  0.62343673  1
  Fe  Fe157  1  0.35645954  0.41692475  0.00167379  1
  Fe  Fe158  1  0.64234131  0.58440400  0.49768802  1
  Fe  Fe159  1  0.85680718  0.75042579  0.25166513  1
  Fe  Fe160  1  0.14337131  0.24967400  0.99863286  1
  Fe  Fe161  1  0.39294418  0.25030636  0.37698115  1
  Fe  Fe162  1  0.14260385  0.58379524  0.74819186  1
  Fe  Fe163  1  0.10758777  0.41666371  0.37367936  1
  Fe  Fe164  1  0.64216320  0.58373802  0.74854539  1
  Fe  Fe165  1  0.10835759  0.41698898  0.87294007  1
  Fe  Fe166  1  0.85725140  0.74975979  0.75145916  1
  Fe  Fe167  1  0.85741324  0.08256950  0.50243689  1
  Fe  Fe168  1  0.85597366  0.75001754  0.50199355  1
  Fe  Fe169  1  0.10766766  0.41646585  0.12308826  1
  Fe  Fe170  1  0.64321169  0.25003120  0.74760197  1
  Fe  Fe171  1  0.39094781  0.91722961  0.12758764  1
  Fe  Fe172  1  0.10902039  0.08389517  0.12329619  1
  Fe  Fe173  1  0.64322213  0.91639732  0.49823521  1
  Fe  Fe174  1  0.39368508  0.91663580  0.62545533  1
  Fe  Fe175  1  0.60741146  0.41636704  0.37258465  1
  Fe  Fe176  1  0.89268519  0.24936490  0.62646403  1
  Fe  Fe177  1  0.14218957  0.91695888  0.49829995  1
  Fe  Fe178  1  0.39294069  0.91663179  0.37707999  1
  Fe  Fe179  1  0.89199929  0.91685791  0.37655002  1
  Fe  Fe180  1  0.10764385  0.08330645  0.87223718  1
  Fe  Fe181  1  0.10844688  0.74973007  0.87224962  1
  Fe  Fe182  1  0.64265145  0.91671333  0.24837417  1
  Fe  Fe183  1  0.85704315  0.08325016  0.75188511  1
  Fe  Fe184  1  0.10601626  0.08260315  0.62327179  1
  Fe  Fe185  1  0.35731310  0.74965910  0.75065087  1
  Fe  Fe186  1  0.14335474  0.91656645  0.99841686  1
  Fe  Fe187  1  0.60793563  0.08278563  0.87335744  1
  Fe  Fe188  1  0.89258910  0.91694219  0.62616416  1
  Fe  Fe189  1  0.14196402  0.24948235  0.49823090  1
  Fe  Fe190  1  0.14236808  0.58464003  0.24861198  1
  Fe  Fe191  1  0.35655042  0.74988322  0.00123755  1
  P  P192  1  0.05472293  0.24977990  0.10952456  1
  P  P193  1  0.05458512  0.25031370  0.36114371  1
  P  P194  1  0.05238918  0.24846666  0.60944372  1
  P  P195  1  0.05533217  0.25016745  0.86121448  1
  P  P196  1  0.05373791  0.58328377  0.11146288  1
  P  P197  1  0.05362013  0.58297295  0.35957019  1
  P  P198  1  0.05414753  0.58470863  0.61110748  1
  P  P199  1  0.05460539  0.58364034  0.85907905  1
  P  P200  1  0.05620925  0.91732768  0.11089024  1
  P  P201  1  0.05336108  0.91653510  0.36066976  1
  P  P202  1  0.05225568  0.91653818  0.60940967  1
  P  P203  1  0.05573053  0.91628985  0.86104753  1
  P  P204  1  0.55314941  0.24947377  0.11065876  1
  P  P205  1  0.55274201  0.25017531  0.35935265  1
  P  P206  1  0.55550007  0.24927119  0.61109114  1
  P  P207  1  0.55563910  0.24900910  0.86053462  1
  P  P208  1  0.55392945  0.58393514  0.11106706  1
  P  P209  1  0.55573793  0.58383051  0.36013545  1
  P  P210  1  0.55604830  0.58425898  0.61061060  1
  P  P211  1  0.55358049  0.58360162  0.85966237  1
  P  P212  1  0.55192691  0.91650533  0.11151574  1
  P  P213  1  0.55431279  0.91599247  0.36040068  1
  P  P214  1  0.55352473  0.91635012  0.60896901  1
  P  P215  1  0.55333213  0.91727290  0.85995711  1
  P  P216  1  0.44479341  0.08324060  0.14056958  1
  P  P217  1  0.44493871  0.08324243  0.38853017  1
  P  P218  1  0.44861537  0.08223063  0.63941928  1
  P  P219  1  0.44827877  0.08348481  0.89003226  1
  P  P220  1  0.44444602  0.41588238  0.13903380  1
  P  P221  1  0.44846730  0.41611312  0.38988524  1
  P  P222  1  0.44895815  0.41664592  0.63978217  1
  P  P223  1  0.44611610  0.41662311  0.89099965  1
  P  P224  1  0.44352003  0.75086724  0.13981442  1
  P  P225  1  0.44666364  0.75047250  0.38852513  1
  P  P226  1  0.44801612  0.75104237  0.63990292  1
  P  P227  1  0.44443640  0.74994359  0.88951077  1
  P  P228  1  0.94934566  0.08376519  0.13965801  1
  P  P229  1  0.94533621  0.08221748  0.39037617  1
  P  P230  1  0.94546026  0.08283030  0.63929069  1
  P  P231  1  0.94712642  0.08323698  0.88888880  1
  P  P232  1  0.94818802  0.41686060  0.14003740  1
  P  P233  1  0.94793475  0.41681176  0.39017361  1
  P  P234  1  0.94632457  0.41570776  0.64001757  1
  P  P235  1  0.94871595  0.41695074  0.88984359  1
  P  P236  1  0.94622671  0.74958365  0.14087748  1
  P  P237  1  0.94359331  0.75080946  0.38940629  1
  P  P238  1  0.94523725  0.75109591  0.63898616  1
  P  P239  1  0.94781058  0.74963633  0.88862796  1
  P  P240  1  0.19744860  0.08225791  0.23527800  1
  P  P241  1  0.19460134  0.08286459  0.48663914  1
  P  P242  1  0.19480833  0.08320170  0.73446544  1
  P  P243  1  0.19510016  0.08319450  0.98550821  1
  P  P244  1  0.19449603  0.41774731  0.23589694  1
  P  P245  1  0.19598363  0.41533305  0.48414195  1
  P  P246  1  0.19574269  0.41766262  0.73571220  1
  P  P247  1  0.19588978  0.41592139  0.98598814  1
  P  P248  1  0.19757724  0.75040278  0.23592762  1
  P  P249  1  0.19490608  0.75162403  0.48640228  1
  P  P250  1  0.19594216  0.74931793  0.73460169  1
  P  P251  1  0.19713733  0.75105858  0.98445949  1
  P  P252  1  0.69631178  0.08270466  0.23527732  1
  P  P253  1  0.69670000  0.08199123  0.48628938  1
  P  P254  1  0.69619038  0.08344081  0.73535101  1
  P  P255  1  0.69577442  0.08374853  0.98432249  1
  P  P256  1  0.69461561  0.41632279  0.23621475  1
  P  P257  1  0.69456961  0.41750154  0.48523493  1
  P  P258  1  0.69575595  0.41681833  0.73462731  1
  P  P259  1  0.69703482  0.41591126  0.98506528  1
  P  P260  1  0.69617973  0.75088045  0.23625011  1
  P  P261  1  0.69529717  0.75083361  0.48549970  1
  P  P262  1  0.69717997  0.74982599  0.73442750  1
  P  P263  1  0.69702098  0.75040002  0.98516070  1
  P  P264  1  0.30273968  0.25064088  0.01522461  1
  P  P265  1  0.30519586  0.24894408  0.26464239  1
  P  P266  1  0.30321888  0.25029469  0.51412878  1
  P  P267  1  0.30329340  0.24979799  0.76492735  1
  P  P268  1  0.30294946  0.58337667  0.01485391  1
  P  P269  1  0.30160169  0.58440983  0.26581027  1
  P  P270  1  0.30363307  0.58312209  0.51521017  1
  P  P271  1  0.30221642  0.58436478  0.76430513  1
  P  P272  1  0.30262766  0.91634992  0.01499446  1
  P  P273  1  0.30387761  0.91676159  0.26499505  1
  P  P274  1  0.30406213  0.91669128  0.51476649  1
  P  P275  1  0.30495536  0.91598441  0.76271736  1
  P  P276  1  0.80162312  0.24982677  0.01505062  1
  P  P277  1  0.80157880  0.24968488  0.26488561  1
  P  P278  1  0.80417195  0.24907087  0.51557101  1
  P  P279  1  0.80388370  0.24906927  0.76355498  1
  P  P280  1  0.80461173  0.58305291  0.01593777  1
  P  P281  1  0.80343804  0.58376624  0.26382092  1
  P  P282  1  0.80159023  0.58420884  0.51449918  1
  P  P283  1  0.80167976  0.58446544  0.76467104  1
  P  P284  1  0.80344174  0.91697398  0.01506206  1
  P  P285  1  0.80297020  0.91641345  0.26537836  1
  P  P286  1  0.80413007  0.91642221  0.51414534  1
  P  P287  1  0.80547818  0.91648567  0.76320714  1
  O  O288  1  0.05711124  0.24941780  0.18638957  1
  O  O289  1  0.05826825  0.24947382  0.43787647  1
  O  O290  1  0.05595685  0.24919881  0.68618395  1
  O  O291  1  0.05958807  0.25029745  0.93790379  1
  O  O292  1  0.05855142  0.58445444  0.18808969  1
  O  O293  1  0.05643268  0.58419187  0.43639372  1
  O  O294  1  0.05847573  0.58419536  0.68779403  1
  O  O295  1  0.05693109  0.58398854  0.93596776  1
  O  O296  1  0.06011065  0.91629903  0.18770679  1
  O  O297  1  0.05801744  0.91646291  0.43730331  1
  O  O298  1  0.05583300  0.91627732  0.68613567  1
  O  O299  1  0.05964421  0.91598925  0.93779689  1
  O  O300  1  0.55815336  0.24959637  0.18732093  1
  O  O301  1  0.55701502  0.24925773  0.43606564  1
  O  O302  1  0.55940250  0.24931996  0.68788029  1
  O  O303  1  0.55879862  0.24994551  0.93739742  1
  O  O304  1  0.55904219  0.58407314  0.18780083  1
  O  O305  1  0.55926335  0.58428707  0.43700392  1
  O  O306  1  0.55950963  0.58443765  0.68743923  1
  O  O307  1  0.55635356  0.58385414  0.93646622  1
  O  O308  1  0.55755767  0.91621838  0.18809572  1
  O  O309  1  0.55946401  0.91654513  0.43702401  1
  O  O310  1  0.55684196  0.91634470  0.68579806  1
  O  O311  1  0.55589307  0.91649905  0.93673469  1
  O  O312  1  0.44235806  0.08315436  0.06375855  1
  O  O313  1  0.44088455  0.08294530  0.31184882  1
  O  O314  1  0.44443986  0.08305902  0.56271808  1
  O  O315  1  0.44437579  0.08344013  0.81335183  1
  O  O316  1  0.43981408  0.41672346  0.06231868  1
  O  O317  1  0.44408137  0.41688527  0.31320582  1
  O  O318  1  0.44488246  0.41669246  0.56311502  1
  O  O319  1  0.44366568  0.41685748  0.81413577  1
  O  O320  1  0.43921815  0.75017083  0.06301800  1
  O  O321  1  0.44118476  0.74988944  0.31192202  1
  O  O322  1  0.44452147  0.75009815  0.56314884  1
  O  O323  1  0.44045386  0.74970941  0.81274185  1
  O  O324  1  0.94533223  0.08367277  0.06297700  1
  O  O325  1  0.94277286  0.08269313  0.31356085  1
  O  O326  1  0.94105728  0.08278994  0.56254499  1
  O  O327  1  0.94149321  0.08332634  0.81226310  1
  O  O328  1  0.94448940  0.41648973  0.06334155  1
  O  O329  1  0.94397939  0.41677421  0.31346069  1
  O  O330  1  0.94297266  0.41679436  0.56324798  1
  O  O331  1  0.94399154  0.41658609  0.81319013  1
  O  O332  1  0.94400676  0.75029017  0.06402152  1
  O  O333  1  0.93950733  0.75020611  0.31262874  1
  O  O334  1  0.94018233  0.75001198  0.56230343  1
  O  O335  1  0.94218314  0.74974958  0.81201663  1
  O  O336  1  0.19223792  0.08340084  0.06236511  1
  O  O337  1  0.19374397  0.08311816  0.31198761  1
  O  O338  1  0.19006120  0.08279100  0.56332379  1
  O  O339  1  0.19074308  0.08313554  0.81130219  1
  O  O340  1  0.19137567  0.41666164  0.06274064  1
  O  O341  1  0.19060205  0.41682239  0.31264069  1
  O  O342  1  0.19306009  0.41583466  0.56099567  1
  O  O343  1  0.19182982  0.41681824  0.81250746  1
  O  O344  1  0.19360953  0.75024207  0.06115794  1
  O  O345  1  0.19367328  0.75034619  0.31256988  1
  O  O346  1  0.19041632  0.75136450  0.56308953  1
  O  O347  1  0.19178086  0.75027522  0.81135819  1
  O  O348  1  0.69225215  0.08285215  0.06110373  1
  O  O349  1  0.69387714  0.08275338  0.31209251  1
  O  O350  1  0.69192295  0.08234612  0.56294828  1
  O  O351  1  0.69161591  0.08258234  0.81197789  1
  O  O352  1  0.69395939  0.41644084  0.06186655  1
  O  O353  1  0.69074288  0.41601748  0.31304847  1
  O  O354  1  0.69102397  0.41647072  0.56204866  1
  O  O355  1  0.69323051  0.41669240  0.81140540  1
  O  O356  1  0.69350488  0.75064303  0.06192790  1
  O  O357  1  0.69186453  0.75082134  0.31298204  1
  O  O358  1  0.69116004  0.75118262  0.56219491  1
  O  O359  1  0.69331677  0.75067318  0.81108550  1
  O  O360  1  0.30881596  0.24983380  0.18786938  1
  O  O361  1  0.30873436  0.25040488  0.43747637  1
  O  O362  1  0.30685388  0.24940603  0.68811165  1
  O  O363  1  0.30633999  0.24994590  0.93851163  1
  O  O364  1  0.30513127  0.58353247  0.18909645  1
  O  O365  1  0.30740477  0.58333777  0.43847600  1
  O  O366  1  0.30632051  0.58354592  0.68763459  1
  O  O367  1  0.30566082  0.58308588  0.93812146  1
  O  O368  1  0.30766401  0.91685503  0.18822073  1
  O  O369  1  0.30919367  0.91658318  0.43807024  1
  O  O370  1  0.30969190  0.91692799  0.68604482  1
  O  O371  1  0.30593704  0.91728282  0.93822864  1
  O  O372  1  0.80594510  0.24988220  0.18822653  1
  O  O373  1  0.80681839  0.24979653  0.43873902  1
  O  O374  1  0.80894695  0.24939649  0.68693881  1
  O  O375  1  0.80601573  0.24992207  0.93832415  1
  O  O376  1  0.80894643  0.58281586  0.18722282  1
  O  O377  1  0.80538320  0.58331173  0.43782253  1
  O  O378  1  0.80529020  0.58392680  0.68797150  1
  O  O379  1  0.80766134  0.58300809  0.93909764  1
  O  O380  1  0.80702039  0.91710992  0.18868308  1
  O  O381  1  0.80819547  0.91679801  0.43748894  1
  O  O382  1  0.80910100  0.91667585  0.68645427  1
  O  O383  1  0.80698356  0.91696977  0.93825953  1
  O  O384  1  0.23268043  0.24969061  0.03986834  1
  O  O385  1  0.23504708  0.24962626  0.28869887  1
  O  O386  1  0.23276484  0.24970422  0.53738117  1
  O  O387  1  0.23355269  0.25032089  0.78959483  1
  O  O388  1  0.23331579  0.58372573  0.04037349  1
  O  O389  1  0.23163810  0.58429808  0.29054739  1
  O  O390  1  0.23371821  0.58320112  0.53949593  1
  O  O391  1  0.23232016  0.58429072  0.78913068  1
  O  O392  1  0.23259045  0.91671294  0.03961661  1
  O  O393  1  0.23357327  0.91666133  0.28924620  1
  O  O394  1  0.23361044  0.91679765  0.53801096  1
  O  O395  1  0.23482108  0.91610325  0.78645755  1
  O  O396  1  0.73147999  0.24971516  0.03917693  1
  O  O397  1  0.73148046  0.24932416  0.28930668  1
  O  O398  1  0.73441667  0.24932904  0.54049928  1
  O  O399  1  0.73336258  0.24957499  0.78673292  1
  O  O400  1  0.73488711  0.58354645  0.04100495  1
  O  O401  1  0.73291116  0.58391103  0.28696527  1
  O  O402  1  0.73145506  0.58460163  0.53870959  1
  O  O403  1  0.73168840  0.58391874  0.78936568  1
  O  O404  1  0.73373805  0.91659569  0.04002707  1
  O  O405  1  0.73287643  0.91674819  0.28984540  1
  O  O406  1  0.73383082  0.91630741  0.53826348  1
  O  O407  1  0.73547156  0.91643619  0.78769915  1
  O  O408  1  0.26749761  0.08250916  0.21079689  1
  O  O409  1  0.26466418  0.08291863  0.46259679  1
  O  O410  1  0.26484669  0.08316011  0.71039361  1
  O  O411  1  0.26491083  0.08320894  0.96023395  1
  O  O412  1  0.26459978  0.41673259  0.21190500  1
  O  O413  1  0.26561719  0.41657692  0.45884669  1
  O  O414  1  0.26560956  0.41690344  0.71102753  1
  O  O415  1  0.26621968  0.41686922  0.96209934  1
  O  O416  1  0.26754953  0.75083253  0.21121507  1
  O  O417  1  0.26502942  0.75083575  0.46251987  1
  O  O418  1  0.26621634  0.75000855  0.71057851  1
  O  O419  1  0.26723687  0.75040117  0.95992953  1
  O  O420  1  0.76573075  0.08291623  0.20929301  1
  O  O421  1  0.76709776  0.08242660  0.46284365  1
  O  O422  1  0.76661109  0.08286429  0.71175327  1
  O  O423  1  0.76550332  0.08354065  0.95925222  1
  O  O424  1  0.76458845  0.41656454  0.21177206  1
  O  O425  1  0.76451127  0.41665967  0.46061976  1
  O  O426  1  0.76537338  0.41731007  0.70902074  1
  O  O427  1  0.76647935  0.41601516  0.95926011  1
  O  O428  1  0.76649566  0.75061062  0.21232446  1
  O  O429  1  0.76568235  0.75048902  0.46171038  1
  O  O430  1  0.76724309  0.75027892  0.70989506  1
  O  O431  1  0.76672238  0.75013155  0.96010024  1
  O  O432  1  0.01933230  0.08360624  0.16435102  1
  O  O433  1  0.01504850  0.08300907  0.41541299  1
  O  O434  1  0.01587668  0.08257478  0.66311749  1
  O  O435  1  0.01771581  0.08318914  0.91163396  1
  O  O436  1  0.01832308  0.41622495  0.16435229  1
  O  O437  1  0.01791128  0.41688359  0.41475786  1
  O  O438  1  0.01616099  0.41548504  0.66472990  1
  O  O439  1  0.01891482  0.41760575  0.91377216  1
  O  O440  1  0.01586368  0.75022218  0.16632737  1
  O  O441  1  0.01372906  0.75001231  0.41326418  1
  O  O442  1  0.01576047  0.75107975  0.66230350  1
  O  O443  1  0.01820838  0.74950984  0.91206933  1
  O  O444  1  0.51437230  0.08315894  0.16616926  1
  O  O445  1  0.51501373  0.08316328  0.41277696  1
  O  O446  1  0.51876085  0.08238215  0.66364681  1
  O  O447  1  0.51813780  0.08325975  0.91487490  1
  O  O448  1  0.51459131  0.41597293  0.16273024  1
  O  O449  1  0.51868380  0.41640744  0.41390625  1
  O  O450  1  0.51913359  0.41680087  0.66392269  1
  O  O451  1  0.51568597  0.41666297  0.91645168  1
  O  O452  1  0.51366550  0.75036015  0.16367004  1
  O  O453  1  0.51721881  0.75023085  0.41154332  1
  O  O454  1  0.51813187  0.75079560  0.66437086  1
  O  O455  1  0.51439401  0.75046377  0.91394527  1
  O  O456  1  0.48266087  0.24920413  0.08742698  1
  O  O457  1  0.48252069  0.24987025  0.33542617  1
  O  O458  1  0.48563800  0.24941140  0.58627991  1
  O  O459  1  0.48579568  0.24978638  0.83567940  1
  O  O460  1  0.48372600  0.58400050  0.08775615  1
  O  O461  1  0.48578076  0.58353557  0.33545163  1
  O  O462  1  0.48612329  0.58403539  0.58579274  1
  O  O463  1  0.48399509  0.58326056  0.83424474  1
  O  O464  1  0.48146377  0.91702993  0.08830620  1
  O  O465  1  0.48371321  0.91656043  0.33736963  1
  O  O466  1  0.48355867  0.91626068  0.58402852  1
  O  O467  1  0.48379991  0.91700451  0.83447217  1
  O  O468  1  0.98526625  0.25011904  0.08356002  1
  O  O469  1  0.98472327  0.24960895  0.33636489  1
  O  O470  1  0.98223705  0.24932828  0.58517266  1
  O  O471  1  0.98536968  0.24948189  0.83674671  1
  O  O472  1  0.98350398  0.58347219  0.08745563  1
  O  O473  1  0.98389359  0.58305955  0.33456902  1
  O  O474  1  0.98412611  0.58401364  0.58677160  1
  O  O475  1  0.98510608  0.58340620  0.83324971  1
  O  O476  1  0.98624405  0.91656297  0.08638870  1
  O  O477  1  0.98297303  0.91677974  0.33708318  1
  O  O478  1  0.98209538  0.91670075  0.58507107  1
  O  O479  1  0.98582836  0.91664830  0.83647958  1
  O  O480  1  0.08942907  0.31486449  0.07771876  1
  O  O481  1  0.08803158  0.31557749  0.32860109  1
  O  O482  1  0.08692632  0.31310137  0.57658205  1
  O  O483  1  0.08835438  0.31559537  0.82813214  1
  O  O484  1  0.08710806  0.64819889  0.07776305  1
  O  O485  1  0.08774448  0.64796220  0.32666169  1
  O  O486  1  0.08724494  0.65000291  0.57811142  1
  O  O487  1  0.08903649  0.64865304  0.82679627  1
  O  O488  1  0.08966441  0.98265598  0.07835688  1
  O  O489  1  0.08713701  0.98136334  0.32741649  1
  O  O490  1  0.08618122  0.98160417  0.57681073  1
  O  O491  1  0.08948007  0.98133851  0.82817462  1
  O  O492  1  0.58635119  0.31435252  0.07691400  1
  O  O493  1  0.58642283  0.31518772  0.32662694  1
  O  O494  1  0.58921141  0.31442885  0.57840879  1
  O  O495  1  0.59000322  0.31372335  0.82755450  1
  O  O496  1  0.58717849  0.64891697  0.07772424  1
  O  O497  1  0.58941010  0.64897651  0.32717005  1
  O  O498  1  0.58956828  0.64952168  0.57766723  1
  O  O499  1  0.58783182  0.64857084  0.82711471  1
  O  O500  1  0.58536851  0.98150091  0.07826833  1
  O  O501  1  0.58766704  0.98089957  0.32673145  1
  O  O502  1  0.58767190  0.98129351  0.57629346  1
  O  O503  1  0.58758402  0.98238888  0.82786910  1
  O  O504  1  0.41035057  0.01826330  0.17296336  1
  O  O505  1  0.41151232  0.01806058  0.42159852  1
  O  O506  1  0.41498765  0.01697037  0.67177978  1
  O  O507  1  0.41401882  0.01864282  0.92270927  1
  O  O508  1  0.41112775  0.35061480  0.17174467  1
  O  O509  1  0.41498286  0.35091186  0.42261921  1
  O  O510  1  0.41536705  0.35161273  0.67266825  1
  O  O511  1  0.41168534  0.35154579  0.92302809  1
  O  O512  1  0.40970905  0.68612964  0.17344958  1
  O  O513  1  0.41367464  0.68554771  0.42243832  1
  O  O514  1  0.41389524  0.68624902  0.67304352  1
  O  O515  1  0.41090899  0.68487083  0.92264440  1
  O  O516  1  0.91540683  0.01871356  0.17236560  1
  O  O517  1  0.91157749  0.01691040  0.42275808  1
  O  O518  1  0.91205618  0.01773010  0.67241898  1
  O  O519  1  0.91430109  0.01819516  0.92258159  1
  O  O520  1  0.91421998  0.35186266  0.17284544  1
  O  O521  1  0.91398164  0.35175728  0.42262136  1
  O  O522  1  0.91237660  0.35051150  0.67212391  1
  O  O523  1  0.91554628  0.35176487  0.92314338  1
  O  O524  1  0.91200979  0.68439587  0.17283363  1
  O  O525  1  0.90959851  0.68610164  0.42282260  1
  O  O526  1  0.91194732  0.68625870  0.67299481  1
  O  O527  1  0.91451936  0.68458173  0.92187944  1
  O  O528  1  0.16356608  0.01717408  0.20292892  1
  O  O529  1  0.16136417  0.01756168  0.45347931  1
  O  O530  1  0.16094501  0.01824576  0.70144024  1
  O  O531  1  0.16124395  0.01802927  0.95295915  1
  O  O532  1  0.16050478  0.35296399  0.20256313  1
  O  O533  1  0.16217640  0.35001873  0.45198363  1
  O  O534  1  0.16172091  0.35283750  0.70252949  1
  O  O535  1  0.16308079  0.35055318  0.95289900  1
  O  O536  1  0.16400966  0.68532322  0.20285923  1
  O  O537  1  0.16111723  0.68670797  0.45326560  1
  O  O538  1  0.16244099  0.68418733  0.70191589  1
  O  O539  1  0.16292159  0.68622285  0.95152492  1
  O  O540  1  0.66210764  0.01739444  0.20324671  1
  O  O541  1  0.66349860  0.01697196  0.45297912  1
  O  O542  1  0.66265684  0.01856385  0.70157306  1
  O  O543  1  0.66150220  0.01881834  0.95146915  1
  O  O544  1  0.66113301  0.35107109  0.20338297  1
  O  O545  1  0.66032052  0.35272676  0.45213663  1
  O  O546  1  0.66185861  0.35153650  0.70218295  1
  O  O547  1  0.66256119  0.35090587  0.95314349  1
  O  O548  1  0.66264920  0.68601247  0.20298017  1
  O  O549  1  0.66167261  0.68590941  0.45227060  1
  O  O550  1  0.66321519  0.68483156  0.70194196  1
  O  O551  1  0.66283809  0.68534243  0.95288068  1
  O  O552  1  0.33618693  0.31583260  0.04797063  1
  O  O553  1  0.33914270  0.31371501  0.29809956  1
  O  O554  1  0.33619665  0.31539624  0.54764187  1
  O  O555  1  0.33761642  0.31479235  0.79708544  1
  O  O556  1  0.33712052  0.64857576  0.04687881  1
  O  O557  1  0.33563521  0.64946390  0.29810623  1
  O  O558  1  0.33744806  0.64823267  0.54785919  1
  O  O559  1  0.33605897  0.64962186  0.79655782  1
  O  O560  1  0.33667527  0.98120573  0.04805151  1
  O  O561  1  0.33741735  0.98181203  0.29809366  1
  O  O562  1  0.33755831  0.98158145  0.54822639  1
  O  O563  1  0.33809181  0.98094335  0.79658668  1
  O  O564  1  0.83535013  0.31485383  0.04793385  1
  O  O565  1  0.83518366  0.31476847  0.29794870  1
  O  O566  1  0.83847439  0.31398755  0.54809149  1
  O  O567  1  0.83703804  0.31408378  0.79725173  1
  O  O568  1  0.83923030  0.64790754  0.04822482  1
  O  O569  1  0.83644637  0.64893928  0.29699500  1
  O  O570  1  0.83547601  0.64924805  0.54703484  1
  O  O571  1  0.83547046  0.64967506  0.79711184  1
  O  O572  1  0.83725666  0.98215813  0.04761627  1
  O  O573  1  0.83711629  0.98128732  0.29830983  1
  O  O574  1  0.83778653  0.98123106  0.54770490  1
  O  O575  1  0.83900371  0.98162288  0.79619113  1
  O  O576  1  0.41044652  0.14833129  0.17261415  1
  O  O577  1  0.41159163  0.14846915  0.42158403  1
  O  O578  1  0.41487196  0.14711499  0.67265171  1
  O  O579  1  0.41442393  0.14853614  0.92274670  1
  O  O580  1  0.41124264  0.48082472  0.17290649  1
  O  O581  1  0.41504017  0.48120709  0.42299022  1
  O  O582  1  0.41529338  0.48174461  0.67266460  1
  O  O583  1  0.41153323  0.48152596  0.92322571  1
  O  O584  1  0.41016951  0.81611890  0.17272266  1
  O  O585  1  0.41370951  0.81571068  0.42186974  1
  O  O586  1  0.41401581  0.81618411  0.67207534  1
  O  O587  1  0.41031948  0.81481806  0.92241176  1
  O  O588  1  0.91541750  0.14875181  0.17237554  1
  O  O589  1  0.91057803  0.14688866  0.42286841  1
  O  O590  1  0.91229714  0.14797462  0.67267237  1
  O  O591  1  0.91421308  0.14825813  0.92264048  1
  O  O592  1  0.91466855  0.48199770  0.17287547  1
  O  O593  1  0.91404484  0.48181522  0.42299929  1
  O  O594  1  0.91266519  0.48092467  0.67281856  1
  O  O595  1  0.91484207  0.48194607  0.92242330  1
  O  O596  1  0.91154286  0.81444795  0.17323261  1
  O  O597  1  0.91046914  0.81617985  0.42224181  1
  O  O598  1  0.91215876  0.81632533  0.67204312  1
  O  O599  1  0.91482810  0.81466675  0.92239780  1
  O  O600  1  0.08925390  0.18475794  0.07740935  1
  O  O601  1  0.08860055  0.18548731  0.32798394  1
  O  O602  1  0.08578213  0.18316526  0.57685866  1
  O  O603  1  0.08915639  0.18519185  0.82823394  1
  O  O604  1  0.08707322  0.51806778  0.07857244  1
  O  O605  1  0.08800415  0.51790610  0.32784642  1
  O  O606  1  0.08798056  0.51967442  0.57817908  1
  O  O607  1  0.08930095  0.51857966  0.82730784  1
  O  O608  1  0.09028932  0.85257273  0.07757952  1
  O  O609  1  0.08669298  0.85156355  0.32716550  1
  O  O610  1  0.08611391  0.85165309  0.57642752  1
  O  O611  1  0.08902781  0.85112412  0.82776651  1
  O  O612  1  0.58661359  0.18450369  0.07745094  1
  O  O613  1  0.58645908  0.18515633  0.32619232  1
  O  O614  1  0.58896663  0.18407660  0.57808240  1
  O  O615  1  0.58926392  0.18368140  0.82810918  1
  O  O616  1  0.58708856  0.51873688  0.07791836  1
  O  O617  1  0.58963931  0.51869798  0.32768139  1
  O  O618  1  0.59006430  0.51926322  0.57793034  1
  O  O619  1  0.58815227  0.51866404  0.82753313  1
  O  O620  1  0.58474764  0.85155422  0.07755504  1
  O  O621  1  0.58726457  0.85090713  0.32679704  1
  O  O622  1  0.58764061  0.85129621  0.57651074  1
  O  O623  1  0.58763992  0.85238854  0.82729339  1
  O  O624  1  0.33712009  0.18579790  0.04797170  1
  O  O625  1  0.33824940  0.18355220  0.29738800  1
  O  O626  1  0.33663407  0.18533036  0.54761481  1
  O  O627  1  0.33686140  0.18454552  0.79764415  1
  O  O628  1  0.33683307  0.51833042  0.04756058  1
  O  O629  1  0.33551771  0.51930646  0.29857513  1
  O  O630  1  0.33745864  0.51804360  0.54776219  1
  O  O631  1  0.33602979  0.51940808  0.79737977  1
  O  O632  1  0.33634254  0.85120773  0.04746256  1
  O  O633  1  0.33756067  0.85178041  0.29817264  1
  O  O634  1  0.33760401  0.85180331  0.54811365  1
  O  O635  1  0.33812521  0.85058164  0.79541683  1
  O  O636  1  0.83537166  0.18481359  0.04792478  1
  O  O637  1  0.83564672  0.18465531  0.29732689  1
  O  O638  1  0.83820389  0.18385904  0.54772108  1
  O  O639  1  0.83669635  0.18385829  0.79707422  1
  O  O640  1  0.83858858  0.51787846  0.04846511  1
  O  O641  1  0.83613616  0.51866827  0.29785439  1
  O  O642  1  0.83501043  0.51917172  0.54771821  1
  O  O643  1  0.83575670  0.51953627  0.79746381  1
  O  O644  1  0.83784409  0.85207002  0.04735085  1
  O  O645  1  0.83675107  0.85132075  0.29806218  1
  O  O646  1  0.83762447  0.85125149  0.54710891  1
  O  O647  1  0.83905896  0.85120761  0.79592889  1
  O  O648  1  0.16356098  0.14713676  0.20202013  1
  O  O649  1  0.16125804  0.14795687  0.45341039  1
  O  O650  1  0.16087622  0.14808645  0.70159169  1
  O  O651  1  0.16114311  0.14828178  0.95292850  1
  O  O652  1  0.16143869  0.48318446  0.20313568  1
  O  O653  1  0.16089852  0.48009145  0.45203622  1
  O  O654  1  0.16233298  0.48299526  0.70319365  1
  O  O655  1  0.16196589  0.48068745  0.95261788  1
  O  O656  1  0.16368845  0.81541731  0.20325566  1
  O  O657  1  0.16186121  0.81685517  0.45315582  1
  O  O658  1  0.16198243  0.81404402  0.70107444  1
  O  O659  1  0.16369828  0.81625489  0.95176859  1
  O  O660  1  0.66169280  0.14765940  0.20330586  1
  O  O661  1  0.66331695  0.14693539  0.45274813  1
  O  O662  1  0.66299309  0.14857922  0.70224473  1
  O  O663  1  0.66159758  0.14890099  0.95223306  1
  O  O664  1  0.66089357  0.48147863  0.20353355  1
  O  O665  1  0.66121278  0.48292868  0.45290148  1
  O  O666  1  0.66112179  0.48175575  0.70259435  1
  O  O667  1  0.66279417  0.48108213  0.95292556  1
  O  O668  1  0.66305074  0.81622383  0.20319208  1
  O  O669  1  0.66216097  0.81597013  0.45203868  1
  O  O670  1  0.66321176  0.81470418  0.70104536  1
  O  O671  1  0.66306940  0.81542706  0.95249498  1
