# generated using pymatgen
data_Na2MnFe(PO4)2
_symmetry_space_group_name_H-M   'P 1'
_cell_length_a   21.08785341
_cell_length_b   18.94158815
_cell_length_c   20.04657161
_cell_angle_alpha   89.99955644
_cell_angle_beta   90.00126020
_cell_angle_gamma   89.99992736
_symmetry_Int_Tables_number   1
_chemical_formula_structural   Na2MnFe(PO4)2
_chemical_formula_sum   'Na96 Mn48 Fe48 P96 O384'
_cell_volume   8007.35112499
_cell_formula_units_Z   48
loop_
 _symmetry_equiv_pos_site_id
 _symmetry_equiv_pos_as_xyz
  1  'x, y, z'
loop_
 _atom_site_type_symbol
 _atom_site_label
 _atom_site_symmetry_multiplicity
 _atom_site_fract_x
 _atom_site_fract_y
 _atom_site_fract_z
 _atom_site_occupancy
  Na  Na0  1  0.00298361  0.00124600  -0.00119149  1
  Na  Na1  1  -0.00006149  -0.00011582  0.25084942  1
  Na  Na2  1  -0.00083442  -0.00021909  0.50023780  1
  Na  Na3  1  0.00118708  0.00008173  0.74983518  1
  Na  Na4  1  0.00073972  0.33309623  -0.00089188  1
  Na  Na5  1  -0.00074936  0.33216068  0.25072422  1
  Na  Na6  1  0.00144650  0.33424547  0.50017124  1
  Na  Na7  1  -0.00094409  0.33249316  0.75047540  1
  Na  Na8  1  0.00133530  0.66746085  -0.00068894  1
  Na  Na9  1  -0.00168527  0.66640787  0.24984705  1
  Na  Na10  1  -0.00110686  0.66703573  0.50040320  1
  Na  Na11  1  0.00108019  0.66785438  0.74963778  1
  Na  Na12  1  0.49953608  -0.00042835  0.00030642  1
  Na  Na13  1  0.49922480  -0.00044323  0.24911901  1
  Na  Na14  1  0.50184620  0.00011270  0.50093449  1
  Na  Na15  1  0.50375517  0.00131074  0.75093613  1
  Na  Na16  1  0.49885718  0.33328410  -0.00095630  1
  Na  Na17  1  0.49867308  0.33272834  0.25001754  1
  Na  Na18  1  0.49999702  0.33252064  0.50125334  1
  Na  Na19  1  0.49928322  0.33262215  0.74922300  1
  Na  Na20  1  0.50012450  0.66750133  -0.00040172  1
  Na  Na21  1  0.49850579  0.66654184  0.25038125  1
  Na  Na22  1  0.49652902  0.66612636  0.50082517  1
  Na  Na23  1  0.49813894  0.66636575  0.74899981  1
  Na  Na24  1  0.25007748  0.00022940  0.12522657  1
  Na  Na25  1  0.24971075  -0.00030343  0.37513070  1
  Na  Na26  1  0.24701081  -0.00117442  0.62475769  1
  Na  Na27  1  0.24760011  -0.00053213  0.87528558  1
  Na  Na28  1  0.25005047  0.33272147  0.12434097  1
  Na  Na29  1  0.25168208  0.33323098  0.37558061  1
  Na  Na30  1  0.25201370  0.33365363  0.62550378  1
  Na  Na31  1  0.25083742  0.33322496  0.87464857  1
  Na  Na32  1  0.25269651  0.66723172  0.12399158  1
  Na  Na33  1  0.25307428  0.66747215  0.37588750  1
  Na  Na34  1  0.25129691  0.66741555  0.62473128  1
  Na  Na35  1  0.25073990  0.66699557  0.87434114  1
  Na  Na36  1  0.74857316  0.00005057  0.12494198  1
  Na  Na37  1  0.74910080  -0.00010096  0.37564963  1
  Na  Na38  1  0.75149667  0.00123808  0.62586950  1
  Na  Na39  1  0.74797969  -0.00079153  0.87386708  1
  Na  Na40  1  0.75113793  0.33317118  0.12475488  1
  Na  Na41  1  0.74932699  0.33263604  0.37356073  1
  Na  Na42  1  0.74910201  0.33235831  0.62560487  1
  Na  Na43  1  0.75130339  0.33323113  0.87550328  1
  Na  Na44  1  0.74756981  0.66676847  0.12461772  1
  Na  Na45  1  0.75065426  0.66747104  0.37509454  1
  Na  Na46  1  0.75035976  0.66688643  0.62531025  1
  Na  Na47  1  0.74847429  0.66685105  0.87591994  1
  Na  Na48  1  0.00067619  0.16603989  -0.00094130  1
  Na  Na49  1  -0.00101650  0.16670592  0.25135189  1
  Na  Na50  1  0.00012732  0.16608855  0.49939589  1
  Na  Na51  1  0.00044478  0.16612056  0.74959192  1
  Na  Na52  1  0.00147367  0.49928798  -0.00095311  1
  Na  Na53  1  -0.00022710  0.50007155  0.24967704  1
  Na  Na54  1  -0.00186880  0.50151922  0.50053592  1
  Na  Na55  1  0.00050949  0.49972684  0.75005983  1
  Na  Na56  1  0.00281784  0.83279992  -0.00105239  1
  Na  Na57  1  -0.00035340  0.83353736  0.25064173  1
  Na  Na58  1  -0.00107735  0.83373911  0.50055519  1
  Na  Na59  1  0.00065697  0.83334316  0.75045932  1
  Na  Na60  1  0.49973994  0.16637368  0.00000784  1
  Na  Na61  1  0.49937610  0.16623053  0.24955170  1
  Na  Na62  1  0.50203787  0.16606855  0.50096615  1
  Na  Na63  1  0.50161978  0.16647412  0.75001815  1
  Na  Na64  1  0.49606522  0.50151033  -0.00028193  1
  Na  Na65  1  0.49833544  0.50026985  0.24961073  1
  Na  Na66  1  0.49707867  0.50100754  0.50118402  1
  Na  Na67  1  0.49853557  0.49999244  0.74945521  1
  Na  Na68  1  0.50175837  0.83278261  -0.00090288  1
  Na  Na69  1  0.49996722  0.83370234  0.25040387  1
  Na  Na70  1  0.49862644  0.83435628  0.50076118  1
  Na  Na71  1  0.50107744  0.83331034  0.74984799  1
  Na  Na72  1  0.24893970  0.16690948  0.12433539  1
  Na  Na73  1  0.24925567  0.16621140  0.37614626  1
  Na  Na74  1  0.24779587  0.16701189  0.62505115  1
  Na  Na75  1  0.24973519  0.16572628  0.87499291  1
  Na  Na76  1  0.25213641  0.50017997  0.12430586  1
  Na  Na77  1  0.25336874  0.49966102  0.37481916  1
  Na  Na78  1  0.25343986  0.49921853  0.62522497  1
  Na  Na79  1  0.25255044  0.49963639  0.87441642  1
  Na  Na80  1  0.25090242  0.83399745  0.12513011  1
  Na  Na81  1  0.25262075  0.83277505  0.37544798  1
  Na  Na82  1  0.24957884  0.83319985  0.62459231  1
  Na  Na83  1  0.24778896  0.83420061  0.87484080  1
  Na  Na84  1  0.75133988  0.16604373  0.12496671  1
  Na  Na85  1  0.75074826  0.16552048  0.37415021  1
  Na  Na86  1  0.74853439  0.16667325  0.62608121  1
  Na  Na87  1  0.75020119  0.16671908  0.87535976  1
  Na  Na88  1  0.74892672  0.50066704  0.12488436  1
  Na  Na89  1  0.74900775  0.50080594  0.37543289  1
  Na  Na90  1  0.75118793  0.49951242  0.62442102  1
  Na  Na91  1  0.74971559  0.50020490  0.87529915  1
  Na  Na92  1  0.74604537  0.83428052  0.12452861  1
  Na  Na93  1  0.74993735  0.83304201  0.37468957  1
  Na  Na94  1  0.75181628  0.83268935  0.62629209  1
  Na  Na95  1  0.74767078  0.83397108  0.87459194  1
  Mn  Mn96  1  0.85758375  0.41730812  0.25211356  1
  Mn  Mn97  1  0.89207349  0.58384894  0.62831937  1
  Mn  Mn98  1  0.35818769  0.75085173  0.00182448  1
  Mn  Mn99  1  0.14329894  0.58317890  0.49748684  1
  Mn  Mn100  1  0.85706113  0.75052385  0.00188647  1
  Mn  Mn101  1  0.85816846  0.08244351  0.00188436  1
  Mn  Mn102  1  0.39261811  0.91719383  0.87678862  1
  Mn  Mn103  1  0.60685565  0.75030449  0.37359125  1
  Mn  Mn104  1  0.14278620  0.91613205  0.24795155  1
  Mn  Mn105  1  0.39114066  0.24959069  0.12685599  1
  Mn  Mn106  1  0.89192837  0.58317711  0.12721048  1
  Mn  Mn107  1  0.14241003  0.24992161  0.74748880  1
  Mn  Mn108  1  0.60772727  0.41661496  0.62316549  1
  Mn  Mn109  1  0.10793088  0.74931039  0.37291492  1
  Mn  Mn110  1  0.10843730  0.41685943  0.62256079  1
  Mn  Mn111  1  0.85660113  0.75044978  0.25105966  1
  Mn  Mn112  1  0.39216101  0.91743832  0.62795675  1
  Mn  Mn113  1  0.14335445  0.58331165  0.99756103  1
  Mn  Mn114  1  0.60751596  0.75000359  0.62290597  1
  Mn  Mn115  1  0.35759268  0.08258983  0.75217805  1
  Mn  Mn116  1  0.14359850  0.58354454  0.74753976  1
  Mn  Mn117  1  0.64072835  0.58321430  0.99724802  1
  Mn  Mn118  1  0.85756788  0.41590404  0.50235712  1
  Mn  Mn119  1  0.14303125  0.58366028  0.24816615  1
  Mn  Mn120  1  0.89201991  0.24964535  0.62695733  1
  Mn  Mn121  1  0.10707472  0.08320544  0.37318885  1
  Mn  Mn122  1  0.60690668  0.41706985  0.12245802  1
  Mn  Mn123  1  0.89099368  0.91579798  0.37733349  1
  Mn  Mn124  1  0.10888512  0.75038165  0.12329740  1
  Mn  Mn125  1  0.60750540  0.08306794  0.12240534  1
  Mn  Mn126  1  0.39290739  0.24912245  0.62747549  1
  Mn  Mn127  1  0.85854712  0.41714787  0.00230434  1
  Mn  Mn128  1  0.10858072  0.41775064  0.37320191  1
  Mn  Mn129  1  0.10831093  0.41617224  0.12248281  1
  Mn  Mn130  1  0.64192738  0.58326004  0.49769698  1
  Mn  Mn131  1  0.35838148  0.41655595  0.25278474  1
  Mn  Mn132  1  0.60666879  0.41649706  0.37287012  1
  Mn  Mn133  1  0.64192657  0.25010117  0.24756700  1
  Mn  Mn134  1  0.89200589  0.91726959  0.12650858  1
  Mn  Mn135  1  0.60694276  0.41649865  0.87237373  1
  Mn  Mn136  1  0.64250109  0.24978896  0.99762085  1
  Mn  Mn137  1  0.89290542  0.91687555  0.87737785  1
  Mn  Mn138  1  0.35783588  0.08308398  0.25283673  1
  Mn  Mn139  1  0.14224417  0.25016301  0.24783462  1
  Mn  Mn140  1  0.64315396  0.91669027  0.49813506  1
  Mn  Mn141  1  0.89247941  0.58319793  0.87685518  1
  Mn  Mn142  1  0.89166026  0.25083033  0.37797291  1
  Mn  Mn143  1  0.35786599  0.08307066  0.50277547  1
  Fe  Fe144  1  0.89147430  0.58339621  0.37614389  1
  Fe  Fe145  1  0.85713770  0.74968388  0.75219501  1
  Fe  Fe146  1  0.85653114  0.08305186  0.50213738  1
  Fe  Fe147  1  0.35798449  0.41612858  0.50181733  1
  Fe  Fe148  1  0.60613521  0.74980981  0.12384339  1
  Fe  Fe149  1  0.14302473  0.91706463  0.99881762  1
  Fe  Fe150  1  0.64236039  0.58301464  0.74862462  1
  Fe  Fe151  1  0.39245425  0.58367307  0.62742598  1
  Fe  Fe152  1  0.35678667  0.41555140  0.00105423  1
  Fe  Fe153  1  0.10707170  0.75038653  0.62289909  1
  Fe  Fe154  1  0.60690651  0.74970903  0.87218825  1
  Fe  Fe155  1  0.64257942  0.24991671  0.49782592  1
  Fe  Fe156  1  0.10811115  0.74966559  0.87247195  1
  Fe  Fe157  1  0.39278192  0.58444526  0.12721185  1
  Fe  Fe158  1  0.14241050  0.24977858  0.99784037  1
  Fe  Fe159  1  0.89333365  0.91670360  0.62702091  1
  Fe  Fe160  1  0.64371785  0.91664294  0.74800755  1
  Fe  Fe161  1  0.64307176  0.25039451  0.74943443  1
  Fe  Fe162  1  0.14253986  0.91637914  0.49808082  1
  Fe  Fe163  1  0.39264099  0.58337168  0.37722932  1
  Fe  Fe164  1  0.39279169  0.24912116  0.37744826  1
  Fe  Fe165  1  0.39317125  0.91749858  0.37722708  1
  Fe  Fe166  1  0.10733108  0.08338627  0.12357273  1
  Fe  Fe167  1  0.39312808  0.58354598  0.87613952  1
  Fe  Fe168  1  0.10641702  0.08296366  0.62294135  1
  Fe  Fe169  1  0.85712960  0.08367566  0.75185655  1
  Fe  Fe170  1  0.64125312  0.58380074  0.24869873  1
  Fe  Fe171  1  0.10777151  0.08363989  0.87262471  1
  Fe  Fe172  1  0.14318194  0.25018096  0.49854120  1
  Fe  Fe173  1  0.89317324  0.24994323  0.87641791  1
  Fe  Fe174  1  0.35659036  0.75085565  0.75190831  1
  Fe  Fe175  1  0.35658949  0.08339294  0.00089890  1
  Fe  Fe176  1  0.64149964  0.91650800  0.24839947  1
  Fe  Fe177  1  0.35875899  0.75068324  0.25203465  1
  Fe  Fe178  1  0.85734881  0.41666941  0.75165947  1
  Fe  Fe179  1  0.60877340  0.08315556  0.62348508  1
  Fe  Fe180  1  0.14217076  0.91621515  0.74773019  1
  Fe  Fe181  1  0.39269295  0.24944421  0.87640716  1
  Fe  Fe182  1  0.85777329  0.75032856  0.50223989  1
  Fe  Fe183  1  0.85707587  0.08267156  0.25115646  1
  Fe  Fe184  1  0.64133812  0.91718768  0.99781308  1
  Fe  Fe185  1  0.39268684  0.91627099  0.12628620  1
  Fe  Fe186  1  0.35797262  0.41630525  0.75262537  1
  Fe  Fe187  1  0.35715321  0.75051326  0.50233628  1
  Fe  Fe188  1  0.10808015  0.41675534  0.87277538  1
  Fe  Fe189  1  0.60740210  0.08322446  0.37340551  1
  Fe  Fe190  1  0.60726619  0.08360726  0.87363728  1
  Fe  Fe191  1  0.89358180  0.24948984  0.12596230  1
  P  P192  1  0.05320012  0.24873420  0.10937789  1
  P  P193  1  0.05457827  0.25034106  0.36144547  1
  P  P194  1  0.05393623  0.24918304  0.60937764  1
  P  P195  1  0.05424693  0.24994413  0.86080311  1
  P  P196  1  0.05365240  0.58349020  0.10955308  1
  P  P197  1  0.05190486  0.58368669  0.35996049  1
  P  P198  1  0.05387180  0.58445282  0.61013424  1
  P  P199  1  0.05433780  0.58323093  0.85955421  1
  P  P200  1  0.05405136  0.91765602  0.10945270  1
  P  P201  1  0.05405442  0.91620287  0.36125444  1
  P  P202  1  0.05416046  0.91648334  0.61082631  1
  P  P203  1  0.05600434  0.91678902  0.86047154  1
  P  P204  1  0.55270442  0.25004242  0.10950976  1
  P  P205  1  0.55301853  0.24896422  0.36126195  1
  P  P206  1  0.55620577  0.24919966  0.61112376  1
  P  P207  1  0.55261520  0.24925380  0.85967392  1
  P  P208  1  0.55246999  0.58430298  0.11117607  1
  P  P209  1  0.55167494  0.58353542  0.36021097  1
  P  P210  1  0.55315121  0.58339601  0.61131951  1
  P  P211  1  0.55222842  0.58376860  0.85892292  1
  P  P212  1  0.55351424  0.91573858  0.11056510  1
  P  P213  1  0.55293100  0.91752544  0.36009469  1
  P  P214  1  0.55524160  0.91715339  0.61153880  1
  P  P215  1  0.55543780  0.91698286  0.86046224  1
  P  P216  1  0.44483813  0.08237672  0.13838758  1
  P  P217  1  0.44800243  0.08293495  0.39045287  1
  P  P218  1  0.44877384  0.08307075  0.64065636  1
  P  P219  1  0.44716357  0.08385198  0.89026433  1
  P  P220  1  0.44472884  0.41698111  0.13843676  1
  P  P221  1  0.44589327  0.41611395  0.39108912  1
  P  P222  1  0.44457513  0.41684718  0.63967771  1
  P  P223  1  0.44445590  0.41628900  0.88889026  1
  P  P224  1  0.44684238  0.75083737  0.14008196  1
  P  P225  1  0.44479666  0.75085302  0.38997100  1
  P  P226  1  0.44432656  0.75020245  0.63981099  1
  P  P227  1  0.44666816  0.75003370  0.88812906  1
  P  P228  1  0.94758801  0.08375971  0.14022974  1
  P  P229  1  0.94385149  0.08285077  0.38989377  1
  P  P230  1  0.94557448  0.08249763  0.63931693  1
  P  P231  1  0.94679375  0.08382560  0.88816002  1
  P  P232  1  0.94724274  0.41541276  0.13987768  1
  P  P233  1  0.94664733  0.41776062  0.39034576  1
  P  P234  1  0.94629706  0.41640069  0.64102433  1
  P  P235  1  0.94683768  0.41595917  0.88836527  1
  P  P236  1  0.94707679  0.75078566  0.13966579  1
  P  P237  1  0.94543295  0.74928894  0.39056224  1
  P  P238  1  0.94598359  0.75133051  0.63988566  1
  P  P239  1  0.94687975  0.75013270  0.88867617  1
  P  P240  1  0.19605207  0.08320141  0.23457952  1
  P  P241  1  0.19493325  0.08289020  0.48659527  1
  P  P242  1  0.19450577  0.08239202  0.73521672  1
  P  P243  1  0.19547890  0.08330317  0.98585566  1
  P  P244  1  0.19772046  0.41700695  0.23476258  1
  P  P245  1  0.19876762  0.41630457  0.48530604  1
  P  P246  1  0.19765065  0.41676832  0.73602241  1
  P  P247  1  0.19728935  0.41598546  0.98408849  1
  P  P248  1  0.19936384  0.74975773  0.23525150  1
  P  P249  1  0.19671441  0.75066756  0.48624576  1
  P  P250  1  0.19587803  0.75061961  0.73509450  1
  P  P251  1  0.19660106  0.75088284  0.98436798  1
  P  P252  1  0.69597217  0.08256682  0.23609142  1
  P  P253  1  0.69598005  0.08389280  0.48575186  1
  P  P254  1  0.69592601  0.08365493  0.73650422  1
  P  P255  1  0.69594947  0.08276615  0.98414452  1
  P  P256  1  0.69593952  0.41758089  0.23486191  1
  P  P257  1  0.69636755  0.41564875  0.48488353  1
  P  P258  1  0.69768194  0.41673748  0.73560992  1
  P  P259  1  0.69656040  0.41642671  0.98462568  1
  P  P260  1  0.69452805  0.75011881  0.23478784  1
  P  P261  1  0.69804406  0.75026439  0.48543316  1
  P  P262  1  0.69618239  0.74964229  0.73641249  1
  P  P263  1  0.69338062  0.75101551  0.98539272  1
  P  P264  1  0.30308521  0.24935735  0.01287539  1
  P  P265  1  0.30392412  0.24937557  0.26627936  1
  P  P266  1  0.30386531  0.24977865  0.51437259  1
  P  P267  1  0.30420989  0.24952711  0.76560605  1
  P  P268  1  0.30618830  0.58275795  0.01355405  1
  P  P269  1  0.30596572  0.58476355  0.26455416  1
  P  P270  1  0.30605193  0.58341268  0.51462737  1
  P  P271  1  0.30592927  0.58406505  0.76412487  1
  P  P272  1  0.30301034  0.91777250  0.01495426  1
  P  P273  1  0.30568164  0.91600606  0.26472773  1
  P  P274  1  0.30349750  0.91658617  0.51425749  1
  P  P275  1  0.30162952  0.91621244  0.76496373  1
  P  P276  1  0.80567441  0.24952056  0.01442210  1
  P  P277  1  0.80487785  0.24897973  0.26335243  1
  P  P278  1  0.80156080  0.24879775  0.51520129  1
  P  P279  1  0.80324699  0.24969003  0.76545958  1
  P  P280  1  0.80262633  0.58388851  0.01499072  1
  P  P281  1  0.80153633  0.58394180  0.26520979  1
  P  P282  1  0.80451371  0.58419313  0.51420004  1
  P  P283  1  0.80199557  0.58349302  0.76522370  1
  P  P284  1  0.80120649  0.91662819  0.01459214  1
  P  P285  1  0.80135061  0.91722759  0.26447914  1
  P  P286  1  0.80419184  0.91668138  0.51616202  1
  P  P287  1  0.80430727  0.91674210  0.76376193  1
  O  O288  1  0.05632544  0.24946834  0.18613269  1
  O  O289  1  0.05958630  0.25044374  0.43815721  1
  O  O290  1  0.05674721  0.24996706  0.68619721  1
  O  O291  1  0.05887261  0.24989181  0.93748517  1
  O  O292  1  0.05682107  0.58362335  0.18632141  1
  O  O293  1  0.05649044  0.58382069  0.43663919  1
  O  O294  1  0.05759109  0.58378701  0.68684364  1
  O  O295  1  0.05741084  0.58318234  0.93630017  1
  O  O296  1  0.05676575  0.91665647  0.18627014  1
  O  O297  1  0.05854641  0.91618578  0.43800646  1
  O  O298  1  0.05839789  0.91614457  0.68757268  1
  O  O299  1  0.06002894  0.91683741  0.93721809  1
  O  O300  1  0.55600610  0.24997785  0.18631801  1
  O  O301  1  0.55797935  0.24954171  0.43793826  1
  O  O302  1  0.56048516  0.25022218  0.68787843  1
  O  O303  1  0.55629914  0.25009732  0.93633382  1
  O  O304  1  0.55712461  0.58334167  0.18783814  1
  O  O305  1  0.55554722  0.58370862  0.43695535  1
  O  O306  1  0.55876190  0.58325671  0.68792808  1
  O  O307  1  0.55530795  0.58325752  0.93569348  1
  O  O308  1  0.55787033  0.91694395  0.18728163  1
  O  O309  1  0.55696012  0.91677149  0.43680273  1
  O  O310  1  0.55998895  0.91648826  0.68826631  1
  O  O311  1  0.55816914  0.91699357  0.93732363  1
  O  O312  1  0.44031550  0.08312176  0.06169008  1
  O  O313  1  0.44428273  0.08309059  0.31376313  1
  O  O314  1  0.44425276  0.08276862  0.56402680  1
  O  O315  1  0.44360722  0.08305061  0.81357973  1
  O  O316  1  0.44072934  0.41595852  0.06167356  1
  O  O317  1  0.44365610  0.41599733  0.31422140  1
  O  O318  1  0.44074064  0.41586401  0.56290588  1
  O  O319  1  0.44120753  0.41588211  0.81198924  1
  O  O320  1  0.44385089  0.75101794  0.06333507  1
  O  O321  1  0.44208138  0.75080850  0.31313933  1
  O  O322  1  0.44022877  0.75120752  0.56301586  1
  O  O323  1  0.44154146  0.75118714  0.81153928  1
  O  O324  1  0.94432061  0.08262235  0.06344471  1
  O  O325  1  0.93968698  0.08255309  0.31311647  1
  O  O326  1  0.94070721  0.08341250  0.56265224  1
  O  O327  1  0.94141989  0.08308414  0.81153648  1
  O  O328  1  0.94458534  0.41638330  0.06304918  1
  O  O329  1  0.94331598  0.41664343  0.31357930  1
  O  O330  1  0.94279319  0.41654205  0.56427362  1
  O  O331  1  0.94122340  0.41673384  0.81174452  1
  O  O332  1  0.94381609  0.75102535  0.06288681  1
  O  O333  1  0.94193465  0.75026984  0.31380065  1
  O  O334  1  0.94116149  0.75051843  0.56322942  1
  O  O335  1  0.94110108  0.75014770  0.81203135  1
  O  O336  1  0.19134130  0.08369655  0.06251598  1
  O  O337  1  0.19262924  0.08306570  0.31136787  1
  O  O338  1  0.19078918  0.08282767  0.56334171  1
  O  O339  1  0.19079815  0.08339889  0.81205980  1
  O  O340  1  0.19390504  0.41655082  0.06084083  1
  O  O341  1  0.19462743  0.41718725  0.31155727  1
  O  O342  1  0.19501836  0.41693168  0.56203807  1
  O  O343  1  0.19207328  0.41684211  0.81261442  1
  O  O344  1  0.19409499  0.75001884  0.06117326  1
  O  O345  1  0.19524882  0.74953369  0.31194831  1
  O  O346  1  0.19154721  0.75018794  0.56287569  1
  O  O347  1  0.19132412  0.74977533  0.81182226  1
  O  O348  1  0.69297495  0.08360885  0.06095200  1
  O  O349  1  0.69125552  0.08317030  0.31278467  1
  O  O350  1  0.69193739  0.08320235  0.56251639  1
  O  O351  1  0.69125764  0.08367271  0.81312738  1
  O  O352  1  0.69287946  0.41638782  0.06135982  1
  O  O353  1  0.69261877  0.41688890  0.31165227  1
  O  O354  1  0.69353738  0.41642561  0.56167952  1
  O  O355  1  0.69383906  0.41682092  0.81226429  1
  O  O356  1  0.68914638  0.74996593  0.06214122  1
  O  O357  1  0.69210544  0.75001075  0.31159145  1
  O  O358  1  0.69396589  0.75012216  0.56211432  1
  O  O359  1  0.69123536  0.74952815  0.81308453  1
  O  O360  1  0.30665394  0.24921598  0.18942930  1
  O  O361  1  0.30887830  0.24866517  0.43773338  1
  O  O362  1  0.30722410  0.24874862  0.68880668  1
  O  O363  1  0.30797024  0.24896692  0.93629230  1
  O  O364  1  0.30967562  0.58417610  0.18768419  1
  O  O365  1  0.30975442  0.58345206  0.43776414  1
  O  O366  1  0.30901810  0.58394065  0.68727285  1
  O  O367  1  0.30997172  0.58411639  0.93674690  1
  O  O368  1  0.30958735  0.91672315  0.18796166  1
  O  O369  1  0.30872872  0.91767686  0.43765440  1
  O  O370  1  0.30560756  0.91696907  0.68830249  1
  O  O371  1  0.30666633  0.91713862  0.93826069  1
  O  O372  1  0.80937558  0.24945797  0.18664843  1
  O  O373  1  0.80520862  0.24952212  0.43849082  1
  O  O374  1  0.80650056  0.24935271  0.68876589  1
  O  O375  1  0.81007884  0.24955777  0.93764185  1
  O  O376  1  0.80553603  0.58368598  0.18849617  1
  O  O377  1  0.80831956  0.58376816  0.43745751  1
  O  O378  1  0.80573373  0.58363825  0.68849333  1
  O  O379  1  0.80661426  0.58379326  0.93824353  1
  O  O380  1  0.80510416  0.91697493  0.18781957  1
  O  O381  1  0.80590688  0.91643991  0.43931197  1
  O  O382  1  0.80919115  0.91685446  0.68715870  1
  O  O383  1  0.80585863  0.91657846  0.93792496  1
  O  O384  1  0.23275931  0.24964306  0.03685065  1
  O  O385  1  0.23428268  0.24952933  0.29134020  1
  O  O386  1  0.23356134  0.24995536  0.53820193  1
  O  O387  1  0.23439355  0.24937232  0.79031355  1
  O  O388  1  0.23618231  0.58362631  0.03790522  1
  O  O389  1  0.23618127  0.58365731  0.28945933  1
  O  O390  1  0.23607491  0.58335426  0.53912128  1
  O  O391  1  0.23605490  0.58366707  0.78885761  1
  O  O392  1  0.23290853  0.91718002  0.03940707  1
  O  O393  1  0.23568728  0.91644173  0.28904894  1
  O  O394  1  0.23309384  0.91643156  0.53770628  1
  O  O395  1  0.23156979  0.91646535  0.78923822  1
  O  O396  1  0.73553951  0.24940663  0.03824529  1
  O  O397  1  0.73480452  0.24927584  0.28746897  1
  O  O398  1  0.73170621  0.24920722  0.54010437  1
  O  O399  1  0.73304448  0.24983116  0.79004738  1
  O  O400  1  0.73268224  0.58366811  0.03919426  1
  O  O401  1  0.73136703  0.58429304  0.28953416  1
  O  O402  1  0.73457228  0.58341624  0.53880207  1
  O  O403  1  0.73193611  0.58357639  0.78992891  1
  O  O404  1  0.73104123  0.91721416  0.03853021  1
  O  O405  1  0.73139323  0.91642792  0.28941903  1
  O  O406  1  0.73474850  0.91686311  0.54213261  1
  O  O407  1  0.73376410  0.91676397  0.78713060  1
  O  O408  1  0.26587547  0.08344222  0.21002162  1
  O  O409  1  0.26491439  0.08268199  0.46215818  1
  O  O410  1  0.26449461  0.08296349  0.71081381  1
  O  O411  1  0.26580680  0.08290822  0.96159242  1
  O  O412  1  0.26734523  0.41656948  0.20959565  1
  O  O413  1  0.26885161  0.41652339  0.46086176  1
  O  O414  1  0.26825174  0.41664447  0.71324425  1
  O  O415  1  0.26741620  0.41617622  0.95968645  1
  O  O416  1  0.26931351  0.75057463  0.21057717  1
  O  O417  1  0.26720791  0.75025286  0.46302977  1
  O  O418  1  0.26628311  0.75035600  0.71161405  1
  O  O419  1  0.26636708  0.75068884  0.95920849  1
  O  O420  1  0.76620900  0.08284643  0.21199603  1
  O  O421  1  0.76624151  0.08275140  0.46184649  1
  O  O422  1  0.76646399  0.08367659  0.71294150  1
  O  O423  1  0.76565482  0.08273706  0.95910642  1
  O  O424  1  0.76564043  0.41720330  0.20977555  1
  O  O425  1  0.76587497  0.41612815  0.45933586  1
  O  O426  1  0.76774038  0.41622778  0.71085504  1
  O  O427  1  0.76638322  0.41661560  0.96005362  1
  O  O428  1  0.76405549  0.75041285  0.20900097  1
  O  O429  1  0.76803307  0.75064086  0.46103155  1
  O  O430  1  0.76662406  0.74985703  0.71287140  1
  O  O431  1  0.76346995  0.75045410  0.96122338  1
  O  O432  1  0.01749849  0.08333093  0.16526076  1
  O  O433  1  0.01401155  0.08297888  0.41363741  1
  O  O434  1  0.01608311  0.08277508  0.66262275  1
  O  O435  1  0.01731031  0.08354435  0.91128454  1
  O  O436  1  0.01675563  0.41570368  0.16554862  1
  O  O437  1  0.01627540  0.41796877  0.41564979  1
  O  O438  1  0.01623881  0.41608396  0.66543778  1
  O  O439  1  0.01732416  0.41620409  0.91165143  1
  O  O440  1  0.01667076  0.75049971  0.16507541  1
  O  O441  1  0.01523832  0.75029521  0.41544724  1
  O  O442  1  0.01652860  0.75085052  0.66306673  1
  O  O443  1  0.01753952  0.75021133  0.91121757  1
  O  O444  1  0.51487807  0.08272506  0.16249930  1
  O  O445  1  0.51801257  0.08284554  0.41520233  1
  O  O446  1  0.51893466  0.08351444  0.66456112  1
  O  O447  1  0.51729822  0.08316207  0.91466247  1
  O  O448  1  0.51448781  0.41654223  0.16335869  1
  O  O449  1  0.51539435  0.41671706  0.41692235  1
  O  O450  1  0.51467905  0.41627357  0.66377945  1
  O  O451  1  0.51436356  0.41694456  0.91359080  1
  O  O452  1  0.51669115  0.75029154  0.16529362  1
  O  O453  1  0.51456758  0.75052534  0.41537272  1
  O  O454  1  0.51448867  0.75026676  0.66355859  1
  O  O455  1  0.51702905  0.75017250  0.91168692  1
  O  O456  1  0.48301534  0.24974280  0.08459305  1
  O  O457  1  0.48270550  0.24926239  0.33745048  1
  O  O458  1  0.48598702  0.24939406  0.58743397  1
  O  O459  1  0.48251747  0.24954310  0.83516636  1
  O  O460  1  0.48220893  0.58479411  0.08711480  1
  O  O461  1  0.48143592  0.58343292  0.33622502  1
  O  O462  1  0.48259453  0.58375765  0.58850185  1
  O  O463  1  0.48215591  0.58331442  0.83441082  1
  O  O464  1  0.48324901  0.91624895  0.08645962  1
  O  O465  1  0.48281029  0.91693952  0.33586480  1
  O  O466  1  0.48516708  0.91695621  0.58768425  1
  O  O467  1  0.48555095  0.91730557  0.83549489  1
  O  O468  1  0.98332904  0.24929401  0.08428499  1
  O  O469  1  0.98441237  0.24969472  0.33797279  1
  O  O470  1  0.98420426  0.24992932  0.58429210  1
  O  O471  1  0.98397659  0.24953683  0.83671513  1
  O  O472  1  0.98408178  0.58340352  0.08406769  1
  O  O473  1  0.98179153  0.58345745  0.33574699  1
  O  O474  1  0.98394484  0.58436625  0.58587271  1
  O  O475  1  0.98467267  0.58358229  0.83423746  1
  O  O476  1  0.98455255  0.91717208  0.08360229  1
  O  O477  1  0.98397002  0.91628443  0.33735628  1
  O  O478  1  0.98376144  0.91675122  0.58710697  1
  O  O479  1  0.98587315  0.91680384  0.83636930  1
  O  O480  1  0.08778414  0.31339864  0.07646008  1
  O  O481  1  0.08754853  0.31553150  0.32806499  1
  O  O482  1  0.08882018  0.31390688  0.57697374  1
  O  O483  1  0.08745356  0.31507578  0.82750390  1
  O  O484  1  0.08798537  0.64852763  0.07730587  1
  O  O485  1  0.08548943  0.64881004  0.32696734  1
  O  O486  1  0.08758977  0.64969214  0.57769906  1
  O  O487  1  0.08864168  0.64830843  0.82733053  1
  O  O488  1  0.08814174  0.98310124  0.07762462  1
  O  O489  1  0.08752544  0.98122860  0.32818340  1
  O  O490  1  0.08760375  0.98157669  0.57775019  1
  O  O491  1  0.08951998  0.98187076  0.82734047  1
  O  O492  1  0.58660566  0.31504746  0.07694230  1
  O  O493  1  0.58629542  0.31399499  0.32775305  1
  O  O494  1  0.58959945  0.31407981  0.57748565  1
  O  O495  1  0.58666187  0.31405088  0.82643720  1
  O  O496  1  0.58592000  0.64944243  0.07835275  1
  O  O497  1  0.58527622  0.64861482  0.32738222  1
  O  O498  1  0.58616609  0.64833134  0.57758240  1
  O  O499  1  0.58611025  0.64876853  0.82629080  1
  O  O500  1  0.58739485  0.98035096  0.07682037  1
  O  O501  1  0.58652747  0.98264279  0.32726483  1
  O  O502  1  0.58870187  0.98239501  0.57885772  1
  O  O503  1  0.58968244  0.98199654  0.82807855  1
  O  O504  1  0.41172895  0.01704571  0.17128124  1
  O  O505  1  0.41420983  0.01774968  0.42314205  1
  O  O506  1  0.41525478  0.01813246  0.67396454  1
  O  O507  1  0.41279777  0.01910859  0.92316856  1
  O  O508  1  0.41086437  0.35218471  0.17170288  1
  O  O509  1  0.41186565  0.35088586  0.42338213  1
  O  O510  1  0.41068412  0.35205220  0.67296017  1
  O  O511  1  0.41094568  0.35104600  0.92180681  1
  O  O512  1  0.41237481  0.68608444  0.17264108  1
  O  O513  1  0.41053807  0.68589177  0.42242655  1
  O  O514  1  0.41073096  0.68506215  0.67243049  1
  O  O515  1  0.41361334  0.68481645  0.92118941  1
  O  O516  1  0.91308879  0.01898875  0.17312209  1
  O  O517  1  0.91037825  0.01786365  0.42313032  1
  O  O518  1  0.91247648  0.01738486  0.67268235  1
  O  O519  1  0.91388647  0.01887233  0.92221778  1
  O  O520  1  0.91321937  0.35004624  0.17158774  1
  O  O521  1  0.91283371  0.35258893  0.42325965  1
  O  O522  1  0.91198700  0.35144496  0.67341080  1
  O  O523  1  0.91386601  0.35070723  0.92149509  1
  O  O524  1  0.91263525  0.68579460  0.17180845  1
  O  O525  1  0.91185826  0.68387605  0.42283523  1
  O  O526  1  0.91240790  0.68656275  0.67370164  1
  O  O527  1  0.91388484  0.68514043  0.92222315  1
  O  O528  1  0.16211546  0.01817574  0.20194864  1
  O  O529  1  0.16128504  0.01778954  0.45362275  1
  O  O530  1  0.16089575  0.01708702  0.70277721  1
  O  O531  1  0.16188664  0.01819539  0.95290708  1
  O  O532  1  0.16355586  0.35184104  0.20257677  1
  O  O533  1  0.16493015  0.35126326  0.45287784  1
  O  O534  1  0.16465331  0.35171464  0.70251276  1
  O  O535  1  0.16329023  0.35096146  0.95155847  1
  O  O536  1  0.16595756  0.68468242  0.20222996  1
  O  O537  1  0.16379647  0.68557064  0.45251513  1
  O  O538  1  0.16248671  0.68583821  0.70134407  1
  O  O539  1  0.16236698  0.68603174  0.95150210  1
  O  O540  1  0.66259051  0.01732025  0.20323837  1
  O  O541  1  0.66192950  0.01914816  0.45248546  1
  O  O542  1  0.66282982  0.01858380  0.70280169  1
  O  O543  1  0.66140621  0.01783725  0.95212766  1
  O  O544  1  0.66184307  0.35257467  0.20227444  1
  O  O545  1  0.66247048  0.35026976  0.45286542  1
  O  O546  1  0.66364220  0.35161444  0.70328463  1
  O  O547  1  0.66280160  0.35133313  0.95193297  1
  O  O548  1  0.66020412  0.68502566  0.20249687  1
  O  O549  1  0.66413847  0.68534568  0.45260541  1
  O  O550  1  0.66302111  0.68459276  0.70296291  1
  O  O551  1  0.65930929  0.68633647  0.95184266  1
  O  O552  1  0.33640747  0.31452596  0.04602468  1
  O  O553  1  0.33849237  0.31425498  0.29845528  1
  O  O554  1  0.33740162  0.31486936  0.54714516  1
  O  O555  1  0.33840926  0.31456183  0.79779866  1
  O  O556  1  0.34033408  0.64747237  0.04690137  1
  O  O557  1  0.33936635  0.65012010  0.29713332  1
  O  O558  1  0.33969004  0.64860996  0.54743353  1
  O  O559  1  0.33937274  0.64944296  0.79678747  1
  O  O560  1  0.33670049  0.98283963  0.04757194  1
  O  O561  1  0.33948541  0.98085633  0.29824093  1
  O  O562  1  0.33650296  0.98148127  0.54837952  1
  O  O563  1  0.33541851  0.98116222  0.79796843  1
  O  O564  1  0.83935475  0.31441998  0.04755281  1
  O  O565  1  0.83829547  0.31404357  0.29679945  1
  O  O566  1  0.83569986  0.31366321  0.54798701  1
  O  O567  1  0.83731795  0.31471244  0.79797224  1
  O  O568  1  0.83614562  0.64908225  0.04760357  1
  O  O569  1  0.83569781  0.64892378  0.29770462  1
  O  O570  1  0.83770812  0.64958575  0.54712692  1
  O  O571  1  0.83592269  0.64852424  0.79792004  1
  O  O572  1  0.83518217  0.98156436  0.04739565  1
  O  O573  1  0.83507167  0.98222090  0.29728381  1
  O  O574  1  0.83872527  0.98182982  0.54803631  1
  O  O575  1  0.83724537  0.98192869  0.79725278  1
  O  O576  1  0.41134383  0.14722759  0.17191708  1
  O  O577  1  0.41416248  0.14786382  0.42344403  1
  O  O578  1  0.41483594  0.14798785  0.67330005  1
  O  O579  1  0.41341499  0.14906842  0.92277715  1
  O  O580  1  0.41143164  0.48249672  0.17081323  1
  O  O581  1  0.41114909  0.48110931  0.42289847  1
  O  O582  1  0.41120643  0.48214232  0.67230799  1
  O  O583  1  0.41026855  0.48130597  0.92117802  1
  O  O584  1  0.41307985  0.81600048  0.17270450  1
  O  O585  1  0.41102108  0.81612262  0.42255807  1
  O  O586  1  0.41072900  0.81502658  0.67344071  1
  O  O587  1  0.41357744  0.81495005  0.92208279  1
  O  O588  1  0.91364757  0.14903020  0.17229630  1
  O  O589  1  0.91022231  0.14776981  0.42317044  1
  O  O590  1  0.91222294  0.14739980  0.67307496  1
  O  O591  1  0.91379597  0.14889956  0.92141404  1
  O  O592  1  0.91275874  0.48038418  0.17223833  1
  O  O593  1  0.91220038  0.48281472  0.42209891  1
  O  O594  1  0.91231211  0.48142690  0.67376823  1
  O  O595  1  0.91375775  0.48094787  0.92215846  1
  O  O596  1  0.91303997  0.81590482  0.17213365  1
  O  O597  1  0.91079658  0.81394627  0.42352136  1
  O  O598  1  0.91294667  0.81651930  0.67314660  1
  O  O599  1  0.91397465  0.81520428  0.92237349  1
  O  O600  1  0.08699138  0.18344423  0.07703156  1
  O  O601  1  0.08796628  0.18532261  0.32819725  1
  O  O602  1  0.08768353  0.18377195  0.57739702  1
  O  O603  1  0.08772067  0.18491636  0.82764390  1
  O  O604  1  0.08794773  0.51839065  0.07728501  1
  O  O605  1  0.08599340  0.51880282  0.32723950  1
  O  O606  1  0.08762267  0.51930380  0.57735331  1
  O  O607  1  0.08827919  0.51800196  0.82715191  1
  O  O608  1  0.08913903  0.85309606  0.07696348  1
  O  O609  1  0.08757590  0.85124960  0.32802215  1
  O  O610  1  0.08755509  0.85147723  0.57737908  1
  O  O611  1  0.08956585  0.85170529  0.82728295  1
  O  O612  1  0.58694501  0.18499085  0.07728669  1
  O  O613  1  0.58629732  0.18382857  0.32809837  1
  O  O614  1  0.58957369  0.18397606  0.57829077  1
  O  O615  1  0.58658835  0.18408334  0.82738989  1
  O  O616  1  0.58530565  0.51931685  0.07716735  1
  O  O617  1  0.58538691  0.51863099  0.32722762  1
  O  O618  1  0.58582494  0.51820424  0.57773668  1
  O  O619  1  0.58631482  0.51881394  0.82616360  1
  O  O620  1  0.58665048  0.85035410  0.07794796  1
  O  O621  1  0.58692408  0.85261222  0.32713977  1
  O  O622  1  0.58847093  0.85219955  0.57792126  1
  O  O623  1  0.58929724  0.85190116  0.82767632  1
  O  O624  1  0.33612600  0.18431077  0.04650937  1
  O  O625  1  0.33816442  0.18442712  0.29890296  1
  O  O626  1  0.33690540  0.18477363  0.54825961  1
  O  O627  1  0.33830961  0.18457776  0.79839065  1
  O  O628  1  0.33922633  0.51715824  0.04585580  1
  O  O629  1  0.34050275  0.52009049  0.29748008  1
  O  O630  1  0.33991648  0.51838631  0.54737650  1
  O  O631  1  0.34009207  0.51924658  0.79685152  1
  O  O632  1  0.33724255  0.85288886  0.04782980  1
  O  O633  1  0.33934990  0.85091279  0.29747830  1
  O  O634  1  0.33680180  0.85147268  0.54731740  1
  O  O635  1  0.33540142  0.85114842  0.79763562  1
  O  O636  1  0.83927813  0.18443787  0.04742500  1
  O  O637  1  0.83816409  0.18379377  0.29630960  1
  O  O638  1  0.83527871  0.18360186  0.54774869  1
  O  O639  1  0.83717189  0.18466353  0.79827799  1
  O  O640  1  0.83657104  0.51882960  0.04755778  1
  O  O641  1  0.83542116  0.51900829  0.29820558  1
  O  O642  1  0.83854738  0.51936052  0.54723331  1
  O  O643  1  0.83581719  0.51824419  0.79758333  1
  O  O644  1  0.83446775  0.85159054  0.04773877  1
  O  O645  1  0.83554900  0.85225079  0.29710688  1
  O  O646  1  0.83877212  0.85170886  0.54824595  1
  O  O647  1  0.83719105  0.85159638  0.79730760  1
  O  O648  1  0.16183637  0.14809159  0.20193935  1
  O  O649  1  0.16160227  0.14822151  0.45380580  1
  O  O650  1  0.16030186  0.14707412  0.70209606  1
  O  O651  1  0.16211117  0.14822894  0.95213708  1
  O  O652  1  0.16393679  0.48210229  0.20225042  1
  O  O653  1  0.16524349  0.48144467  0.45227236  1
  O  O654  1  0.16487811  0.48173464  0.70212987  1
  O  O655  1  0.16353381  0.48101702  0.95109990  1
  O  O656  1  0.16505548  0.81466865  0.20276391  1
  O  O657  1  0.16374581  0.81578126  0.45286220  1
  O  O658  1  0.16249675  0.81578588  0.70208712  1
  O  O659  1  0.16244572  0.81611033  0.95254319  1
  O  O660  1  0.66248984  0.14739422  0.20249730  1
  O  O661  1  0.66287470  0.14909574  0.45256029  1
  O  O662  1  0.66272086  0.14873730  0.70323128  1
  O  O663  1  0.66172481  0.14770604  0.95140279  1
  O  O664  1  0.66198125  0.48299044  0.20292303  1
  O  O665  1  0.66184848  0.48061405  0.45266986  1
  O  O666  1  0.66405265  0.48187774  0.70266821  1
  O  O667  1  0.66232040  0.48137930  0.95216462  1
  O  O668  1  0.65997141  0.81517439  0.20275271  1
  O  O669  1  0.66409746  0.81526120  0.45277766  1
  O  O670  1  0.66304503  0.81483283  0.70315330  1
  O  O671  1  0.66011509  0.81640563  0.95272958  1
