# generated using pymatgen
data_Na2MnFe(PO4)2
_symmetry_space_group_name_H-M   'P 1'
_cell_length_a   21.08490570
_cell_length_b   18.93734732
_cell_length_c   20.04374620
_cell_angle_alpha   89.99956403
_cell_angle_beta   90.00159934
_cell_angle_gamma   89.99916735
_symmetry_Int_Tables_number   1
_chemical_formula_structural   Na2MnFe(PO4)2
_chemical_formula_sum   'Na96 Mn48 Fe48 P96 O384'
_cell_volume   8003.31115866
_cell_formula_units_Z   48
loop_
 _symmetry_equiv_pos_site_id
 _symmetry_equiv_pos_as_xyz
  1  'x, y, z'
loop_
 _atom_site_type_symbol
 _atom_site_label
 _atom_site_symmetry_multiplicity
 _atom_site_fract_x
 _atom_site_fract_y
 _atom_site_fract_z
 _atom_site_occupancy
  Na  Na0  1  0.00164849  0.00020702  0.00014178  1
  Na  Na1  1  0.00147694  0.00030820  0.24976050  1
  Na  Na2  1  -0.00234173  -0.00046486  0.49968398  1
  Na  Na3  1  -0.00037134  0.00039098  0.74994163  1
  Na  Na4  1  0.00097018  0.33420506  0.00092691  1
  Na  Na5  1  -0.00046993  0.33351861  0.24958761  1
  Na  Na6  1  -0.00036188  0.33311555  0.49978000  1
  Na  Na7  1  0.00012410  0.33361476  0.74990906  1
  Na  Na8  1  0.00103912  0.66636237  0.00076918  1
  Na  Na9  1  0.00313834  0.66754407  0.24968713  1
  Na  Na10  1  0.00043376  0.66649033  0.50016429  1
  Na  Na11  1  0.00033961  0.66629288  0.74989987  1
  Na  Na12  1  0.49717840  -0.00112800  0.00131937  1
  Na  Na13  1  0.49858030  -0.00013912  0.25068926  1
  Na  Na14  1  0.49869187  0.00009326  0.49950839  1
  Na  Na15  1  0.49804270  -0.00050867  0.74900839  1
  Na  Na16  1  0.50033233  0.33415716  -0.00088744  1
  Na  Na17  1  0.49935158  0.33332192  0.25066661  1
  Na  Na18  1  0.50278789  0.33477114  0.49914806  1
  Na  Na19  1  0.50038469  0.33325459  0.75033918  1
  Na  Na20  1  0.50159811  0.66661624  0.00059367  1
  Na  Na21  1  0.50061292  0.66625447  0.25033068  1
  Na  Na22  1  0.50135710  0.66621928  0.49938661  1
  Na  Na23  1  0.50219174  0.66646876  0.75007882  1
  Na  Na24  1  0.25204416  0.00033787  0.12406229  1
  Na  Na25  1  0.25044907  -0.00003924  0.37540683  1
  Na  Na26  1  0.24980943  0.00069398  0.62568571  1
  Na  Na27  1  0.25051613  -0.00002539  0.87475281  1
  Na  Na28  1  0.24858260  0.33373605  0.12552405  1
  Na  Na29  1  0.24703426  0.33256342  0.37511764  1
  Na  Na30  1  0.24888058  0.33408454  0.62546579  1
  Na  Na31  1  0.24706290  0.33307730  0.87461819  1
  Na  Na32  1  0.24885629  0.66603038  0.12469385  1
  Na  Na33  1  0.24824082  0.66615066  0.37379534  1
  Na  Na34  1  0.24747861  0.66552684  0.62567488  1
  Na  Na35  1  0.24889450  0.66581866  0.87553085  1
  Na  Na36  1  0.74988355  -0.00012788  0.12427076  1
  Na  Na37  1  0.75041262  -0.00046859  0.37535745  1
  Na  Na38  1  0.75373524  0.00148730  0.62470690  1
  Na  Na39  1  0.75061229  -0.00011172  0.87494307  1
  Na  Na40  1  0.75091805  0.33411047  0.12578370  1
  Na  Na41  1  0.75140748  0.33401431  0.37570039  1
  Na  Na42  1  0.75038582  0.33316733  0.62455480  1
  Na  Na43  1  0.75035382  0.33345939  0.87374247  1
  Na  Na44  1  0.74690619  0.66544413  0.12366072  1
  Na  Na45  1  0.75064219  0.66694388  0.37559250  1
  Na  Na46  1  0.75089624  0.66666662  0.62607147  1
  Na  Na47  1  0.74838158  0.66611067  0.87478439  1
  Na  Na48  1  0.00273157  0.16648111  -0.00025722  1
  Na  Na49  1  -0.00026215  0.16791676  0.25032777  1
  Na  Na50  1  -0.00046384  0.16721466  0.50034866  1
  Na  Na51  1  0.00170533  0.16648204  0.75014406  1
  Na  Na52  1  0.00034370  0.50053113  0.00110351  1
  Na  Na53  1  0.00104022  0.49987408  0.24969918  1
  Na  Na54  1  -0.00059340  0.50047766  0.49960091  1
  Na  Na55  1  0.00008897  0.50033076  0.74974682  1
  Na  Na56  1  0.00047694  0.83243630  0.00087384  1
  Na  Na57  1  0.00242550  0.83214492  0.24898278  1
  Na  Na58  1  -0.00076760  0.83350074  0.49972984  1
  Na  Na59  1  -0.00079154  0.83248967  0.74985829  1
  Na  Na60  1  0.50092500  0.16640401  -0.00025345  1
  Na  Na61  1  0.49927525  0.16719249  0.25119103  1
  Na  Na62  1  0.50044622  0.16673866  0.49912046  1
  Na  Na63  1  0.50037708  0.16674390  0.74950530  1
  Na  Na64  1  0.49873482  0.50091719  -0.00001823  1
  Na  Na65  1  0.49946060  0.50004354  0.24997161  1
  Na  Na66  1  0.50213137  0.49902536  0.50003755  1
  Na  Na67  1  0.50010243  0.50012712  0.75067251  1
  Na  Na68  1  0.49878863  0.83343286  0.00096057  1
  Na  Na69  1  0.49986875  0.83272572  0.25060426  1
  Na  Na70  1  0.50094842  0.83244673  0.49869357  1
  Na  Na71  1  0.50131719  0.83217462  0.74944291  1
  Na  Na72  1  0.24827760  0.16751110  0.12507616  1
  Na  Na73  1  0.25025598  0.16600937  0.37575276  1
  Na  Na74  1  0.24706868  0.16755201  0.62562681  1
  Na  Na75  1  0.24670496  0.16768145  0.87370151  1
  Na  Na76  1  0.25041112  0.50002233  0.12525552  1
  Na  Na77  1  0.24746913  0.50113609  0.37415391  1
  Na  Na78  1  0.24905199  0.50023436  0.62564929  1
  Na  Na79  1  0.25050301  0.50025879  0.87553027  1
  Na  Na80  1  0.24977875  0.83313394  0.12430609  1
  Na  Na81  1  0.24824383  0.83353456  0.37419686  1
  Na  Na82  1  0.24982451  0.83223294  0.62580966  1
  Na  Na83  1  0.24974337  0.83273999  0.87558724  1
  Na  Na84  1  0.74893976  0.16760053  0.12501766  1
  Na  Na85  1  0.75260518  0.16644608  0.37489129  1
  Na  Na86  1  0.75214201  0.16726712  0.62458341  1
  Na  Na87  1  0.74964645  0.16734080  0.87423239  1
  Na  Na88  1  0.75107870  0.49963812  0.12445752  1
  Na  Na89  1  0.75031490  0.49986876  0.37601357  1
  Na  Na90  1  0.75118919  0.49974660  0.62477235  1
  Na  Na91  1  0.74966316  0.50086047  0.87457771  1
  Na  Na92  1  0.74767631  0.83321203  0.12439281  1
  Na  Na93  1  0.75029288  0.83276969  0.37560401  1
  Na  Na94  1  0.75048605  0.83309567  0.62615678  1
  Na  Na95  1  0.74949675  0.83257456  0.87450399  1
  Mn  Mn96  1  0.64350673  0.91755886  0.49820083  1
  Mn  Mn97  1  0.60778642  0.41684982  0.12298187  1
  Mn  Mn98  1  0.85807353  0.41675910  0.75243216  1
  Mn  Mn99  1  0.60710307  0.08310892  0.12298851  1
  Mn  Mn100  1  0.89232325  0.24978119  0.12655919  1
  Mn  Mn101  1  0.39140828  0.25027713  0.12720316  1
  Mn  Mn102  1  0.89340307  0.25065951  0.87789289  1
  Mn  Mn103  1  0.60866655  0.74956408  0.37247146  1
  Mn  Mn104  1  0.14182994  0.91637845  0.74765311  1
  Mn  Mn105  1  0.89239128  0.91639076  0.12732672  1
  Mn  Mn106  1  0.14132806  0.91649986  0.49778978  1
  Mn  Mn107  1  0.60793186  0.41702675  0.87282392  1
  Mn  Mn108  1  0.39218513  0.25071487  0.62632163  1
  Mn  Mn109  1  0.64264888  0.25002496  0.74709660  1
  Mn  Mn110  1  0.35697531  0.74966695  0.50223481  1
  Mn  Mn111  1  0.85788725  0.08315768  0.25199838  1
  Mn  Mn112  1  0.35699163  0.41623415  0.00203328  1
  Mn  Mn113  1  0.10906722  0.08288813  0.12302558  1
  Mn  Mn114  1  0.89296308  0.58357782  0.37643329  1
  Mn  Mn115  1  0.35815296  0.74897443  0.75234131  1
  Mn  Mn116  1  0.39212519  0.91592508  0.62698288  1
  Mn  Mn117  1  0.10791929  0.41727894  0.12304975  1
  Mn  Mn118  1  0.35788770  0.74924927  0.00214598  1
  Mn  Mn119  1  0.39155846  0.91622842  0.37721802  1
  Mn  Mn120  1  0.14289008  0.91664630  0.99707225  1
  Mn  Mn121  1  0.64348879  0.58288804  0.49815409  1
  Mn  Mn122  1  0.10743862  0.41647104  0.62241299  1
  Mn  Mn123  1  0.35680614  0.08409192  0.75205036  1
  Mn  Mn124  1  0.35706883  0.41654835  0.50204053  1
  Mn  Mn125  1  0.89220121  0.58394661  0.12719325  1
  Mn  Mn126  1  0.64210560  0.91708058  0.74749855  1
  Mn  Mn127  1  0.35729659  0.08426272  0.00170724  1
  Mn  Mn128  1  0.60849245  0.08336886  0.62210073  1
  Mn  Mn129  1  0.10710936  0.75078333  0.62259087  1
  Mn  Mn130  1  0.85739054  0.75000243  0.75282976  1
  Mn  Mn131  1  0.60808034  0.08355326  0.37305221  1
  Mn  Mn132  1  0.64122854  0.91701265  0.99736862  1
  Mn  Mn133  1  0.10776287  0.08325662  0.37257336  1
  Mn  Mn134  1  0.85829961  0.08359186  0.00225048  1
  Mn  Mn135  1  0.89237715  0.91674395  0.37606623  1
  Mn  Mn136  1  0.39168168  0.25072448  0.37780443  1
  Mn  Mn137  1  0.60778966  0.08233494  0.87253235  1
  Mn  Mn138  1  0.39225003  0.58299507  0.62675316  1
  Mn  Mn139  1  0.89268359  0.91583112  0.87798833  1
  Mn  Mn140  1  0.39138802  0.24981208  0.87728663  1
  Mn  Mn141  1  0.64285431  0.25007031  0.24777282  1
  Mn  Mn142  1  0.39200144  0.58285589  0.37714676  1
  Mn  Mn143  1  0.85746429  0.74956981  0.25143831  1
  Fe  Fe144  1  0.10670945  0.41707389  0.37312097  1
  Fe  Fe145  1  0.10683328  0.74954112  0.87369652  1
  Fe  Fe146  1  0.14282360  0.58272653  0.99753430  1
  Fe  Fe147  1  0.89291383  0.58349445  0.87685356  1
  Fe  Fe148  1  0.35695210  0.08372544  0.25161661  1
  Fe  Fe149  1  0.10759414  0.08277542  0.87255502  1
  Fe  Fe150  1  0.85837468  0.08363350  0.50193682  1
  Fe  Fe151  1  0.14330152  0.58343709  0.24786617  1
  Fe  Fe152  1  0.14242062  0.58290519  0.74916898  1
  Fe  Fe153  1  0.35654995  0.74973718  0.25142751  1
  Fe  Fe154  1  0.14186661  0.25071378  0.99777657  1
  Fe  Fe155  1  0.14260767  0.24974194  0.24888103  1
  Fe  Fe156  1  0.14171662  0.25036005  0.49800464  1
  Fe  Fe157  1  0.35698883  0.41688369  0.75151806  1
  Fe  Fe158  1  0.85781803  0.41690362  0.50179245  1
  Fe  Fe159  1  0.85664731  0.74941813  0.00175322  1
  Fe  Fe160  1  0.39302971  0.58396986  0.87657908  1
  Fe  Fe161  1  0.85747625  0.41724317  0.25212464  1
  Fe  Fe162  1  0.39247657  0.91580561  0.87594241  1
  Fe  Fe163  1  0.14334757  0.91663855  0.24797476  1
  Fe  Fe164  1  0.64246926  0.58259035  0.99811533  1
  Fe  Fe165  1  0.89236517  0.91670864  0.62691153  1
  Fe  Fe166  1  0.85750151  0.41719004  0.00090334  1
  Fe  Fe167  1  0.89322367  0.25053127  0.37672329  1
  Fe  Fe168  1  0.60650496  0.74991307  0.12366532  1
  Fe  Fe169  1  0.64268667  0.58286025  0.74807049  1
  Fe  Fe170  1  0.64196909  0.91630799  0.24830328  1
  Fe  Fe171  1  0.89305513  0.58338580  0.62704637  1
  Fe  Fe172  1  0.60788649  0.74964279  0.62281429  1
  Fe  Fe173  1  0.64261415  0.58323806  0.24816069  1
  Fe  Fe174  1  0.35653594  0.41646261  0.25221277  1
  Fe  Fe175  1  0.85852382  0.74991297  0.50190370  1
  Fe  Fe176  1  0.60708022  0.75030493  0.87398249  1
  Fe  Fe177  1  0.64441325  0.24994281  0.49847208  1
  Fe  Fe178  1  0.85829583  0.08357326  0.75216576  1
  Fe  Fe179  1  0.60855502  0.41670004  0.37290477  1
  Fe  Fe180  1  0.10600634  0.08297168  0.62307901  1
  Fe  Fe181  1  0.89336936  0.24998257  0.62664034  1
  Fe  Fe182  1  0.35639754  0.08377758  0.50205739  1
  Fe  Fe183  1  0.14201493  0.25105509  0.74792805  1
  Fe  Fe184  1  0.10711304  0.41771468  0.87324100  1
  Fe  Fe185  1  0.10754501  0.74985975  0.37293810  1
  Fe  Fe186  1  0.14127544  0.58292348  0.49817142  1
  Fe  Fe187  1  0.39244271  0.91579475  0.12787391  1
  Fe  Fe188  1  0.10822276  0.75010988  0.12277916  1
  Fe  Fe189  1  0.60765695  0.41674619  0.62328951  1
  Fe  Fe190  1  0.39271484  0.58377349  0.12689487  1
  Fe  Fe191  1  0.64251989  0.25056650  0.99871790  1
  P  P192  1  0.05552173  0.25021464  0.11071638  1
  P  P193  1  0.05389166  0.25111153  0.36069900  1
  P  P194  1  0.05383908  0.24942848  0.61066162  1
  P  P195  1  0.05547462  0.25104966  0.86056741  1
  P  P196  1  0.05577795  0.58412419  0.11063897  1
  P  P197  1  0.05535276  0.58327671  0.36036134  1
  P  P198  1  0.05363878  0.58327077  0.61072753  1
  P  P199  1  0.05373716  0.58330453  0.86098523  1
  P  P200  1  0.05539164  0.91594089  0.11088076  1
  P  P201  1  0.05406623  0.91586557  0.35899949  1
  P  P202  1  0.05135800  0.91757705  0.61011915  1
  P  P203  1  0.05341592  0.91569995  0.86003108  1
  P  P204  1  0.55335354  0.25045180  0.10941381  1
  P  P205  1  0.55513068  0.25077162  0.36133082  1
  P  P206  1  0.55440974  0.25094062  0.60876935  1
  P  P207  1  0.55443141  0.25002267  0.86072889  1
  P  P208  1  0.55400524  0.58367900  0.11085272  1
  P  P209  1  0.55475399  0.58214145  0.35945871  1
  P  P210  1  0.55495769  0.58285722  0.61109518  1
  P  P211  1  0.55449904  0.58393502  0.86085527  1
  P  P212  1  0.55277901  0.91568022  0.11178303  1
  P  P213  1  0.55409827  0.91684963  0.35955011  1
  P  P214  1  0.55350300  0.91587793  0.60925795  1
  P  P215  1  0.55175109  0.91582704  0.85988890  1
  P  P216  1  0.44539832  0.08314297  0.14098527  1
  P  P217  1  0.44416388  0.08357911  0.38979019  1
  P  P218  1  0.44533796  0.08404690  0.63858151  1
  P  P219  1  0.44637855  0.08256913  0.88984980  1
  P  P220  1  0.44551117  0.41753968  0.14060813  1
  P  P221  1  0.44677500  0.41697930  0.38921498  1
  P  P222  1  0.44743927  0.41660654  0.64044866  1
  P  P223  1  0.44499035  0.41770689  0.88866931  1
  P  P224  1  0.44661262  0.74911506  0.14068104  1
  P  P225  1  0.44551476  0.74928179  0.38892337  1
  P  P226  1  0.44816567  0.74911323  0.63967736  1
  P  P227  1  0.44781610  0.74921580  0.88998604  1
  P  P228  1  0.94759370  0.08348372  0.14014159  1
  P  P229  1  0.94623878  0.08432512  0.39022898  1
  P  P230  1  0.94566084  0.08383237  0.63939990  1
  P  P231  1  0.94771852  0.08359627  0.88911180  1
  P  P232  1  0.94460895  0.41715017  0.13956451  1
  P  P233  1  0.94607408  0.41648629  0.38910606  1
  P  P234  1  0.94534843  0.41678420  0.63841933  1
  P  P235  1  0.94763252  0.41794053  0.89063236  1
  P  P236  1  0.94721566  0.74959917  0.13896782  1
  P  P237  1  0.94770932  0.74985591  0.38979586  1
  P  P238  1  0.94510411  0.74967039  0.63900395  1
  P  P239  1  0.94703876  0.74850612  0.89093597  1
  P  P240  1  0.19787771  0.08308271  0.23549788  1
  P  P241  1  0.19560931  0.08391144  0.48651304  1
  P  P242  1  0.19371431  0.08394492  0.73523398  1
  P  P243  1  0.19594856  0.08400917  0.98385778  1
  P  P244  1  0.19596110  0.41671459  0.23668141  1
  P  P245  1  0.19517018  0.41690506  0.48415923  1
  P  P246  1  0.19579507  0.41763324  0.73666185  1
  P  P247  1  0.19551744  0.41723001  0.98443203  1
  P  P248  1  0.19585079  0.74998495  0.23531993  1
  P  P249  1  0.19536393  0.74897467  0.48419651  1
  P  P250  1  0.19506793  0.74860979  0.73664385  1
  P  P251  1  0.19511355  0.74884644  0.98542205  1
  P  P252  1  0.69678106  0.08257129  0.23487708  1
  P  P253  1  0.69900311  0.08453486  0.48517534  1
  P  P254  1  0.69856152  0.08329773  0.73443707  1
  P  P255  1  0.69671806  0.08425696  0.98480165  1
  P  P256  1  0.69713623  0.41759615  0.23614918  1
  P  P257  1  0.69666481  0.41582081  0.48602711  1
  P  P258  1  0.69630576  0.41754565  0.73412868  1
  P  P259  1  0.69778691  0.41676192  0.98507158  1
  P  P260  1  0.69576656  0.74947626  0.23414443  1
  P  P261  1  0.69764916  0.74992989  0.48662142  1
  P  P262  1  0.69429930  0.74912856  0.73600633  1
  P  P263  1  0.69514482  0.74916076  0.98556132  1
  P  P264  1  0.30086289  0.25032311  0.01479892  1
  P  P265  1  0.30198745  0.25032220  0.26515753  1
  P  P266  1  0.30109181  0.24991874  0.51513537  1
  P  P267  1  0.30169895  0.25121069  0.76451799  1
  P  P268  1  0.30394412  0.58331354  0.01453907  1
  P  P269  1  0.30363384  0.58352852  0.26337628  1
  P  P270  1  0.30103646  0.58311445  0.51484452  1
  P  P271  1  0.30295550  0.58254013  0.76566980  1
  P  P272  1  0.30572544  0.91617135  0.01430962  1
  P  P273  1  0.30346019  0.91607458  0.26350284  1
  P  P274  1  0.30244696  0.91689391  0.51530381  1
  P  P275  1  0.30361539  0.91614705  0.76566651  1
  P  P276  1  0.80240013  0.25118805  0.01462292  1
  P  P277  1  0.80471473  0.25108136  0.26563465  1
  P  P278  1  0.80548316  0.25064715  0.51403204  1
  P  P279  1  0.80561164  0.24948353  0.76370972  1
  P  P280  1  0.80363757  0.58360594  0.01325349  1
  P  P281  1  0.80205746  0.58308089  0.26469932  1
  P  P282  1  0.80521334  0.58326249  0.51565676  1
  P  P283  1  0.80407703  0.58329010  0.76473116  1
  P  P284  1  0.80318993  0.91519420  0.01480049  1
  P  P285  1  0.80153261  0.91588164  0.26461448  1
  P  P286  1  0.80508480  0.91638857  0.51547377  1
  P  P287  1  0.80490557  0.91743363  0.76426783  1
  O  O288  1  0.05974580  0.25029027  0.18751272  1
  O  O289  1  0.05821694  0.25022138  0.43748102  1
  O  O290  1  0.05851348  0.25078194  0.68732939  1
  O  O291  1  0.05876629  0.25100490  0.93746384  1
  O  O292  1  0.06020861  0.58323132  0.18744806  1
  O  O293  1  0.05807958  0.58308872  0.43717123  1
  O  O294  1  0.05845550  0.58289037  0.68731570  1
  O  O295  1  0.05813229  0.58301255  0.93769095  1
  O  O296  1  0.05986811  0.91669840  0.18763282  1
  O  O297  1  0.05634180  0.91685072  0.43581841  1
  O  O298  1  0.05535480  0.91675344  0.68675484  1
  O  O299  1  0.05637630  0.91597779  0.93680430  1
  O  O300  1  0.55672468  0.25059634  0.18622558  1
  O  O301  1  0.56019240  0.25010279  0.43797268  1
  O  O302  1  0.55708921  0.24988352  0.68562533  1
  O  O303  1  0.55920875  0.25046161  0.93746835  1
  O  O304  1  0.55873058  0.58256346  0.18749803  1
  O  O305  1  0.55833973  0.58264712  0.43620316  1
  O  O306  1  0.55842083  0.58273054  0.68786806  1
  O  O307  1  0.55898555  0.58264497  0.93763211  1
  O  O308  1  0.55785916  0.91649317  0.18837928  1
  O  O309  1  0.55787346  0.91703541  0.43630935  1
  O  O310  1  0.55635167  0.91694679  0.68606600  1
  O  O311  1  0.55506113  0.91678586  0.93667468  1
  O  O312  1  0.44258251  0.08414226  0.06417584  1
  O  O313  1  0.43946761  0.08388530  0.31301430  1
  O  O314  1  0.44041377  0.08443954  0.56182457  1
  O  O315  1  0.44312913  0.08384331  0.81303747  1
  O  O316  1  0.44250139  0.41678900  0.06378067  1
  O  O317  1  0.44054466  0.41667968  0.31263216  1
  O  O318  1  0.44341341  0.41670372  0.56367583  1
  O  O319  1  0.44071106  0.41665744  0.81197617  1
  O  O320  1  0.44335931  0.74900260  0.06395496  1
  O  O321  1  0.44045716  0.74925973  0.31225128  1
  O  O322  1  0.44392038  0.74889542  0.56299119  1
  O  O323  1  0.44460084  0.74879812  0.81329671  1
  O  O324  1  0.94439749  0.08353206  0.06330516  1
  O  O325  1  0.94343642  0.08363404  0.31342645  1
  O  O326  1  0.94144035  0.08393927  0.56260343  1
  O  O327  1  0.94272386  0.08380610  0.81246496  1
  O  O328  1  0.94024702  0.41725318  0.06281033  1
  O  O329  1  0.94163507  0.41735173  0.31236942  1
  O  O330  1  0.94196914  0.41677109  0.56198680  1
  O  O331  1  0.94384617  0.41728534  0.81392082  1
  O  O332  1  0.94148159  0.74923864  0.06243756  1
  O  O333  1  0.94390776  0.74952533  0.31307621  1
  O  O334  1  0.94179156  0.74967280  0.56221052  1
  O  O335  1  0.94315782  0.74896774  0.81418274  1
  O  O336  1  0.19385273  0.08284001  0.06070808  1
  O  O337  1  0.19433787  0.08275515  0.31217842  1
  O  O338  1  0.19043720  0.08317397  0.56317373  1
  O  O339  1  0.18986569  0.08266817  0.81206943  1
  O  O340  1  0.19328184  0.41745399  0.06153429  1
  O  O341  1  0.19122482  0.41684201  0.31312048  1
  O  O342  1  0.19277329  0.41701679  0.56142821  1
  O  O343  1  0.19126723  0.41778628  0.81297761  1
  O  O344  1  0.19161994  0.74975197  0.06224025  1
  O  O345  1  0.19147957  0.75004427  0.31197908  1
  O  O346  1  0.19249212  0.74979505  0.56109808  1
  O  O347  1  0.19086404  0.74951585  0.81334518  1
  O  O348  1  0.69316392  0.08339231  0.06155468  1
  O  O349  1  0.69410199  0.08306198  0.31168232  1
  O  O350  1  0.69511945  0.08413897  0.56182652  1
  O  O351  1  0.69406161  0.08289978  0.81112009  1
  O  O352  1  0.69431879  0.41691223  0.06169212  1
  O  O353  1  0.69274378  0.41705359  0.31291807  1
  O  O354  1  0.69192676  0.41654245  0.56259715  1
  O  O355  1  0.69318827  0.41704128  0.81105219  1
  O  O356  1  0.69016257  0.74985974  0.06220003  1
  O  O357  1  0.69395145  0.74964522  0.31113926  1
  O  O358  1  0.69266068  0.74978660  0.56324070  1
  O  O359  1  0.69012985  0.75004350  0.81280135  1
  O  O360  1  0.30532408  0.25067584  0.18840654  1
  O  O361  1  0.30514258  0.25039795  0.43851043  1
  O  O362  1  0.30579790  0.25074648  0.68782920  1
  O  O363  1  0.30484731  0.25027011  0.93818635  1
  O  O364  1  0.30822060  0.58359201  0.18665088  1
  O  O365  1  0.30527745  0.58321722  0.43820158  1
  O  O366  1  0.30656181  0.58339212  0.68886579  1
  O  O367  1  0.30905444  0.58401701  0.93796919  1
  O  O368  1  0.30798738  0.91577821  0.18673777  1
  O  O369  1  0.30549334  0.91615375  0.43849220  1
  O  O370  1  0.30661302  0.91588912  0.68884209  1
  O  O371  1  0.30996379  0.91558645  0.93753504  1
  O  O372  1  0.80723632  0.25030731  0.18885384  1
  O  O373  1  0.80963965  0.25062716  0.43729975  1
  O  O374  1  0.80990287  0.25018360  0.68698419  1
  O  O375  1  0.80635785  0.25049385  0.93787076  1
  O  O376  1  0.80562034  0.58363711  0.18815639  1
  O  O377  1  0.80779824  0.58352440  0.43847927  1
  O  O378  1  0.80921964  0.58325260  0.68818020  1
  O  O379  1  0.80840000  0.58381653  0.93654075  1
  O  O380  1  0.80554504  0.91589004  0.18793986  1
  O  O381  1  0.80741716  0.91600400  0.43861728  1
  O  O382  1  0.80924736  0.91679167  0.68751204  1
  O  O383  1  0.80660848  0.91551256  0.93798929  1
  O  O384  1  0.23081283  0.25073220  0.03926954  1
  O  O385  1  0.23193792  0.24982785  0.29002071  1
  O  O386  1  0.23095337  0.25078726  0.53955032  1
  O  O387  1  0.23144647  0.25073713  0.78847051  1
  O  O388  1  0.23343071  0.58293127  0.03771536  1
  O  O389  1  0.23318023  0.58355716  0.28694162  1
  O  O390  1  0.23092187  0.58270355  0.53915568  1
  O  O391  1  0.23286108  0.58289909  0.79010321  1
  O  O392  1  0.23552736  0.91644654  0.03791662  1
  O  O393  1  0.23318739  0.91620535  0.28760687  1
  O  O394  1  0.23279475  0.91656454  0.54067208  1
  O  O395  1  0.23384751  0.91630029  0.79052691  1
  O  O396  1  0.73248230  0.25101723  0.03952686  1
  O  O397  1  0.73505764  0.25045283  0.29093333  1
  O  O398  1  0.73516036  0.25066357  0.53814180  1
  O  O399  1  0.73550537  0.25028086  0.78757843  1
  O  O400  1  0.73323499  0.58314248  0.03700182  1
  O  O401  1  0.73227764  0.58353889  0.29000819  1
  O  O402  1  0.73554798  0.58307165  0.54061363  1
  O  O403  1  0.73354186  0.58329265  0.78783857  1
  O  O404  1  0.73335451  0.91608400  0.03942187  1
  O  O405  1  0.73163236  0.91580726  0.28944161  1
  O  O406  1  0.73552804  0.91704532  0.54121199  1
  O  O407  1  0.73488157  0.91649910  0.78842203  1
  O  O408  1  0.26775280  0.08373123  0.21033736  1
  O  O409  1  0.26591849  0.08361909  0.46276897  1
  O  O410  1  0.26383726  0.08381831  0.71134491  1
  O  O411  1  0.26544782  0.08383194  0.95813189  1
  O  O412  1  0.26620204  0.41687594  0.21243481  1
  O  O413  1  0.26467847  0.41683833  0.45877744  1
  O  O414  1  0.26596198  0.41740490  0.71215125  1
  O  O415  1  0.26503214  0.41686763  0.95910232  1
  O  O416  1  0.26618959  0.74962785  0.21121986  1
  O  O417  1  0.26493626  0.74965750  0.45878443  1
  O  O418  1  0.26502695  0.74868751  0.71218806  1
  O  O419  1  0.26513379  0.74925889  0.96119208  1
  O  O420  1  0.76636692  0.08345469  0.20931670  1
  O  O421  1  0.76917137  0.08359651  0.46089928  1
  O  O422  1  0.76870325  0.08391281  0.71040674  1
  O  O423  1  0.76647671  0.08363647  0.95977206  1
  O  O424  1  0.76733492  0.41697118  0.21209745  1
  O  O425  1  0.76718013  0.41670164  0.46267495  1
  O  O426  1  0.76611946  0.41671099  0.70961538  1
  O  O427  1  0.76770145  0.41728822  0.95978437  1
  O  O428  1  0.76519099  0.74921456  0.20811527  1
  O  O429  1  0.76803051  0.74970112  0.46294493  1
  O  O430  1  0.76453283  0.74969797  0.71242389  1
  O  O431  1  0.76551356  0.74923122  0.96178120  1
  O  O432  1  0.01721562  0.08388086  0.16530966  1
  O  O433  1  0.01594289  0.08335443  0.41535911  1
  O  O434  1  0.01600896  0.08376688  0.66330476  1
  O  O435  1  0.01817493  0.08365599  0.91249267  1
  O  O436  1  0.01494644  0.41727567  0.16314240  1
  O  O437  1  0.01640353  0.41699009  0.41292248  1
  O  O438  1  0.01546593  0.41676822  0.66349404  1
  O  O439  1  0.01772663  0.41773414  0.91497481  1
  O  O440  1  0.01772633  0.74958281  0.16202636  1
  O  O441  1  0.01778271  0.74982793  0.41418077  1
  O  O442  1  0.01496130  0.74957501  0.66383644  1
  O  O443  1  0.01723021  0.74903333  0.91500649  1
  O  O444  1  0.51508870  0.08346300  0.16623983  1
  O  O445  1  0.51449493  0.08333270  0.41314743  1
  O  O446  1  0.51549149  0.08368013  0.66231249  1
  O  O447  1  0.51594404  0.08258365  0.91532618  1
  O  O448  1  0.51531644  0.41678282  0.16542918  1
  O  O449  1  0.51739572  0.41706804  0.41178891  1
  O  O450  1  0.51757826  0.41663879  0.66464830  1
  O  O451  1  0.51507501  0.41778936  0.91296253  1
  O  O452  1  0.51671706  0.74924778  0.16523538  1
  O  O453  1  0.51581041  0.74922258  0.41235432  1
  O  O454  1  0.51823661  0.74926225  0.66395737  1
  O  O455  1  0.51762347  0.74964933  0.91538624  1
  O  O456  1  0.48351860  0.25051375  0.08462798  1
  O  O457  1  0.48490626  0.25051921  0.33769695  1
  O  O458  1  0.48474721  0.25075148  0.58338533  1
  O  O459  1  0.48434914  0.25009969  0.83681353  1
  O  O460  1  0.48355342  0.58362312  0.08726520  1
  O  O461  1  0.48486013  0.58279845  0.33498913  1
  O  O462  1  0.48520320  0.58277758  0.58579161  1
  O  O463  1  0.48419807  0.58336757  0.83701022  1
  O  O464  1  0.48229050  0.91573628  0.08843802  1
  O  O465  1  0.48411524  0.91660357  0.33537735  1
  O  O466  1  0.48395790  0.91593925  0.58367577  1
  O  O467  1  0.48192382  0.91554722  0.83470661  1
  O  O468  1  0.98554492  0.25015277  0.08652247  1
  O  O469  1  0.98356961  0.25082920  0.33689950  1
  O  O470  1  0.98350284  0.24999528  0.58711054  1
  O  O471  1  0.98552974  0.25065662  0.83591126  1
  O  O472  1  0.98563219  0.58342543  0.08709936  1
  O  O473  1  0.98547861  0.58352373  0.33508299  1
  O  O474  1  0.98337228  0.58342918  0.58705517  1
  O  O475  1  0.98339552  0.58333284  0.83691366  1
  O  O476  1  0.98543969  0.91612652  0.08660234  1
  O  O477  1  0.98447532  0.91630244  0.33338582  1
  O  O478  1  0.98133839  0.91695305  0.58564302  1
  O  O479  1  0.98380678  0.91576630  0.83460719  1
  O  O480  1  0.08897130  0.31548618  0.07768221  1
  O  O481  1  0.08722470  0.31624253  0.32770089  1
  O  O482  1  0.08744251  0.31426874  0.57684363  1
  O  O483  1  0.08876562  0.31652418  0.82778979  1
  O  O484  1  0.08918920  0.64911094  0.07760378  1
  O  O485  1  0.08947970  0.64830517  0.32784549  1
  O  O486  1  0.08730838  0.64802254  0.57733965  1
  O  O487  1  0.08724887  0.64836869  0.82784231  1
  O  O488  1  0.08899751  0.98091087  0.07765799  1
  O  O489  1  0.08880605  0.98068498  0.32656864  1
  O  O490  1  0.08472167  0.98278655  0.57734802  1
  O  O491  1  0.08747682  0.98074635  0.82757352  1
  O  O492  1  0.58754184  0.31546592  0.07679226  1
  O  O493  1  0.58839428  0.31598839  0.32814075  1
  O  O494  1  0.58869513  0.31633006  0.57717061  1
  O  O495  1  0.58794875  0.31513660  0.82754911  1
  O  O496  1  0.58746522  0.64886308  0.07800833  1
  O  O497  1  0.58909104  0.64707033  0.32679564  1
  O  O498  1  0.58888297  0.64795877  0.57835620  1
  O  O499  1  0.58774279  0.64928224  0.82826642  1
  O  O500  1  0.58576074  0.98061401  0.07776629  1
  O  O501  1  0.58794825  0.98183288  0.32670611  1
  O  O502  1  0.58768547  0.98099383  0.57675799  1
  O  O503  1  0.58562322  0.98075737  0.82676806  1
  O  O504  1  0.41127145  0.01786910  0.17298200  1
  O  O505  1  0.41051870  0.01856118  0.42279957  1
  O  O506  1  0.41158932  0.01901494  0.67143488  1
  O  O507  1  0.41227811  0.01723923  0.92151533  1
  O  O508  1  0.41082778  0.35286160  0.17340283  1
  O  O509  1  0.41382929  0.35205190  0.42317970  1
  O  O510  1  0.41348954  0.35156048  0.67315999  1
  O  O511  1  0.41156703  0.35275659  0.92221818  1
  O  O512  1  0.41273272  0.68398968  0.17336729  1
  O  O513  1  0.41235098  0.68424461  0.42239433  1
  O  O514  1  0.41454350  0.68406557  0.67275227  1
  O  O515  1  0.41412141  0.68398874  0.92278706  1
  O  O516  1  0.91371311  0.01825199  0.17248696  1
  O  O517  1  0.91139373  0.01954613  0.42250313  1
  O  O518  1  0.91217475  0.01879640  0.67256932  1
  O  O519  1  0.91458870  0.01847921  0.92239104  1
  O  O520  1  0.91139229  0.35209629  0.17274735  1
  O  O521  1  0.91277000  0.35144936  0.42230755  1
  O  O522  1  0.91201194  0.35161849  0.67150770  1
  O  O523  1  0.91372475  0.35299520  0.92371727  1
  O  O524  1  0.91428563  0.68463050  0.17286645  1
  O  O525  1  0.91377022  0.68486876  0.42276046  1
  O  O526  1  0.91149704  0.68454813  0.67193230  1
  O  O527  1  0.91340811  0.68335952  0.92370527  1
  O  O528  1  0.16446385  0.01795436  0.20244715  1
  O  O529  1  0.16237646  0.01901414  0.45277411  1
  O  O530  1  0.16000977  0.01909000  0.70172184  1
  O  O531  1  0.16150988  0.01908145  0.95125979  1
  O  O532  1  0.16258694  0.35154572  0.20353656  1
  O  O533  1  0.16056494  0.35183463  0.45249324  1
  O  O534  1  0.16207932  0.35264479  0.70315585  1
  O  O535  1  0.16080657  0.35244657  0.95252658  1
  O  O536  1  0.16217257  0.68496677  0.20216522  1
  O  O537  1  0.16136722  0.68366329  0.45221350  1
  O  O538  1  0.16141032  0.68331116  0.70420098  1
  O  O539  1  0.16151036  0.68354833  0.95292336  1
  O  O540  1  0.66293205  0.01728507  0.20265391  1
  O  O541  1  0.66476787  0.01969250  0.45247885  1
  O  O542  1  0.66518158  0.01815920  0.70135407  1
  O  O543  1  0.66257241  0.01911057  0.95216507  1
  O  O544  1  0.66343793  0.35274291  0.20284586  1
  O  O545  1  0.66375277  0.35062779  0.45251507  1
  O  O546  1  0.66180352  0.35285863  0.70147917  1
  O  O547  1  0.66399696  0.35165008  0.95238644  1
  O  O548  1  0.66110244  0.68436377  0.20237185  1
  O  O549  1  0.66424439  0.68496760  0.45316236  1
  O  O550  1  0.66129241  0.68364644  0.70318591  1
  O  O551  1  0.66168050  0.68401718  0.95256394  1
  O  O552  1  0.33479510  0.31520656  0.04770127  1
  O  O553  1  0.33551400  0.31553179  0.29807673  1
  O  O554  1  0.33511798  0.31498662  0.54778981  1
  O  O555  1  0.33512337  0.31628616  0.79739123  1
  O  O556  1  0.33708616  0.64824884  0.04846499  1
  O  O557  1  0.33663147  0.64863701  0.29677413  1
  O  O558  1  0.33457163  0.64815102  0.54795293  1
  O  O559  1  0.33708265  0.64732487  0.79887636  1
  O  O560  1  0.33934111  0.98119991  0.04722759  1
  O  O561  1  0.33672827  0.98124783  0.29648226  1
  O  O562  1  0.33650026  0.98209941  0.54726535  1
  O  O563  1  0.33789984  0.98121510  0.79780588  1
  O  O564  1  0.83633763  0.31637637  0.04684753  1
  O  O565  1  0.83870620  0.31636773  0.29781644  1
  O  O566  1  0.83897041  0.31563715  0.54724833  1
  O  O567  1  0.83931808  0.31440103  0.79702220  1
  O  O568  1  0.83649528  0.64880930  0.04696344  1
  O  O569  1  0.83634614  0.64804281  0.29742116  1
  O  O570  1  0.83932828  0.64821289  0.54799806  1
  O  O571  1  0.83732504  0.64820558  0.79851243  1
  O  O572  1  0.83767238  0.98014705  0.04705831  1
  O  O573  1  0.83563371  0.98089405  0.29718445  1
  O  O574  1  0.83977014  0.98150850  0.54727348  1
  O  O575  1  0.83812509  0.98282133  0.79698230  1
  O  O576  1  0.41099300  0.14806566  0.17364113  1
  O  O577  1  0.41076627  0.14856821  0.42325389  1
  O  O578  1  0.41218656  0.14920379  0.67203683  1
  O  O579  1  0.41225660  0.14762074  0.92266876  1
  O  O580  1  0.41175787  0.48299070  0.17273139  1
  O  O581  1  0.41389894  0.48204144  0.42296386  1
  O  O582  1  0.41334821  0.48152993  0.67324109  1
  O  O583  1  0.41156578  0.48303931  0.92128157  1
  O  O584  1  0.41237543  0.81397299  0.17341627  1
  O  O585  1  0.41235163  0.81443804  0.42216539  1
  O  O586  1  0.41424886  0.81406394  0.67247646  1
  O  O587  1  0.41344417  0.81412798  0.92225041  1
  O  O588  1  0.91327055  0.14844839  0.17230830  1
  O  O589  1  0.91270879  0.14971345  0.42260713  1
  O  O590  1  0.91256948  0.14904778  0.67268003  1
  O  O591  1  0.91466449  0.14861885  0.92273314  1
  O  O592  1  0.91118229  0.48207587  0.17296260  1
  O  O593  1  0.91235812  0.48138713  0.42250729  1
  O  O594  1  0.91193699  0.48192187  0.67160263  1
  O  O595  1  0.91358870  0.48293929  0.92322786  1
  O  O596  1  0.91422717  0.81464958  0.17258654  1
  O  O597  1  0.91362687  0.81483574  0.42231054  1
  O  O598  1  0.91148463  0.81481258  0.67181768  1
  O  O599  1  0.91288192  0.81326920  0.92394531  1
  O  O600  1  0.08950519  0.18550737  0.07763408  1
  O  O601  1  0.08749682  0.18618094  0.32725752  1
  O  O602  1  0.08691695  0.18422580  0.57762842  1
  O  O603  1  0.08956615  0.18622846  0.82774187  1
  O  O604  1  0.08946809  0.51916805  0.07719888  1
  O  O605  1  0.08911570  0.51815014  0.32756575  1
  O  O606  1  0.08691884  0.51816437  0.57702533  1
  O  O607  1  0.08716414  0.51833523  0.82740725  1
  O  O608  1  0.08897292  0.85077168  0.07810839  1
  O  O609  1  0.08828213  0.85057756  0.32724662  1
  O  O610  1  0.08535557  0.85268666  0.57721829  1
  O  O611  1  0.08721495  0.85026008  0.82790966  1
  O  O612  1  0.58760127  0.18546327  0.07700568  1
  O  O613  1  0.58832500  0.18566679  0.32785021  1
  O  O614  1  0.58912631  0.18621342  0.57609415  1
  O  O615  1  0.58788994  0.18496437  0.82753088  1
  O  O616  1  0.58735345  0.51883789  0.07687480  1
  O  O617  1  0.58861514  0.51705394  0.32676256  1
  O  O618  1  0.58878116  0.51765377  0.57842619  1
  O  O619  1  0.58842822  0.51935618  0.82705328  1
  O  O620  1  0.58580905  0.85044704  0.07855229  1
  O  O621  1  0.58816545  0.85175995  0.32702160  1
  O  O622  1  0.58776343  0.85055076  0.57760498  1
  O  O623  1  0.58609652  0.85070921  0.82808662  1
  O  O624  1  0.33442524  0.18523586  0.04768363  1
  O  O625  1  0.33605853  0.18534090  0.29754132  1
  O  O626  1  0.33450928  0.18480321  0.54795831  1
  O  O627  1  0.33526192  0.18616003  0.79761424  1
  O  O628  1  0.33744335  0.51837780  0.04784033  1
  O  O629  1  0.33663861  0.51840036  0.29688858  1
  O  O630  1  0.33501710  0.51812249  0.54761291  1
  O  O631  1  0.33686928  0.51742812  0.79797367  1
  O  O632  1  0.33902073  0.85113501  0.04784193  1
  O  O633  1  0.33658169  0.85086185  0.29676753  1
  O  O634  1  0.33655425  0.85171790  0.54771546  1
  O  O635  1  0.33774440  0.85110289  0.79822625  1
  O  O636  1  0.83638629  0.18617259  0.04745947  1
  O  O637  1  0.83953862  0.18638999  0.29812343  1
  O  O638  1  0.83892096  0.18551721  0.54721014  1
  O  O639  1  0.83878718  0.18424853  0.79677569  1
  O  O640  1  0.83721226  0.51866699  0.04636468  1
  O  O641  1  0.83614187  0.51807582  0.29735696  1
  O  O642  1  0.83942837  0.51810356  0.54750701  1
  O  O643  1  0.83747217  0.51836992  0.79830859  1
  O  O644  1  0.83663413  0.84972936  0.04720863  1
  O  O645  1  0.83553716  0.85086351  0.29726347  1
  O  O646  1  0.83907272  0.85127057  0.54798007  1
  O  O647  1  0.83867436  0.85245011  0.79741727  1
  O  O648  1  0.16352761  0.14816720  0.20343339  1
  O  O649  1  0.16248981  0.14918404  0.45336477  1
  O  O650  1  0.16008836  0.14924487  0.70286366  1
  O  O651  1  0.16144461  0.14919588  0.95239794  1
  O  O652  1  0.16259030  0.48169289  0.20302506  1
  O  O653  1  0.16066855  0.48184925  0.45222011  1
  O  O654  1  0.16236816  0.48277562  0.70322741  1
  O  O655  1  0.16144017  0.48242107  0.95219706  1
  O  O656  1  0.16257774  0.81506859  0.20191685  1
  O  O657  1  0.16063578  0.81376031  0.45173730  1
  O  O658  1  0.16146740  0.81350739  0.70303870  1
  O  O659  1  0.16108747  0.81349943  0.95209793  1
  O  O660  1  0.66225226  0.14756768  0.20272065  1
  O  O661  1  0.66567687  0.14975388  0.45236817  1
  O  O662  1  0.66461553  0.14826695  0.70172017  1
  O  O663  1  0.66305767  0.14960920  0.95266534  1
  O  O664  1  0.66403064  0.48279543  0.20293529  1
  O  O665  1  0.66295834  0.48054680  0.45227639  1
  O  O666  1  0.66265869  0.48290682  0.70194735  1
  O  O667  1  0.66351215  0.48175626  0.95248311  1
  O  O668  1  0.66113784  0.81447282  0.20213050  1
  O  O669  1  0.66438426  0.81492024  0.45320885  1
  O  O670  1  0.66054156  0.81381349  0.70240469  1
  O  O671  1  0.66165488  0.81411115  0.95191372  1
