# generated using pymatgen
data_Na2MnFe(PO4)2
_symmetry_space_group_name_H-M   'P 1'
_cell_length_a   21.09340620
_cell_length_b   18.94741288
_cell_length_c   20.05138845
_cell_angle_alpha   89.99968564
_cell_angle_beta   89.99964381
_cell_angle_gamma   89.99809601
_symmetry_Int_Tables_number   1
_chemical_formula_structural   Na2MnFe(PO4)2
_chemical_formula_sum   'Na96 Mn48 Fe48 P96 O384'
_cell_volume   8013.84771061
_cell_formula_units_Z   48
loop_
 _symmetry_equiv_pos_site_id
 _symmetry_equiv_pos_as_xyz
  1  'x, y, z'
loop_
 _atom_site_type_symbol
 _atom_site_label
 _atom_site_symmetry_multiplicity
 _atom_site_fract_x
 _atom_site_fract_y
 _atom_site_fract_z
 _atom_site_occupancy
  Na  Na0  1  0.00033177  -0.00044159  -0.00007407  1
  Na  Na1  1  -0.00045592  -0.00041255  0.25077071  1
  Na  Na2  1  -0.00072313  -0.00069644  0.50042073  1
  Na  Na3  1  0.00084401  -0.00001911  0.74983123  1
  Na  Na4  1  -0.00272629  0.33291440  0.00090177  1
  Na  Na5  1  -0.00211617  0.33249333  0.25083239  1
  Na  Na6  1  0.00245001  0.33471907  0.49890644  1
  Na  Na7  1  0.00078729  0.33415348  0.75005360  1
  Na  Na8  1  0.00037809  0.66671546  0.00039789  1
  Na  Na9  1  0.00258871  0.66739462  0.24931343  1
  Na  Na10  1  0.00339993  0.66715747  0.50005792  1
  Na  Na11  1  0.00161043  0.66704131  0.74997917  1
  Na  Na12  1  0.50117546  0.00023977  -0.00007880  1
  Na  Na13  1  0.49808138  -0.00037209  0.24954653  1
  Na  Na14  1  0.49704695  -0.00099785  0.49936407  1
  Na  Na15  1  0.50138750  0.00057711  0.75032858  1
  Na  Na16  1  0.49968438  0.33410329  0.00040924  1
  Na  Na17  1  0.49732455  0.33297178  0.25063149  1
  Na  Na18  1  0.50036363  0.33377513  0.49969922  1
  Na  Na19  1  0.50058041  0.33396589  0.74886589  1
  Na  Na20  1  0.49607240  0.66591003  -0.00069632  1
  Na  Na21  1  0.49931870  0.66711456  0.25057009  1
  Na  Na22  1  0.50069826  0.66728236  0.49998161  1
  Na  Na23  1  0.49817883  0.66626284  0.75002704  1
  Na  Na24  1  0.25119660  0.00056873  0.12599683  1
  Na  Na25  1  0.25144144  0.00065428  0.37599036  1
  Na  Na26  1  0.24894695  -0.00027489  0.62501777  1
  Na  Na27  1  0.24860648  -0.00056776  0.87342747  1
  Na  Na28  1  0.25265136  0.33404827  0.12511911  1
  Na  Na29  1  0.25202530  0.33437498  0.37605450  1
  Na  Na30  1  0.24856010  0.33290616  0.62438074  1
  Na  Na31  1  0.25068189  0.33402328  0.87453197  1
  Na  Na32  1  0.25245050  0.66786357  0.12437304  1
  Na  Na33  1  0.24751404  0.66592408  0.37591625  1
  Na  Na34  1  0.24867165  0.66654656  0.62539957  1
  Na  Na35  1  0.25015008  0.66653322  0.87458485  1
  Na  Na36  1  0.75044555  -0.00097153  0.12473152  1
  Na  Na37  1  0.75224060  0.00029889  0.37558527  1
  Na  Na38  1  0.75119464  -0.00035920  0.62507967  1
  Na  Na39  1  0.74989680  -0.00103399  0.87368890  1
  Na  Na40  1  0.75169618  0.33421868  0.12574036  1
  Na  Na41  1  0.74862870  0.33303598  0.37453919  1
  Na  Na42  1  0.74812803  0.33313370  0.62583027  1
  Na  Na43  1  0.75038185  0.33410693  0.87476901  1
  Na  Na44  1  0.75088049  0.66759008  0.12582144  1
  Na  Na45  1  0.74768102  0.66582505  0.37504033  1
  Na  Na46  1  0.74986737  0.66621733  0.62461246  1
  Na  Na47  1  0.75068495  0.66687795  0.87444498  1
  Na  Na48  1  -0.00001667  0.16650964  0.00018294  1
  Na  Na49  1  -0.00006212  0.16692955  0.25073393  1
  Na  Na50  1  0.00256670  0.16579970  0.49990656  1
  Na  Na51  1  0.00191977  0.16587008  0.74891165  1
  Na  Na52  1  -0.00058695  0.50033145  0.00135898  1
  Na  Na53  1  0.00001990  0.50022013  0.25010268  1
  Na  Na54  1  0.00072817  0.50087886  0.49929771  1
  Na  Na55  1  0.00191676  0.49997891  0.75016596  1
  Na  Na56  1  -0.00075008  0.83343968  -0.00027786  1
  Na  Na57  1  -0.00094216  0.83447417  0.24976844  1
  Na  Na58  1  0.00137146  0.83276501  0.50014855  1
  Na  Na59  1  -0.00121893  0.83368278  0.75075482  1
  Na  Na60  1  0.49942815  0.16619504  0.00065242  1
  Na  Na61  1  0.49779160  0.16679432  0.25052505  1
  Na  Na62  1  0.49940712  0.16578689  0.49928382  1
  Na  Na63  1  0.50129010  0.16541522  0.74931848  1
  Na  Na64  1  0.49784255  0.50092876  0.00003917  1
  Na  Na65  1  0.49867808  0.50029910  0.25093893  1
  Na  Na66  1  0.49926509  0.50060640  0.50017574  1
  Na  Na67  1  0.50071723  0.49995054  0.74873320  1
  Na  Na68  1  0.49985857  0.83241682  -0.00085189  1
  Na  Na69  1  0.49767553  0.83380080  0.24898213  1
  Na  Na70  1  0.49974865  0.83284093  0.49991533  1
  Na  Na71  1  0.49730611  0.83458327  0.75095822  1
  Na  Na72  1  0.25232792  0.16529276  0.12584298  1
  Na  Na73  1  0.25040696  0.16602451  0.37597186  1
  Na  Na74  1  0.24795361  0.16664996  0.62455810  1
  Na  Na75  1  0.24878261  0.16637571  0.87431134  1
  Na  Na76  1  0.25255143  0.50009651  0.12394283  1
  Na  Na77  1  0.25071143  0.50023336  0.37554136  1
  Na  Na78  1  0.24967729  0.50057816  0.62533150  1
  Na  Na79  1  0.25076071  0.50054584  0.87437133  1
  Na  Na80  1  0.25044455  0.83306263  0.12586414  1
  Na  Na81  1  0.25005183  0.83299932  0.37641622  1
  Na  Na82  1  0.24963675  0.83311990  0.62496595  1
  Na  Na83  1  0.25004841  0.83290464  0.87361101  1
  Na  Na84  1  0.75071517  0.16628346  0.12500540  1
  Na  Na85  1  0.75009411  0.16645795  0.37481993  1
  Na  Na86  1  0.74836220  0.16606345  0.62533288  1
  Na  Na87  1  0.74814588  0.16681881  0.87465003  1
  Na  Na88  1  0.75161151  0.49897636  0.12560577  1
  Na  Na89  1  0.74835753  0.50019942  0.37537504  1
  Na  Na90  1  0.74936080  0.50024301  0.62547424  1
  Na  Na91  1  0.74952029  0.50074761  0.87413315  1
  Na  Na92  1  0.75131771  0.83337981  0.12564395  1
  Na  Na93  1  0.75041731  0.83351077  0.37488358  1
  Na  Na94  1  0.75309619  0.83263431  0.62419244  1
  Na  Na95  1  0.75282442  0.83312994  0.87434279  1
  Mn  Mn96  1  0.10875479  0.41671828  0.37183139  1
  Mn  Mn97  1  0.64184260  0.58405065  0.99786362  1
  Mn  Mn98  1  0.89249728  0.58358919  0.87714155  1
  Mn  Mn99  1  0.89273048  0.25050070  0.62652170  1
  Mn  Mn100  1  0.64241690  0.91653350  0.49759548  1
  Mn  Mn101  1  0.35741212  0.08320904  0.75195259  1
  Mn  Mn102  1  0.64208818  0.91681926  0.24823932  1
  Mn  Mn103  1  0.89313141  0.58418977  0.37740134  1
  Mn  Mn104  1  0.64142150  0.25008829  0.74771254  1
  Mn  Mn105  1  0.64303582  0.91536152  0.74746607  1
  Mn  Mn106  1  0.10801168  0.41612552  0.12322142  1
  Mn  Mn107  1  0.60738260  0.08305058  0.12277157  1
  Mn  Mn108  1  0.35752298  0.41700683  0.75213588  1
  Mn  Mn109  1  0.64222857  0.24978182  0.99777895  1
  Mn  Mn110  1  0.39145766  0.25036492  0.12737606  1
  Mn  Mn111  1  0.14360603  0.58355957  0.99783586  1
  Mn  Mn112  1  0.89235655  0.58329233  0.12763143  1
  Mn  Mn113  1  0.60759414  0.75101652  0.62350507  1
  Mn  Mn114  1  0.39196496  0.91685487  0.87794762  1
  Mn  Mn115  1  0.10839807  0.08354469  0.12305979  1
  Mn  Mn116  1  0.39203266  0.58368286  0.37793344  1
  Mn  Mn117  1  0.14175568  0.91593379  0.74739023  1
  Mn  Mn118  1  0.85850669  0.08365328  0.25247862  1
  Mn  Mn119  1  0.39146894  0.91610223  0.12641947  1
  Mn  Mn120  1  0.10840845  0.75056689  0.12258679  1
  Mn  Mn121  1  0.85806586  0.41705716  0.75178638  1
  Mn  Mn122  1  0.64181497  0.24974464  0.24799187  1
  Mn  Mn123  1  0.10812421  0.41680723  0.87381019  1
  Mn  Mn124  1  0.60723150  0.41656660  0.62194117  1
  Mn  Mn125  1  0.60778533  0.74961487  0.87252912  1
  Mn  Mn126  1  0.89212867  0.24950401  0.87723107  1
  Mn  Mn127  1  0.35695825  0.74990359  0.50281480  1
  Mn  Mn128  1  0.14343742  0.25089437  0.24765020  1
  Mn  Mn129  1  0.60682247  0.08270810  0.37290499  1
  Mn  Mn130  1  0.60697276  0.74984436  0.12237112  1
  Mn  Mn131  1  0.85792725  0.08344419  0.00195728  1
  Mn  Mn132  1  0.85805082  0.08324253  0.75198474  1
  Mn  Mn133  1  0.14284244  0.91637868  0.24820266  1
  Mn  Mn134  1  0.14136820  0.25094298  0.74754831  1
  Mn  Mn135  1  0.39224443  0.25018777  0.87720768  1
  Mn  Mn136  1  0.85711597  0.41624349  0.50225226  1
  Mn  Mn137  1  0.89247618  0.24947538  0.37859793  1
  Mn  Mn138  1  0.64156673  0.58318118  0.24745363  1
  Mn  Mn139  1  0.39209399  0.24951553  0.62701336  1
  Mn  Mn140  1  0.60711557  0.41717283  0.12284207  1
  Mn  Mn141  1  0.14225212  0.24984860  0.99825466  1
  Mn  Mn142  1  0.85820962  0.74905771  0.25297573  1
  Mn  Mn143  1  0.85828539  0.74937725  0.50184180  1
  Fe  Fe144  1  0.35613834  0.08342628  0.50236265  1
  Fe  Fe145  1  0.85786699  0.74957023  0.00143028  1
  Fe  Fe146  1  0.39258868  0.58290067  0.87581451  1
  Fe  Fe147  1  0.39186870  0.58351820  0.12734252  1
  Fe  Fe148  1  0.64215424  0.58302604  0.49877194  1
  Fe  Fe149  1  0.35663646  0.75079010  0.00123278  1
  Fe  Fe150  1  0.39202603  0.91634067  0.62639496  1
  Fe  Fe151  1  0.89289415  0.91718420  0.12639041  1
  Fe  Fe152  1  0.89386346  0.91614395  0.62602668  1
  Fe  Fe153  1  0.39223124  0.58430171  0.62683202  1
  Fe  Fe154  1  0.35758355  0.41697341  0.25262879  1
  Fe  Fe155  1  0.14248385  0.91688120  0.49817719  1
  Fe  Fe156  1  0.14281123  0.58337350  0.74826881  1
  Fe  Fe157  1  0.10783936  0.75081172  0.37290706  1
  Fe  Fe158  1  0.89358636  0.91656229  0.37684621  1
  Fe  Fe159  1  0.14403346  0.58297337  0.24828992  1
  Fe  Fe160  1  0.10771213  0.41714269  0.62280485  1
  Fe  Fe161  1  0.10737602  0.08276741  0.37373791  1
  Fe  Fe162  1  0.39194551  0.91653694  0.37719152  1
  Fe  Fe163  1  0.35750711  0.08310560  0.25269676  1
  Fe  Fe164  1  0.89333680  0.58363413  0.62636131  1
  Fe  Fe165  1  0.64362814  0.91614551  0.99812600  1
  Fe  Fe166  1  0.35698174  0.74998773  0.25263326  1
  Fe  Fe167  1  0.85725711  0.41728342  0.00164507  1
  Fe  Fe168  1  0.64210696  0.24978439  0.49793325  1
  Fe  Fe169  1  0.10721787  0.75003392  0.62371055  1
  Fe  Fe170  1  0.89212860  0.24948878  0.12687324  1
  Fe  Fe171  1  0.60704162  0.08257045  0.62237099  1
  Fe  Fe172  1  0.39229850  0.24968383  0.37771657  1
  Fe  Fe173  1  0.89367442  0.91679701  0.87709884  1
  Fe  Fe174  1  0.60604668  0.41661003  0.37331525  1
  Fe  Fe175  1  0.10780731  0.08299570  0.87406124  1
  Fe  Fe176  1  0.14237871  0.91675439  0.99856816  1
  Fe  Fe177  1  0.10716432  0.08327199  0.62247013  1
  Fe  Fe178  1  0.14275554  0.58303324  0.49872662  1
  Fe  Fe179  1  0.35843687  0.41638392  0.00134092  1
  Fe  Fe180  1  0.14313980  0.25004149  0.49803183  1
  Fe  Fe181  1  0.35727334  0.08281480  0.00076446  1
  Fe  Fe182  1  0.60668864  0.75033347  0.37334017  1
  Fe  Fe183  1  0.60742721  0.08349267  0.87361454  1
  Fe  Fe184  1  0.64240098  0.58417336  0.74819977  1
  Fe  Fe185  1  0.85873765  0.74906308  0.75134739  1
  Fe  Fe186  1  0.60747111  0.41679878  0.87422658  1
  Fe  Fe187  1  0.35683857  0.41673355  0.50198619  1
  Fe  Fe188  1  0.35645512  0.74976009  0.75126270  1
  Fe  Fe189  1  0.10747403  0.75023911  0.87354343  1
  Fe  Fe190  1  0.85754274  0.08404318  0.50205891  1
  Fe  Fe191  1  0.85705796  0.41685864  0.25238910  1
  P  P192  1  0.05199867  0.25020768  0.11053354  1
  P  P193  1  0.05533011  0.24898467  0.36109514  1
  P  P194  1  0.05436508  0.25068172  0.60892853  1
  P  P195  1  0.05324785  0.24947261  0.86031844  1
  P  P196  1  0.05528300  0.58308669  0.11118972  1
  P  P197  1  0.05625289  0.58424260  0.36015564  1
  P  P198  1  0.05443801  0.58346930  0.61089376  1
  P  P199  1  0.05463705  0.58437125  0.85997245  1
  P  P200  1  0.05314735  0.91679086  0.10951911  1
  P  P201  1  0.05412628  0.91694860  0.36156096  1
  P  P202  1  0.05328329  0.91618107  0.60975358  1
  P  P203  1  0.05422070  0.91624731  0.86144381  1
  P  P204  1  0.55262634  0.25018905  0.11020259  1
  P  P205  1  0.55273465  0.25036882  0.36132187  1
  P  P206  1  0.55372257  0.24886109  0.60879654  1
  P  P207  1  0.55316045  0.25019213  0.86020706  1
  P  P208  1  0.55103857  0.58364836  0.10982906  1
  P  P209  1  0.55440457  0.58328882  0.36159703  1
  P  P210  1  0.55341581  0.58428224  0.61061993  1
  P  P211  1  0.55267065  0.58284312  0.85940921  1
  P  P212  1  0.55359052  0.91627208  0.10900276  1
  P  P213  1  0.55144371  0.91601475  0.36000407  1
  P  P214  1  0.55189771  0.91695685  0.60997597  1
  P  P215  1  0.55488168  0.91687070  0.86120869  1
  P  P216  1  0.44420345  0.08286147  0.13949877  1
  P  P217  1  0.44376508  0.08304019  0.38964944  1
  P  P218  1  0.44615579  0.08228608  0.63859292  1
  P  P219  1  0.44737555  0.08324557  0.89032116  1
  P  P220  1  0.44441691  0.41774967  0.13995274  1
  P  P221  1  0.44516000  0.41620063  0.39005291  1
  P  P222  1  0.44473003  0.41753763  0.63829920  1
  P  P223  1  0.44746408  0.41757689  0.88973627  1
  P  P224  1  0.44386765  0.74938530  0.13927958  1
  P  P225  1  0.44598749  0.75061681  0.38926335  1
  P  P226  1  0.44544113  0.75025610  0.64048925  1
  P  P227  1  0.44439669  0.74910525  0.88882924  1
  P  P228  1  0.94688856  0.08297865  0.13997701  1
  P  P229  1  0.94736119  0.08263216  0.39102533  1
  P  P230  1  0.94692169  0.08303769  0.63835464  1
  P  P231  1  0.94818480  0.08237078  0.88955478  1
  P  P232  1  0.94466487  0.41599503  0.14009243  1
  P  P233  1  0.94607391  0.41718415  0.38924354  1
  P  P234  1  0.94823008  0.41770638  0.63927456  1
  P  P235  1  0.94636588  0.41721764  0.89087035  1
  P  P236  1  0.94564592  0.75088386  0.13887628  1
  P  P237  1  0.94878032  0.75040648  0.39002251  1
  P  P238  1  0.94770981  0.74958335  0.63993010  1
  P  P239  1  0.94654179  0.75037320  0.88931031  1
  P  P240  1  0.19720234  0.08322760  0.23695355  1
  P  P241  1  0.19528460  0.08279836  0.48603457  1
  P  P242  1  0.19418493  0.08310463  0.73500037  1
  P  P243  1  0.19750348  0.08241775  0.98472777  1
  P  P244  1  0.19892404  0.41764256  0.23494170  1
  P  P245  1  0.19648369  0.41712792  0.48634435  1
  P  P246  1  0.19578916  0.41787474  0.73438938  1
  P  P247  1  0.19893174  0.41667181  0.98530057  1
  P  P248  1  0.19689628  0.74936415  0.23645502  1
  P  P249  1  0.19409843  0.75015584  0.48642991  1
  P  P250  1  0.19551997  0.74920372  0.73565538  1
  P  P251  1  0.19734465  0.75090953  0.98434567  1
  P  P252  1  0.69679112  0.08298631  0.23499590  1
  P  P253  1  0.69653605  0.08340429  0.48591825  1
  P  P254  1  0.69467398  0.08252655  0.73510257  1
  P  P255  1  0.69641622  0.08198318  0.98438280  1
  P  P256  1  0.69596465  0.41642559  0.23619255  1
  P  P257  1  0.69521864  0.41652914  0.48451023  1
  P  P258  1  0.69463265  0.41802292  0.73623321  1
  P  P259  1  0.69738020  0.41709301  0.98481143  1
  P  P260  1  0.69520300  0.75036480  0.23602172  1
  P  P261  1  0.69592845  0.74948034  0.48456568  1
  P  P262  1  0.69858593  0.74941620  0.73476545  1
  P  P263  1  0.69819017  0.75082966  0.98494357  1
  P  P264  1  0.30340707  0.24938498  0.01456689  1
  P  P265  1  0.30443367  0.25016808  0.26630946  1
  P  P266  1  0.30334432  0.24972737  0.51387758  1
  P  P267  1  0.30281758  0.24987456  0.76472954  1
  P  P268  1  0.30605206  0.58371834  0.01354059  1
  P  P269  1  0.30380289  0.58380442  0.26435108  1
  P  P270  1  0.30261933  0.58315957  0.51574672  1
  P  P271  1  0.30387679  0.58441597  0.76391862  1
  P  P272  1  0.30150030  0.91673461  0.01444120  1
  P  P273  1  0.30412881  0.91617544  0.26605455  1
  P  P274  1  0.30340888  0.91721196  0.51459881  1
  P  P275  1  0.30442664  0.91594636  0.76338330  1
  P  P276  1  0.80375324  0.25072149  0.01544673  1
  P  P277  1  0.80477524  0.25057583  0.26451062  1
  P  P278  1  0.80153335  0.24948568  0.51531814  1
  P  P279  1  0.80314192  0.24991829  0.76478729  1
  P  P280  1  0.80335178  0.58368020  0.01499532  1
  P  P281  1  0.80332331  0.58253102  0.26565516  1
  P  P282  1  0.80264481  0.58308308  0.51538543  1
  P  P283  1  0.80405068  0.58409300  0.76337730  1
  P  P284  1  0.80478068  0.91590321  0.01400241  1
  P  P285  1  0.80561011  0.91660804  0.26504030  1
  P  P286  1  0.80598517  0.91722396  0.51421685  1
  P  P287  1  0.80675133  0.91546297  0.76376222  1
  O  O288  1  0.05655337  0.25058722  0.18720570  1
  O  O289  1  0.06022007  0.25018074  0.43781051  1
  O  O290  1  0.05646393  0.25076544  0.68575274  1
  O  O291  1  0.05606559  0.25020072  0.93710990  1
  O  O292  1  0.06013149  0.58289580  0.18788844  1
  O  O293  1  0.06018605  0.58297186  0.43696740  1
  O  O294  1  0.05879281  0.58325927  0.68756072  1
  O  O295  1  0.05771999  0.58369982  0.93676357  1
  O  O296  1  0.05726598  0.91655026  0.18622558  1
  O  O297  1  0.05857275  0.91686516  0.43819183  1
  O  O298  1  0.05619773  0.91619019  0.68649410  1
  O  O299  1  0.05873474  0.91618274  0.93808425  1
  O  O300  1  0.55560274  0.25013984  0.18700235  1
  O  O301  1  0.55795822  0.24959348  0.43792580  1
  O  O302  1  0.55660344  0.24965227  0.68560391  1
  O  O303  1  0.55571856  0.25020579  0.93697988  1
  O  O304  1  0.55527794  0.58370825  0.18652486  1
  O  O305  1  0.55836799  0.58330330  0.43832373  1
  O  O306  1  0.55838102  0.58428059  0.68725575  1
  O  O307  1  0.55610107  0.58394309  0.93613678  1
  O  O308  1  0.55653814  0.91631197  0.18578230  1
  O  O309  1  0.55572994  0.91653498  0.43665137  1
  O  O310  1  0.55610590  0.91638790  0.68661862  1
  O  O311  1  0.55946818  0.91570578  0.93785832  1
  O  O312  1  0.43992971  0.08268326  0.06274682  1
  O  O313  1  0.44020790  0.08322661  0.31279653  1
  O  O314  1  0.44060727  0.08297722  0.56197601  1
  O  O315  1  0.44333056  0.08286521  0.81362615  1
  O  O316  1  0.44069457  0.41675330  0.06314601  1
  O  O317  1  0.44064979  0.41708849  0.31330661  1
  O  O318  1  0.44032020  0.41696200  0.56155947  1
  O  O319  1  0.44394493  0.41685801  0.81301297  1
  O  O320  1  0.43972247  0.75059902  0.06251583  1
  O  O321  1  0.44120942  0.74987515  0.31261882  1
  O  O322  1  0.44283577  0.74991172  0.56366148  1
  O  O323  1  0.44014123  0.75021652  0.81214290  1
  O  O324  1  0.94390561  0.08308506  0.06324579  1
  O  O325  1  0.94380688  0.08368142  0.31434018  1
  O  O326  1  0.94186996  0.08401940  0.56176859  1
  O  O327  1  0.94463984  0.08302177  0.81287385  1
  O  O328  1  0.94042675  0.41712932  0.06331646  1
  O  O329  1  0.94119185  0.41703883  0.31257962  1
  O  O330  1  0.94416431  0.41726731  0.56261879  1
  O  O331  1  0.94351428  0.41755192  0.81405631  1
  O  O332  1  0.94148108  0.74974806  0.06214055  1
  O  O333  1  0.94488296  0.74962332  0.31335797  1
  O  O334  1  0.94433996  0.74909813  0.56327026  1
  O  O335  1  0.94227508  0.74924788  0.81262255  1
  O  O336  1  0.19431892  0.08298655  0.06152075  1
  O  O337  1  0.19191777  0.08299373  0.31351790  1
  O  O338  1  0.19061367  0.08261579  0.56276003  1
  O  O339  1  0.18996795  0.08287522  0.81176249  1
  O  O340  1  0.19480863  0.41666370  0.06193035  1
  O  O341  1  0.19508478  0.41703078  0.31166210  1
  O  O342  1  0.19177188  0.41708444  0.56296634  1
  O  O343  1  0.19303939  0.41717577  0.81115842  1
  O  O344  1  0.19407861  0.75040171  0.06110723  1
  O  O345  1  0.19211144  0.75037856  0.31312192  1
  O  O346  1  0.19029865  0.75046499  0.56322203  1
  O  O347  1  0.19112732  0.75016627  0.81228952  1
  O  O348  1  0.69351331  0.08259763  0.06115950  1
  O  O349  1  0.69309463  0.08285901  0.31177593  1
  O  O350  1  0.69137660  0.08219711  0.56256511  1
  O  O351  1  0.69030405  0.08270825  0.81184032  1
  O  O352  1  0.69346030  0.41708921  0.06152976  1
  O  O353  1  0.69025889  0.41640697  0.31276090  1
  O  O354  1  0.69276953  0.41658816  0.56137573  1
  O  O355  1  0.69049287  0.41742098  0.81293420  1
  O  O356  1  0.69400344  0.75034424  0.06160184  1
  O  O357  1  0.69012796  0.75056775  0.31271765  1
  O  O358  1  0.69306290  0.75058833  0.56132411  1
  O  O359  1  0.69440059  0.75032333  0.81138753  1
  O  O360  1  0.30672023  0.24995384  0.18948604  1
  O  O361  1  0.30808316  0.24984224  0.43726140  1
  O  O362  1  0.30607956  0.24953615  0.68796736  1
  O  O363  1  0.30585513  0.24963549  0.93778407  1
  O  O364  1  0.30771270  0.58397820  0.18766621  1
  O  O365  1  0.30641763  0.58395593  0.43903330  1
  O  O366  1  0.30830595  0.58389528  0.68725819  1
  O  O367  1  0.30931252  0.58317115  0.93673625  1
  O  O368  1  0.30649752  0.91626440  0.18925133  1
  O  O369  1  0.30821281  0.91632053  0.43796914  1
  O  O370  1  0.30840349  0.91679444  0.68666444  1
  O  O371  1  0.30485475  0.91672142  0.93772962  1
  O  O372  1  0.80897618  0.24965436  0.18778071  1
  O  O373  1  0.80566430  0.24980494  0.43862110  1
  O  O374  1  0.80665659  0.24971388  0.68804643  1
  O  O375  1  0.80655661  0.24969688  0.93863141  1
  O  O376  1  0.80682767  0.58354299  0.18891653  1
  O  O377  1  0.80691314  0.58340042  0.43875798  1
  O  O378  1  0.80930782  0.58342636  0.68676537  1
  O  O379  1  0.80619974  0.58375488  0.93823669  1
  O  O380  1  0.80968600  0.91674024  0.18827202  1
  O  O381  1  0.81032404  0.91643418  0.43745956  1
  O  O382  1  0.81118598  0.91642147  0.68697550  1
  O  O383  1  0.80958747  0.91681219  0.93727142  1
  O  O384  1  0.23409341  0.24953323  0.04095504  1
  O  O385  1  0.23486029  0.25037825  0.29188362  1
  O  O386  1  0.23292691  0.24947023  0.53748189  1
  O  O387  1  0.23315042  0.25039411  0.78963756  1
  O  O388  1  0.23614329  0.58413242  0.03835601  1
  O  O389  1  0.23381443  0.58338091  0.28908031  1
  O  O390  1  0.23238992  0.58365754  0.53969727  1
  O  O391  1  0.23359487  0.58375865  0.78776735  1
  O  O392  1  0.23178555  0.91671420  0.04003542  1
  O  O393  1  0.23452904  0.91641547  0.29154573  1
  O  O394  1  0.23292633  0.91668927  0.53796562  1
  O  O395  1  0.23436758  0.91600459  0.78739610  1
  O  O396  1  0.73409409  0.25015100  0.04075723  1
  O  O397  1  0.73476115  0.25001004  0.28868632  1
  O  O398  1  0.73147740  0.24988432  0.53965192  1
  O  O399  1  0.73340834  0.25037337  0.78959124  1
  O  O400  1  0.73383819  0.58364702  0.04079980  1
  O  O401  1  0.73352062  0.58287813  0.29015785  1
  O  O402  1  0.73231218  0.58312891  0.53916605  1
  O  O403  1  0.73376461  0.58410397  0.78715130  1
  O  O404  1  0.73446312  0.91630272  0.03780521  1
  O  O405  1  0.73556522  0.91683250  0.28917364  1
  O  O406  1  0.73583351  0.91623212  0.53812413  1
  O  O407  1  0.73654777  0.91586575  0.78735756  1
  O  O408  1  0.26768657  0.08300731  0.21381859  1
  O  O409  1  0.26579521  0.08307309  0.46278170  1
  O  O410  1  0.26426791  0.08310145  0.71109066  1
  O  O411  1  0.26738118  0.08281387  0.95953384  1
  O  O412  1  0.26898452  0.41720072  0.21069258  1
  O  O413  1  0.26689558  0.41729966  0.46261286  1
  O  O414  1  0.26547562  0.41690391  0.70930536  1
  O  O415  1  0.26897673  0.41706943  0.96074251  1
  O  O416  1  0.26712565  0.75016283  0.21264367  1
  O  O417  1  0.26422651  0.74974514  0.46231658  1
  O  O418  1  0.26577754  0.74970519  0.71171207  1
  O  O419  1  0.26736486  0.74999997  0.95969546  1
  O  O420  1  0.76651744  0.08282223  0.21028847  1
  O  O421  1  0.76694172  0.08333853  0.46239287  1
  O  O422  1  0.76490427  0.08261429  0.71152155  1
  O  O423  1  0.76612760  0.08283108  0.95912090  1
  O  O424  1  0.76639535  0.41666307  0.21312214  1
  O  O425  1  0.76486919  0.41656929  0.45919041  1
  O  O426  1  0.76459900  0.41723214  0.71180841  1
  O  O427  1  0.76749879  0.41722584  0.96047326  1
  O  O428  1  0.76540075  0.75018423  0.21266587  1
  O  O429  1  0.76574978  0.74976179  0.45959579  1
  O  O430  1  0.76859780  0.74951548  0.71024029  1
  O  O431  1  0.76827485  0.75019188  0.96051102  1
  O  O432  1  0.01643877  0.08307658  0.16566819  1
  O  O433  1  0.01749740  0.08265980  0.41527394  1
  O  O434  1  0.01742071  0.08313340  0.66168775  1
  O  O435  1  0.01809932  0.08247231  0.91454753  1
  O  O436  1  0.01477104  0.41652129  0.16425904  1
  O  O437  1  0.01637137  0.41739537  0.41246104  1
  O  O438  1  0.01832045  0.41714676  0.66364806  1
  O  O439  1  0.01601586  0.41701556  0.91617790  1
  O  O440  1  0.01565584  0.75091789  0.16309453  1
  O  O441  1  0.01880492  0.75029502  0.41444660  1
  O  O442  1  0.01786427  0.75006133  0.66451246  1
  O  O443  1  0.01682399  0.75006893  0.91332819  1
  O  O444  1  0.51423418  0.08298136  0.16363451  1
  O  O445  1  0.51383127  0.08263985  0.41377101  1
  O  O446  1  0.51656141  0.08281226  0.66188839  1
  O  O447  1  0.51750834  0.08316297  0.91446834  1
  O  O448  1  0.51427395  0.41691393  0.16458060  1
  O  O449  1  0.51551105  0.41696910  0.41360422  1
  O  O450  1  0.51482230  0.41705984  0.66214576  1
  O  O451  1  0.51740048  0.41748790  0.91469262  1
  O  O452  1  0.51387884  0.75012445  0.16340698  1
  O  O453  1  0.51623307  0.75007441  0.41311834  1
  O  O454  1  0.51502072  0.75056389  0.66601361  1
  O  O455  1  0.51450350  0.74940790  0.91285933  1
  O  O456  1  0.48297524  0.25013057  0.08513494  1
  O  O457  1  0.48228466  0.24974141  0.33802842  1
  O  O458  1  0.48396327  0.24949345  0.58391303  1
  O  O459  1  0.48377561  0.24985700  0.83398990  1
  O  O460  1  0.48100109  0.58370199  0.08570699  1
  O  O461  1  0.48436156  0.58344098  0.33733173  1
  O  O462  1  0.48296536  0.58443123  0.58715609  1
  O  O463  1  0.48257091  0.58318771  0.83486160  1
  O  O464  1  0.48375343  0.91626560  0.08417609  1
  O  O465  1  0.48132296  0.91682456  0.33578894  1
  O  O466  1  0.48179720  0.91606746  0.58560367  1
  O  O467  1  0.48470800  0.91702718  0.83743655  1
  O  O468  1  0.98190085  0.24974432  0.08646778  1
  O  O469  1  0.98514294  0.24936784  0.33770602  1
  O  O470  1  0.98483578  0.25059514  0.58312043  1
  O  O471  1  0.98382477  0.24975634  0.83438963  1
  O  O472  1  0.98514985  0.58342281  0.08755215  1
  O  O473  1  0.98623141  0.58379910  0.33600362  1
  O  O474  1  0.98415068  0.58397923  0.58668045  1
  O  O475  1  0.98492888  0.58375083  0.83499928  1
  O  O476  1  0.98304345  0.91663975  0.08541163  1
  O  O477  1  0.98390817  0.91690330  0.33745270  1
  O  O478  1  0.98321482  0.91590947  0.58508018  1
  O  O479  1  0.98405327  0.91643905  0.83722848  1
  O  O480  1  0.08545340  0.31517956  0.07733138  1
  O  O481  1  0.08866722  0.31390850  0.32740464  1
  O  O482  1  0.08889358  0.31566719  0.57681942  1
  O  O483  1  0.08755288  0.31459658  0.82810831  1
  O  O484  1  0.08873006  0.64816222  0.07813752  1
  O  O485  1  0.08971406  0.64966342  0.32781704  1
  O  O486  1  0.08822336  0.64849158  0.57805452  1
  O  O487  1  0.08848694  0.64964991  0.82770631  1
  O  O488  1  0.08699201  0.98183430  0.07686327  1
  O  O489  1  0.08734413  0.98212704  0.32839538  1
  O  O490  1  0.08711884  0.98114007  0.57691605  1
  O  O491  1  0.08779542  0.98112193  0.82824538  1
  O  O492  1  0.58662572  0.31521595  0.07784122  1
  O  O493  1  0.58543475  0.31580618  0.32817393  1
  O  O494  1  0.58814496  0.31376631  0.57633910  1
  O  O495  1  0.58715729  0.31553501  0.82818600  1
  O  O496  1  0.58470436  0.64858502  0.07675240  1
  O  O497  1  0.58783870  0.64837714  0.32856571  1
  O  O498  1  0.58699624  0.64912889  0.57739996  1
  O  O499  1  0.58679936  0.64768373  0.82626610  1
  O  O500  1  0.58789398  0.98119352  0.07671058  1
  O  O501  1  0.58536051  0.98096497  0.32708684  1
  O  O502  1  0.58526541  0.98201579  0.57685089  1
  O  O503  1  0.58834721  0.98200018  0.82848513  1
  O  O504  1  0.41057384  0.01781110  0.17248702  1
  O  O505  1  0.40978904  0.01810326  0.42242531  1
  O  O506  1  0.41324090  0.01709624  0.67191365  1
  O  O507  1  0.41340247  0.01844440  0.92350778  1
  O  O508  1  0.41011026  0.35311146  0.17309436  1
  O  O509  1  0.41199047  0.35097134  0.42301826  1
  O  O510  1  0.41135426  0.35255956  0.67156710  1
  O  O511  1  0.41338332  0.35273442  0.92275445  1
  O  O512  1  0.41062249  0.68407662  0.17221599  1
  O  O513  1  0.41246413  0.68581372  0.42291772  1
  O  O514  1  0.41116301  0.68513787  0.67269910  1
  O  O515  1  0.41097963  0.68379198  0.92120875  1
  O  O516  1  0.91297504  0.01760236  0.17202299  1
  O  O517  1  0.91337257  0.01755835  0.42319804  1
  O  O518  1  0.91408341  0.01770439  0.67136307  1
  O  O519  1  0.91428680  0.01731253  0.92200957  1
  O  O520  1  0.91125299  0.35066569  0.17264582  1
  O  O521  1  0.91299442  0.35209652  0.42274240  1
  O  O522  1  0.91423844  0.35277807  0.67210557  1
  O  O523  1  0.91175294  0.35232365  0.92288991  1
  O  O524  1  0.91226767  0.68595008  0.17251533  1
  O  O525  1  0.91518731  0.68544936  0.42323160  1
  O  O526  1  0.91405381  0.68457684  0.67304360  1
  O  O527  1  0.91283492  0.68570368  0.92298963  1
  O  O528  1  0.16407554  0.01830457  0.20332808  1
  O  O529  1  0.16233985  0.01759516  0.45258634  1
  O  O530  1  0.16060482  0.01808629  0.70182215  1
  O  O531  1  0.16345754  0.01735406  0.95231073  1
  O  O532  1  0.16515434  0.35255618  0.20215782  1
  O  O533  1  0.16354252  0.35209258  0.45274820  1
  O  O534  1  0.16095591  0.35336277  0.70170314  1
  O  O535  1  0.16525156  0.35157584  0.95264117  1
  O  O536  1  0.16404245  0.68416019  0.20323310  1
  O  O537  1  0.16044430  0.68510617  0.45369179  1
  O  O538  1  0.16215918  0.68404183  0.70277975  1
  O  O539  1  0.16296459  0.68619173  0.95158318  1
  O  O540  1  0.66274465  0.01804936  0.20245294  1
  O  O541  1  0.66338058  0.01842710  0.45213068  1
  O  O542  1  0.66141905  0.01740552  0.70177584  1
  O  O543  1  0.66273887  0.01668780  0.95208730  1
  O  O544  1  0.66308927  0.35137327  0.20255483  1
  O  O545  1  0.66086494  0.35150906  0.45223822  1
  O  O546  1  0.66057896  0.35326350  0.70306357  1
  O  O547  1  0.66349130  0.35208617  0.95203409  1
  O  O548  1  0.66185061  0.68529433  0.20269316  1
  O  O549  1  0.66180100  0.68419300  0.45282313  1
  O  O550  1  0.66438436  0.68444186  0.70251686  1
  O  O551  1  0.66415822  0.68587696  0.95208110  1
  O  O552  1  0.33800520  0.31446041  0.04646395  1
  O  O553  1  0.33887403  0.31529260  0.29827004  1
  O  O554  1  0.33632519  0.31483642  0.54718262  1
  O  O555  1  0.33714439  0.31487164  0.79686626  1
  O  O556  1  0.33971896  0.64895929  0.04611162  1
  O  O557  1  0.33700839  0.64892877  0.29771414  1
  O  O558  1  0.33647545  0.64806963  0.54879683  1
  O  O559  1  0.33708921  0.64951858  0.79699986  1
  O  O560  1  0.33573211  0.98163839  0.04683228  1
  O  O561  1  0.33858939  0.98103683  0.29835022  1
  O  O562  1  0.33659112  0.98234402  0.54774723  1
  O  O563  1  0.33781931  0.98081101  0.79691092  1
  O  O564  1  0.83770006  0.31601154  0.04735334  1
  O  O565  1  0.83811193  0.31579540  0.29734145  1
  O  O566  1  0.83534795  0.31461891  0.54801638  1
  O  O567  1  0.83737835  0.31489626  0.79695523  1
  O  O568  1  0.83767204  0.64877009  0.04720501  1
  O  O569  1  0.83727753  0.64754032  0.29855662  1
  O  O570  1  0.83652902  0.64806256  0.54828755  1
  O  O571  1  0.83747067  0.64918004  0.79653498  1
  O  O572  1  0.83834475  0.98077406  0.04761040  1
  O  O573  1  0.83955821  0.98140886  0.29814328  1
  O  O574  1  0.83907426  0.98254183  0.54717031  1
  O  O575  1  0.84033511  0.98026852  0.79745397  1
  O  O576  1  0.41048366  0.14776406  0.17268620  1
  O  O577  1  0.41032681  0.14814624  0.42282299  1
  O  O578  1  0.41293082  0.14725529  0.67227113  1
  O  O579  1  0.41350338  0.14823725  0.92293557  1
  O  O580  1  0.41108303  0.48320712  0.17250773  1
  O  O581  1  0.41133455  0.48097038  0.42349423  1
  O  O582  1  0.41170150  0.48289747  0.67114896  1
  O  O583  1  0.41334190  0.48265076  0.92192665  1
  O  O584  1  0.40974748  0.81406137  0.17258141  1
  O  O585  1  0.41271078  0.81573294  0.42232796  1
  O  O586  1  0.41080258  0.81519825  0.67243262  1
  O  O587  1  0.41062541  0.81382666  0.92265144  1
  O  O588  1  0.91262305  0.14795791  0.17236195  1
  O  O589  1  0.91343504  0.14743296  0.42436275  1
  O  O590  1  0.91386176  0.14796807  0.67215003  1
  O  O591  1  0.91417427  0.14723299  0.92236322  1
  O  O592  1  0.91077893  0.48079303  0.17354118  1
  O  O593  1  0.91282412  0.48215670  0.42254311  1
  O  O594  1  0.91477536  0.48288530  0.67208294  1
  O  O595  1  0.91227366  0.48225029  0.92337375  1
  O  O596  1  0.91211082  0.81616127  0.17126716  1
  O  O597  1  0.91493394  0.81537846  0.42250577  1
  O  O598  1  0.91369375  0.81458145  0.67236954  1
  O  O599  1  0.91307188  0.81562780  0.92196778  1
  O  O600  1  0.08594506  0.18515497  0.07801004  1
  O  O601  1  0.08831646  0.18345440  0.32854919  1
  O  O602  1  0.08889531  0.18554630  0.57705898  1
  O  O603  1  0.08742114  0.18427937  0.82848756  1
  O  O604  1  0.08844748  0.51804644  0.07781570  1
  O  O605  1  0.09029128  0.51956878  0.32663982  1
  O  O606  1  0.08772715  0.51849571  0.57721870  1
  O  O607  1  0.08925977  0.51966594  0.82736100  1
  O  O608  1  0.08712907  0.85202647  0.07638209  1
  O  O609  1  0.08747569  0.85191696  0.32817439  1
  O  O610  1  0.08740990  0.85123484  0.57738102  1
  O  O611  1  0.08733612  0.85100074  0.82811783  1
  O  O612  1  0.58676332  0.18519387  0.07790471  1
  O  O613  1  0.58610808  0.18548912  0.32770930  1
  O  O614  1  0.58767214  0.18371086  0.57657665  1
  O  O615  1  0.58765708  0.18509989  0.82822688  1
  O  O616  1  0.58470404  0.51857955  0.07713916  1
  O  O617  1  0.58750156  0.51790943  0.32855962  1
  O  O618  1  0.58662191  0.51922821  0.57710789  1
  O  O619  1  0.58656862  0.51774002  0.82717544  1
  O  O620  1  0.58768520  0.85131014  0.07638357  1
  O  O621  1  0.58479992  0.85082419  0.32724771  1
  O  O622  1  0.58600777  0.85208244  0.57720749  1
  O  O623  1  0.58798194  0.85181136  0.82737243  1
  O  O624  1  0.33755305  0.18411548  0.04644683  1
  O  O625  1  0.33869428  0.18514083  0.29858005  1
  O  O626  1  0.33644289  0.18457647  0.54721448  1
  O  O627  1  0.33658076  0.18479620  0.79727694  1
  O  O628  1  0.33968258  0.51874508  0.04664067  1
  O  O629  1  0.33760907  0.51882150  0.29725224  1
  O  O630  1  0.33643404  0.51819594  0.54826267  1
  O  O631  1  0.33770536  0.51964152  0.79736262  1
  O  O632  1  0.33553412  0.85159103  0.04682251  1
  O  O633  1  0.33822116  0.85099987  0.29838575  1
  O  O634  1  0.33692414  0.85236844  0.54815355  1
  O  O635  1  0.33785387  0.85078139  0.79607418  1
  O  O636  1  0.83836692  0.18585930  0.04796945  1
  O  O637  1  0.83848773  0.18567353  0.29785505  1
  O  O638  1  0.83539448  0.18449164  0.54795520  1
  O  O639  1  0.83670728  0.18466426  0.79741168  1
  O  O640  1  0.83761747  0.51855650  0.04710794  1
  O  O641  1  0.83717948  0.51740433  0.29787351  1
  O  O642  1  0.83631692  0.51812365  0.54839133  1
  O  O643  1  0.83724276  0.51916538  0.79706584  1
  O  O644  1  0.83810123  0.85074552  0.04696642  1
  O  O645  1  0.83932473  0.85162141  0.29816852  1
  O  O646  1  0.84012944  0.85243960  0.54735381  1
  O  O647  1  0.84008276  0.85018319  0.79647925  1
  O  O648  1  0.16445512  0.14832783  0.20324422  1
  O  O649  1  0.16195693  0.14769320  0.45267147  1
  O  O650  1  0.16046321  0.14802506  0.70200987  1
  O  O651  1  0.16306819  0.14728125  0.95219448  1
  O  O652  1  0.16531045  0.48266064  0.20231903  1
  O  O653  1  0.16341305  0.48231489  0.45314235  1
  O  O654  1  0.16218831  0.48333200  0.70221415  1
  O  O655  1  0.16506999  0.48159809  0.95250018  1
  O  O656  1  0.16326249  0.81422490  0.20300205  1
  O  O657  1  0.16089106  0.81535432  0.45314899  1
  O  O658  1  0.16180526  0.81389884  0.70192031  1
  O  O659  1  0.16369524  0.81609658  0.95186108  1
  O  O660  1  0.66289616  0.14811070  0.20255961  1
  O  O661  1  0.66317826  0.14854062  0.45292681  1
  O  O662  1  0.66089785  0.14738751  0.70195491  1
  O  O663  1  0.66167831  0.14680283  0.95199281  1
  O  O664  1  0.66280722  0.48140111  0.20248920  1
  O  O665  1  0.66085833  0.48169750  0.45258913  1
  O  O666  1  0.66142740  0.48336807  0.70336630  1
  O  O667  1  0.66335820  0.48203085  0.95205305  1
  O  O668  1  0.66212264  0.81538052  0.20258021  1
  O  O669  1  0.66158189  0.81428081  0.45164518  1
  O  O670  1  0.66494693  0.81438840  0.70147658  1
  O  O671  1  0.66477876  0.81590033  0.95195805  1
