# generated using pymatgen
data_Na2MnFe(PO4)2
_symmetry_space_group_name_H-M   'P 1'
_cell_length_a   21.08152395
_cell_length_b   18.93342146
_cell_length_c   20.04109906
_cell_angle_alpha   89.99983923
_cell_angle_beta   89.99781447
_cell_angle_gamma   90.00071735
_symmetry_Int_Tables_number   1
_chemical_formula_structural   Na2MnFe(PO4)2
_chemical_formula_sum   'Na96 Mn48 Fe48 P96 O384'
_cell_volume   7999.31205009
_cell_formula_units_Z   48
loop_
 _symmetry_equiv_pos_site_id
 _symmetry_equiv_pos_as_xyz
  1  'x, y, z'
loop_
 _atom_site_type_symbol
 _atom_site_label
 _atom_site_symmetry_multiplicity
 _atom_site_fract_x
 _atom_site_fract_y
 _atom_site_fract_z
 _atom_site_occupancy
  Na  Na0  1  0.00071100  0.00005726  0.00095307  1
  Na  Na1  1  -0.00085793  0.00019509  0.25007078  1
  Na  Na2  1  -0.00043563  0.00009387  0.49988916  1
  Na  Na3  1  0.00125440  0.00023515  0.74922869  1
  Na  Na4  1  0.00100102  0.33303636  0.00067734  1
  Na  Na5  1  -0.00050711  0.33222806  0.24981312  1
  Na  Na6  1  -0.00025669  0.33236114  0.49939545  1
  Na  Na7  1  0.00299762  0.33379465  0.75084809  1
  Na  Na8  1  0.00006744  0.66619000  0.00083371  1
  Na  Na9  1  0.00076746  0.66724551  0.24934851  1
  Na  Na10  1  0.00079705  0.66720335  0.49950656  1
  Na  Na11  1  0.00163963  0.66716592  0.75020240  1
  Na  Na12  1  0.49818125  -0.00039614  -0.00066516  1
  Na  Na13  1  0.49901522  0.00008367  0.25122054  1
  Na  Na14  1  0.50070288  0.00035269  0.50016870  1
  Na  Na15  1  0.50029713  0.00005941  0.74914197  1
  Na  Na16  1  0.49941714  0.33318703  0.00104607  1
  Na  Na17  1  0.49996059  0.33364551  0.24884227  1
  Na  Na18  1  0.49955526  0.33283292  0.49977168  1
  Na  Na19  1  0.50024055  0.33350788  0.75014030  1
  Na  Na20  1  0.49882851  0.66640570  -0.00043076  1
  Na  Na21  1  0.49782584  0.66626376  0.24875042  1
  Na  Na22  1  0.49754152  0.66583192  0.49985083  1
  Na  Na23  1  0.49952422  0.66653315  0.75107449  1
  Na  Na24  1  0.25131972  0.00040642  0.12516525  1
  Na  Na25  1  0.25096385  0.00041722  0.37503297  1
  Na  Na26  1  0.24951809  0.00024438  0.62432760  1
  Na  Na27  1  0.24946769  -0.00017188  0.87542174  1
  Na  Na28  1  0.24975757  0.33303839  0.12528589  1
  Na  Na29  1  0.25200315  0.33362068  0.37617284  1
  Na  Na30  1  0.24899996  0.33272016  0.62475697  1
  Na  Na31  1  0.24893744  0.33346677  0.87419577  1
  Na  Na32  1  0.24964285  0.66672028  0.12642695  1
  Na  Na33  1  0.24921916  0.66625250  0.37503676  1
  Na  Na34  1  0.24849266  0.66695293  0.62488771  1
  Na  Na35  1  0.24776061  0.66639067  0.87390040  1
  Na  Na36  1  0.74991757  -0.00004342  0.12487534  1
  Na  Na37  1  0.75062401  0.00085008  0.37505332  1
  Na  Na38  1  0.74778102  -0.00069775  0.62397324  1
  Na  Na39  1  0.74988608  0.00021829  0.87603057  1
  Na  Na40  1  0.74870170  0.33257178  0.12518349  1
  Na  Na41  1  0.75003457  0.33276131  0.37434609  1
  Na  Na42  1  0.74929691  0.33248187  0.62375715  1
  Na  Na43  1  0.74902503  0.33310382  0.87643026  1
  Na  Na44  1  0.75277924  0.66718036  0.12469993  1
  Na  Na45  1  0.75170808  0.66728379  0.37420446  1
  Na  Na46  1  0.75197500  0.66751547  0.62571494  1
  Na  Na47  1  0.75163112  0.66632789  0.87534992  1
  Na  Na48  1  0.00063535  0.16673385  0.00066128  1
  Na  Na49  1  -0.00078330  0.16690495  0.25000932  1
  Na  Na50  1  -0.00050779  0.16587215  0.49917435  1
  Na  Na51  1  0.00179794  0.16562741  0.75033915  1
  Na  Na52  1  0.00117139  0.50072443  0.00044747  1
  Na  Na53  1  0.00023131  0.50048083  0.24989660  1
  Na  Na54  1  0.00158384  0.49946829  0.49989927  1
  Na  Na55  1  0.00186043  0.50013443  0.75100895  1
  Na  Na56  1  -0.00102787  0.83408754  0.00114124  1
  Na  Na57  1  -0.00023089  0.83321441  0.24916407  1
  Na  Na58  1  0.00054281  0.83343805  0.49989349  1
  Na  Na59  1  0.00258454  0.83233308  0.74918490  1
  Na  Na60  1  0.50077936  0.16582240  -0.00024921  1
  Na  Na61  1  0.49989456  0.16600250  0.25010875  1
  Na  Na62  1  0.49973998  0.16611965  0.50040745  1
  Na  Na63  1  0.50078788  0.16576539  0.74961192  1
  Na  Na64  1  0.49939489  0.50007303  -0.00030324  1
  Na  Na65  1  0.49834117  0.50013864  0.24893830  1
  Na  Na66  1  0.49855922  0.50027412  0.49871589  1
  Na  Na67  1  0.49918955  0.50076372  0.75140476  1
  Na  Na68  1  0.49670626  0.83453458  0.00037762  1
  Na  Na69  1  0.49808102  0.83453515  0.24972842  1
  Na  Na70  1  0.50112876  0.83346406  0.50082790  1
  Na  Na71  1  0.49993334  0.83354100  0.74945052  1
  Na  Na72  1  0.24876321  0.16668308  0.12567111  1
  Na  Na73  1  0.25067597  0.16589586  0.37543292  1
  Na  Na74  1  0.24993105  0.16539745  0.62448953  1
  Na  Na75  1  0.24803058  0.16641292  0.87452641  1
  Na  Na76  1  0.25164631  0.49936682  0.12540229  1
  Na  Na77  1  0.25140357  0.50009614  0.37580332  1
  Na  Na78  1  0.24884503  0.50051599  0.62479991  1
  Na  Na79  1  0.24757573  0.50114782  0.87410477  1
  Na  Na80  1  0.25099531  0.83321821  0.12563408  1
  Na  Na81  1  0.25003186  0.83387049  0.37505075  1
  Na  Na82  1  0.24756012  0.83457501  0.62474688  1
  Na  Na83  1  0.25009707  0.83314388  0.87500028  1
  Na  Na84  1  0.75055682  0.16589075  0.12569268  1
  Na  Na85  1  0.74963135  0.16631673  0.37488728  1
  Na  Na86  1  0.74823343  0.16701660  0.62393676  1
  Na  Na87  1  0.74884928  0.16661902  0.87611215  1
  Na  Na88  1  0.74921689  0.50069687  0.12447693  1
  Na  Na89  1  0.75003493  0.50043709  0.37387712  1
  Na  Na90  1  0.75044824  0.50050428  0.62532741  1
  Na  Na91  1  0.75136305  0.49977504  0.87614325  1
  Na  Na92  1  0.75262401  0.83270282  0.12425943  1
  Na  Na93  1  0.75223905  0.83310708  0.37486564  1
  Na  Na94  1  0.74922077  0.83466166  0.62451383  1
  Na  Na95  1  0.75117942  0.83321193  0.87540042  1
  Mn  Mn96  1  0.14234671  0.24965292  0.49728101  1
  Mn  Mn97  1  0.10825006  0.41614381  0.37165641  1
  Mn  Mn98  1  0.14191098  0.24937015  0.74720413  1
  Mn  Mn99  1  0.64195713  0.25038188  0.99835463  1
  Mn  Mn100  1  0.60753488  0.08274591  0.87245282  1
  Mn  Mn101  1  0.64196390  0.58432681  0.49773130  1
  Mn  Mn102  1  0.60701568  0.41657990  0.37224264  1
  Mn  Mn103  1  0.89322347  0.58271432  0.62719932  1
  Mn  Mn104  1  0.10783826  0.08345791  0.12399010  1
  Mn  Mn105  1  0.35754244  0.75075077  0.50222389  1
  Mn  Mn106  1  0.64179001  0.58358460  0.24704648  1
  Mn  Mn107  1  0.64180041  0.91542017  0.99801561  1
  Mn  Mn108  1  0.10776413  0.75009556  0.12283326  1
  Mn  Mn109  1  0.39262482  0.25038476  0.62768490  1
  Mn  Mn110  1  0.39157850  0.24967987  0.12756726  1
  Mn  Mn111  1  0.85872140  0.41599911  0.75256596  1
  Mn  Mn112  1  0.35823124  0.41631612  0.50293742  1
  Mn  Mn113  1  0.85725103  0.41628421  0.25183654  1
  Mn  Mn114  1  0.35652897  0.75070273  0.75203343  1
  Mn  Mn115  1  0.60766273  0.75044522  0.87349818  1
  Mn  Mn116  1  0.85836605  0.41697992  0.50236609  1
  Mn  Mn117  1  0.39271564  0.91607520  0.62754137  1
  Mn  Mn118  1  0.60769125  0.41671164  0.87285491  1
  Mn  Mn119  1  0.10875676  0.41659535  0.12330802  1
  Mn  Mn120  1  0.60751226  0.75005240  0.12236778  1
  Mn  Mn121  1  0.35739552  0.75003814  0.25289814  1
  Mn  Mn122  1  0.89210749  0.91712078  0.12792264  1
  Mn  Mn123  1  0.64246338  0.91651116  0.24794592  1
  Mn  Mn124  1  0.39161032  0.24971029  0.87733135  1
  Mn  Mn125  1  0.89279397  0.24994717  0.87714463  1
  Mn  Mn126  1  0.85831881  0.08329882  0.00199694  1
  Mn  Mn127  1  0.60804960  0.41726250  0.62285079  1
  Mn  Mn128  1  0.35670260  0.41639195  0.75220649  1
  Mn  Mn129  1  0.89238822  0.25011209  0.62770014  1
  Mn  Mn130  1  0.85754289  0.08361009  0.75181524  1
  Mn  Mn131  1  0.89246717  0.91684070  0.62742419  1
  Mn  Mn132  1  0.14191239  0.91711938  0.49686727  1
  Mn  Mn133  1  0.35720330  0.08374812  0.00241225  1
  Mn  Mn134  1  0.64272798  0.58331727  0.74782372  1
  Mn  Mn135  1  0.64213357  0.24993927  0.49672375  1
  Mn  Mn136  1  0.89287910  0.58328405  0.37723508  1
  Mn  Mn137  1  0.85848094  0.41680648  0.00265871  1
  Mn  Mn138  1  0.14241080  0.58338521  0.49748317  1
  Mn  Mn139  1  0.85887140  0.75057285  0.75282321  1
  Mn  Mn140  1  0.14251303  0.91638793  0.99740253  1
  Mn  Mn141  1  0.60783360  0.74999841  0.37249619  1
  Mn  Mn142  1  0.39082857  0.58383658  0.87784290  1
  Mn  Mn143  1  0.60828290  0.74945938  0.62274394  1
  Fe  Fe144  1  0.64242271  0.91692505  0.74888783  1
  Fe  Fe145  1  0.85808033  0.75048537  0.50145120  1
  Fe  Fe146  1  0.35660632  0.74918309  0.00134849  1
  Fe  Fe147  1  0.10803838  0.41681998  0.87390034  1
  Fe  Fe148  1  0.89280252  0.25055327  0.12721064  1
  Fe  Fe149  1  0.89417195  0.58374668  0.87705987  1
  Fe  Fe150  1  0.39209758  0.91681806  0.12706643  1
  Fe  Fe151  1  0.14311005  0.91718531  0.24902887  1
  Fe  Fe152  1  0.35644081  0.41700565  0.00104052  1
  Fe  Fe153  1  0.35744231  0.08315227  0.50181056  1
  Fe  Fe154  1  0.85801762  0.75036595  0.25210823  1
  Fe  Fe155  1  0.35686441  0.08282242  0.75118921  1
  Fe  Fe156  1  0.14223417  0.25049309  0.99867714  1
  Fe  Fe157  1  0.35746781  0.08388223  0.25232291  1
  Fe  Fe158  1  0.85684265  0.08324403  0.25238465  1
  Fe  Fe159  1  0.39201081  0.58364806  0.37650966  1
  Fe  Fe160  1  0.85689596  0.08292228  0.50164792  1
  Fe  Fe161  1  0.39184396  0.58373596  0.12583793  1
  Fe  Fe162  1  0.10762137  0.41617185  0.62288226  1
  Fe  Fe163  1  0.64343015  0.91634763  0.49758259  1
  Fe  Fe164  1  0.14217671  0.91681315  0.74886093  1
  Fe  Fe165  1  0.10690664  0.08283300  0.37285535  1
  Fe  Fe166  1  0.14347724  0.58287512  0.24840043  1
  Fe  Fe167  1  0.89316148  0.91653923  0.87578737  1
  Fe  Fe168  1  0.39165007  0.91672534  0.87589593  1
  Fe  Fe169  1  0.10752347  0.75057885  0.87404715  1
  Fe  Fe170  1  0.10690659  0.75082951  0.37287942  1
  Fe  Fe171  1  0.35743320  0.41591898  0.25141984  1
  Fe  Fe172  1  0.14296224  0.24977315  0.24923769  1
  Fe  Fe173  1  0.85859553  0.74961071  0.00086319  1
  Fe  Fe174  1  0.14278552  0.58313360  0.99887003  1
  Fe  Fe175  1  0.10766719  0.08338016  0.62238864  1
  Fe  Fe176  1  0.60721134  0.08334511  0.62316539  1
  Fe  Fe177  1  0.89255303  0.24934392  0.37594703  1
  Fe  Fe178  1  0.64323689  0.58381605  0.99870453  1
  Fe  Fe179  1  0.89326199  0.58241032  0.12690959  1
  Fe  Fe180  1  0.39268326  0.91711829  0.37727570  1
  Fe  Fe181  1  0.10731945  0.75006925  0.62249438  1
  Fe  Fe182  1  0.60676068  0.08335953  0.37309460  1
  Fe  Fe183  1  0.39263033  0.24937512  0.37605489  1
  Fe  Fe184  1  0.64232401  0.24964083  0.24832845  1
  Fe  Fe185  1  0.10753213  0.08251538  0.87305169  1
  Fe  Fe186  1  0.60610066  0.41696811  0.12310961  1
  Fe  Fe187  1  0.60669950  0.08309338  0.12424446  1
  Fe  Fe188  1  0.89316233  0.91724327  0.37638255  1
  Fe  Fe189  1  0.64222918  0.24980066  0.74851498  1
  Fe  Fe190  1  0.14185200  0.58394195  0.74775274  1
  Fe  Fe191  1  0.39209802  0.58342744  0.62700149  1
  P  P192  1  0.05443547  0.24994038  0.11126260  1
  P  P193  1  0.05280442  0.24851897  0.35935802  1
  P  P194  1  0.05368253  0.24942534  0.60957129  1
  P  P195  1  0.05523730  0.24974882  0.86165478  1
  P  P196  1  0.05469272  0.58312663  0.11090907  1
  P  P197  1  0.05439397  0.58427091  0.35906056  1
  P  P198  1  0.05509814  0.58339768  0.61094748  1
  P  P199  1  0.05500299  0.58387564  0.86152285  1
  P  P200  1  0.05471378  0.91696909  0.11153377  1
  P  P201  1  0.05275547  0.91707288  0.35928282  1
  P  P202  1  0.05500696  0.91689696  0.61085560  1
  P  P203  1  0.05284180  0.91640288  0.85986061  1
  P  P204  1  0.55405459  0.24943274  0.11171491  1
  P  P205  1  0.55248639  0.24896721  0.35921892  1
  P  P206  1  0.55478454  0.24936917  0.61088731  1
  P  P207  1  0.55354512  0.24998400  0.85945326  1
  P  P208  1  0.55225226  0.58289501  0.10920120  1
  P  P209  1  0.55138889  0.58367455  0.35929142  1
  P  P210  1  0.55170770  0.58332646  0.60977944  1
  P  P211  1  0.55404656  0.58385979  0.86144263  1
  P  P212  1  0.55179237  0.91762120  0.11043506  1
  P  P213  1  0.55333437  0.91739163  0.36129785  1
  P  P214  1  0.55589126  0.91739841  0.61043990  1
  P  P215  1  0.55202503  0.91627219  0.85941296  1
  P  P216  1  0.44643287  0.08271766  0.14072072  1
  P  P217  1  0.44558332  0.08367691  0.38949563  1
  P  P218  1  0.44612230  0.08302532  0.63946347  1
  P  P219  1  0.44491515  0.08242563  0.88850747  1
  P  P220  1  0.44478053  0.41755327  0.13861263  1
  P  P221  1  0.44461525  0.41598169  0.38811826  1
  P  P222  1  0.44666660  0.41773639  0.64059329  1
  P  P223  1  0.44534456  0.41652291  0.89102417  1
  P  P224  1  0.44456823  0.74989056  0.13845169  1
  P  P225  1  0.44639727  0.75056221  0.38996489  1
  P  P226  1  0.44652950  0.74923648  0.64035279  1
  P  P227  1  0.44517339  0.75116093  0.89046729  1
  P  P228  1  0.94571436  0.08443563  0.14098855  1
  P  P229  1  0.94564363  0.08308162  0.38898216  1
  P  P230  1  0.94706678  0.08328267  0.63887962  1
  P  P231  1  0.94834603  0.08235535  0.88970586  1
  P  P232  1  0.94716059  0.41663477  0.14007918  1
  P  P233  1  0.94691493  0.41566796  0.38960054  1
  P  P234  1  0.94886606  0.41638294  0.64050711  1
  P  P235  1  0.94877397  0.41723365  0.89030677  1
  P  P236  1  0.94477586  0.74890833  0.13929005  1
  P  P237  1  0.94636560  0.75119588  0.38903849  1
  P  P238  1  0.94714609  0.75006234  0.63881546  1
  P  P239  1  0.94819969  0.75028234  0.89036524  1
  P  P240  1  0.19671628  0.08307305  0.23695146  1
  P  P241  1  0.19597243  0.08323603  0.48466205  1
  P  P242  1  0.19563180  0.08189911  0.73522704  1
  P  P243  1  0.19563409  0.08393914  0.98487227  1
  P  P244  1  0.19832956  0.41625683  0.23569577  1
  P  P245  1  0.19583028  0.41646603  0.48568633  1
  P  P246  1  0.19421525  0.41741282  0.73526971  1
  P  P247  1  0.19713049  0.41698499  0.98487209  1
  P  P248  1  0.19501357  0.75066821  0.23678183  1
  P  P249  1  0.19483710  0.75035814  0.48476914  1
  P  P250  1  0.19378461  0.75078129  0.73564465  1
  P  P251  1  0.19719201  0.74915308  0.98490233  1
  P  P252  1  0.69565696  0.08375879  0.23592325  1
  P  P253  1  0.69547259  0.08236824  0.48509834  1
  P  P254  1  0.69584741  0.08324320  0.73437716  1
  P  P255  1  0.69513058  0.08293171  0.98665254  1
  P  P256  1  0.69522819  0.41578247  0.23407062  1
  P  P257  1  0.69693284  0.41719491  0.48410766  1
  P  P258  1  0.69735035  0.41587892  0.73508198  1
  P  P259  1  0.69533905  0.41790357  0.98674469  1
  P  P260  1  0.69829790  0.75047091  0.23450420  1
  P  P261  1  0.69830261  0.75085942  0.48463113  1
  P  P262  1  0.69730488  0.75086605  0.73537239  1
  P  P263  1  0.69833487  0.74895030  0.98522667  1
  P  P264  1  0.30144865  0.25064828  0.01488465  1
  P  P265  1  0.30277383  0.24967856  0.26561959  1
  P  P266  1  0.30485375  0.24854072  0.51402571  1
  P  P267  1  0.30295672  0.24868450  0.76469000  1
  P  P268  1  0.30191858  0.58358004  0.01524012  1
  P  P269  1  0.30396441  0.58258586  0.26429471  1
  P  P270  1  0.30511774  0.58377805  0.51489094  1
  P  P271  1  0.30226178  0.58373069  0.76365068  1
  P  P272  1  0.30479840  0.91568272  0.01448953  1
  P  P273  1  0.30426256  0.91758357  0.26476369  1
  P  P274  1  0.30458177  0.91768996  0.51397787  1
  P  P275  1  0.30211819  0.91753433  0.76502110  1
  P  P276  1  0.80431109  0.24995029  0.01614670  1
  P  P277  1  0.80365028  0.24912952  0.26422102  1
  P  P278  1  0.80497011  0.24873170  0.51334435  1
  P  P279  1  0.80170555  0.24958163  0.76543528  1
  P  P280  1  0.80529810  0.58400443  0.01442409  1
  P  P281  1  0.80467936  0.58372337  0.26353646  1
  P  P282  1  0.80378235  0.58452846  0.51502675  1
  P  P283  1  0.80503507  0.58311271  0.76629703  1
  P  P284  1  0.80524940  0.91594032  0.01362573  1
  P  P285  1  0.80423017  0.91704289  0.26558355  1
  P  P286  1  0.80441576  0.91706510  0.51330292  1
  P  P287  1  0.80258789  0.91747980  0.76556601  1
  O  O288  1  0.05970347  0.24999755  0.18793391  1
  O  O289  1  0.05664109  0.24908337  0.43601777  1
  O  O290  1  0.05652641  0.24909710  0.68640604  1
  O  O291  1  0.05871163  0.24998447  0.93848207  1
  O  O292  1  0.05999547  0.58295802  0.18754029  1
  O  O293  1  0.05715475  0.58330828  0.43588421  1
  O  O294  1  0.05811661  0.58370453  0.68781465  1
  O  O295  1  0.05932367  0.58375636  0.93830337  1
  O  O296  1  0.05929018  0.91704026  0.18822481  1
  O  O297  1  0.05607748  0.91720658  0.43603094  1
  O  O298  1  0.05868417  0.91708681  0.68758829  1
  O  O299  1  0.05604124  0.91652014  0.93663446  1
  O  O300  1  0.55786283  0.24949882  0.18844443  1
  O  O301  1  0.55603056  0.24949243  0.43599716  1
  O  O302  1  0.55872813  0.24992404  0.68763742  1
  O  O303  1  0.55668350  0.25004482  0.93630792  1
  O  O304  1  0.55589547  0.58364662  0.18595947  1
  O  O305  1  0.55561247  0.58387847  0.43596224  1
  O  O306  1  0.55597527  0.58351530  0.68649457  1
  O  O307  1  0.55901070  0.58396805  0.93811901  1
  O  O308  1  0.55585521  0.91683777  0.18712795  1
  O  O309  1  0.55861239  0.91650808  0.43791874  1
  O  O310  1  0.55975887  0.91663162  0.68722308  1
  O  O311  1  0.55586810  0.91626683  0.93616963  1
  O  O312  1  0.44287656  0.08367704  0.06396895  1
  O  O313  1  0.44093667  0.08357569  0.31275500  1
  O  O314  1  0.44151018  0.08294519  0.56277007  1
  O  O315  1  0.44079965  0.08310170  0.81176817  1
  O  O316  1  0.43976809  0.41665064  0.06195950  1
  O  O317  1  0.44093345  0.41589948  0.31126772  1
  O  O318  1  0.44386441  0.41667534  0.56373412  1
  O  O319  1  0.44195032  0.41660155  0.81424313  1
  O  O320  1  0.44056178  0.74951280  0.06175265  1
  O  O321  1  0.44350427  0.75082685  0.31311023  1
  O  O322  1  0.44331874  0.75037294  0.56361435  1
  O  O323  1  0.44218897  0.75012151  0.81368157  1
  O  O324  1  0.94332894  0.08352134  0.06417141  1
  O  O325  1  0.94094670  0.08333992  0.31229366  1
  O  O326  1  0.94167686  0.08306607  0.56226377  1
  O  O327  1  0.94457888  0.08301009  0.81299936  1
  O  O328  1  0.94465582  0.41675876  0.06331796  1
  O  O329  1  0.94343685  0.41637398  0.31285478  1
  O  O330  1  0.94470414  0.41638897  0.56379375  1
  O  O331  1  0.94518180  0.41645854  0.81360610  1
  O  O332  1  0.94123977  0.74972688  0.06250171  1
  O  O333  1  0.94179057  0.75046913  0.31229104  1
  O  O334  1  0.94206578  0.75041461  0.56213139  1
  O  O335  1  0.94515427  0.75015592  0.81357731  1
  O  O336  1  0.19294155  0.08309593  0.06170230  1
  O  O337  1  0.19185062  0.08282201  0.31359661  1
  O  O338  1  0.19112673  0.08316370  0.56138669  1
  O  O339  1  0.19089689  0.08234879  0.81194922  1
  O  O340  1  0.19420872  0.41684603  0.06168212  1
  O  O341  1  0.19511496  0.41650416  0.31239607  1
  O  O342  1  0.19118838  0.41615085  0.56244137  1
  O  O343  1  0.19047371  0.41690428  0.81211392  1
  O  O344  1  0.19376141  0.75010648  0.06166156  1
  O  O345  1  0.19119042  0.75092090  0.31354341  1
  O  O346  1  0.19076617  0.75051499  0.56159582  1
  O  O347  1  0.19022976  0.75069152  0.81248367  1
  O  O348  1  0.69071136  0.08268315  0.06339328  1
  O  O349  1  0.69075121  0.08330691  0.31262762  1
  O  O350  1  0.69088018  0.08325962  0.56174824  1
  O  O351  1  0.69345787  0.08318642  0.81126830  1
  O  O352  1  0.69049434  0.41732585  0.06343627  1
  O  O353  1  0.69245528  0.41661024  0.31090911  1
  O  O354  1  0.69375314  0.41706469  0.56091211  1
  O  O355  1  0.69424776  0.41660225  0.81190853  1
  O  O356  1  0.69425470  0.74980039  0.06191992  1
  O  O357  1  0.69391094  0.75034398  0.31119191  1
  O  O358  1  0.69433139  0.75012569  0.56132255  1
  O  O359  1  0.69403415  0.75003350  0.81212767  1
  O  O360  1  0.30588041  0.24938789  0.18881399  1
  O  O361  1  0.30895959  0.24915392  0.43729975  1
  O  O362  1  0.30616925  0.24918945  0.68789820  1
  O  O363  1  0.30502159  0.24984111  0.93823995  1
  O  O364  1  0.30843079  0.58349366  0.18758084  1
  O  O365  1  0.30934865  0.58385781  0.43804359  1
  O  O366  1  0.30734376  0.58372141  0.68700703  1
  O  O367  1  0.30464887  0.58382929  0.93849540  1
  O  O368  1  0.30868104  0.91708490  0.18800347  1
  O  O369  1  0.30904141  0.91694910  0.43722102  1
  O  O370  1  0.30595503  0.91694267  0.68829250  1
  O  O371  1  0.30826939  0.91660702  0.93772226  1
  O  O372  1  0.80843431  0.24992459  0.18756442  1
  O  O373  1  0.80934773  0.24925321  0.43658012  1
  O  O374  1  0.80580522  0.24972151  0.68867664  1
  O  O375  1  0.80769272  0.25003530  0.93932207  1
  O  O376  1  0.80891187  0.58271909  0.18680690  1
  O  O377  1  0.80690737  0.58367898  0.43820882  1
  O  O378  1  0.80829988  0.58324681  0.68948323  1
  O  O379  1  0.81048435  0.58307045  0.93772080  1
  O  O380  1  0.80661074  0.91714909  0.18874708  1
  O  O381  1  0.80924915  0.91716791  0.43666925  1
  O  O382  1  0.80646466  0.91742006  0.68879927  1
  O  O383  1  0.80970653  0.91686285  0.93688512  1
  O  O384  1  0.23145748  0.25028569  0.03980269  1
  O  O385  1  0.23277993  0.24968443  0.29063944  1
  O  O386  1  0.23490304  0.24894806  0.53840010  1
  O  O387  1  0.23319210  0.24933386  0.78954214  1
  O  O388  1  0.23197575  0.58321621  0.04051063  1
  O  O389  1  0.23357269  0.58324813  0.28814176  1
  O  O390  1  0.23496427  0.58374082  0.53849462  1
  O  O391  1  0.23180699  0.58403896  0.78699244  1
  O  O392  1  0.23481954  0.91677268  0.03909405  1
  O  O393  1  0.23389770  0.91708268  0.28860636  1
  O  O394  1  0.23448959  0.91748557  0.53773244  1
  O  O395  1  0.23203741  0.91668354  0.78952018  1
  O  O396  1  0.73441797  0.24962621  0.04057952  1
  O  O397  1  0.73321040  0.24956293  0.28785746  1
  O  O398  1  0.73481398  0.24918005  0.53706436  1
  O  O399  1  0.73174446  0.24944488  0.79008709  1
  O  O400  1  0.73484972  0.58384592  0.03797396  1
  O  O401  1  0.73461395  0.58357471  0.28776088  1
  O  O402  1  0.73422100  0.58440425  0.54054059  1
  O  O403  1  0.73521516  0.58309609  0.79102463  1
  O  O404  1  0.73524572  0.91601470  0.03803408  1
  O  O405  1  0.73460292  0.91706101  0.29102374  1
  O  O406  1  0.73409357  0.91700282  0.53708760  1
  O  O407  1  0.73248361  0.91708313  0.78998535  1
  O  O408  1  0.26703121  0.08345091  0.21293232  1
  O  O409  1  0.26641345  0.08302518  0.46145383  1
  O  O410  1  0.26597637  0.08260299  0.71140977  1
  O  O411  1  0.26537260  0.08323821  0.95983788  1
  O  O412  1  0.26823289  0.41592927  0.21053630  1
  O  O413  1  0.26596529  0.41682537  0.46215753  1
  O  O414  1  0.26418188  0.41647421  0.71081200  1
  O  O415  1  0.26702269  0.41733566  0.95960030  1
  O  O416  1  0.26501361  0.75031025  0.21234915  1
  O  O417  1  0.26488656  0.75031678  0.46082473  1
  O  O418  1  0.26375411  0.75084151  0.71097062  1
  O  O419  1  0.26711363  0.74942365  0.96001196  1
  O  O420  1  0.76618121  0.08298888  0.21264031  1
  O  O421  1  0.76591979  0.08292422  0.46153997  1
  O  O422  1  0.76537265  0.08313486  0.70845683  1
  O  O423  1  0.76520811  0.08348734  0.96252967  1
  O  O424  1  0.76499490  0.41642506  0.20904196  1
  O  O425  1  0.76658438  0.41680806  0.45890291  1
  O  O426  1  0.76695746  0.41626966  0.70954490  1
  O  O427  1  0.76551953  0.41694559  0.96292529  1
  O  O428  1  0.76852586  0.75051021  0.21066094  1
  O  O429  1  0.76841077  0.75074915  0.46022593  1
  O  O430  1  0.76706505  0.75108000  0.71027457  1
  O  O431  1  0.76838858  0.74941390  0.96070084  1
  O  O432  1  0.01541796  0.08376397  0.16615765  1
  O  O433  1  0.01618714  0.08286062  0.41250441  1
  O  O434  1  0.01749436  0.08311632  0.66220761  1
  O  O435  1  0.01833594  0.08285375  0.91458956  1
  O  O436  1  0.01672034  0.41643445  0.16570466  1
  O  O437  1  0.01673290  0.41576548  0.41439178  1
  O  O438  1  0.01889615  0.41653854  0.66488544  1
  O  O439  1  0.01884057  0.41709789  0.91504512  1
  O  O440  1  0.01486916  0.74981995  0.16338571  1
  O  O441  1  0.01683816  0.75063460  0.41257562  1
  O  O442  1  0.01751745  0.74994098  0.66225298  1
  O  O443  1  0.01820066  0.75032508  0.91546837  1
  O  O444  1  0.51646777  0.08294322  0.16535673  1
  O  O445  1  0.51602540  0.08339539  0.41314735  1
  O  O446  1  0.51655900  0.08281462  0.66283494  1
  O  O447  1  0.51485708  0.08268429  0.91297321  1
  O  O448  1  0.51528311  0.41702734  0.16199905  1
  O  O449  1  0.51448039  0.41612460  0.41297457  1
  O  O450  1  0.51613641  0.41747730  0.66618877  1
  O  O451  1  0.51515467  0.41648912  0.91567885  1
  O  O452  1  0.51450299  0.75018519  0.16316317  1
  O  O453  1  0.51593995  0.75011075  0.41554251  1
  O  O454  1  0.51618061  0.74985004  0.66551647  1
  O  O455  1  0.51483790  0.75056709  0.91579996  1
  O  O456  1  0.48406364  0.24955676  0.08695916  1
  O  O457  1  0.48239206  0.24940130  0.33473195  1
  O  O458  1  0.48483761  0.24955639  0.58640600  1
  O  O459  1  0.48379732  0.24984361  0.83457047  1
  O  O460  1  0.48200081  0.58329214  0.08500913  1
  O  O461  1  0.48118711  0.58347191  0.33511487  1
  O  O462  1  0.48168207  0.58320814  0.58532589  1
  O  O463  1  0.48375474  0.58388933  0.83802467  1
  O  O464  1  0.48163685  0.91724952  0.08620426  1
  O  O465  1  0.48285082  0.91763349  0.33791343  1
  O  O466  1  0.48570615  0.91677507  0.58652896  1
  O  O467  1  0.48198563  0.91654393  0.83483807  1
  O  O468  1  0.98399126  0.25000154  0.08798483  1
  O  O469  1  0.98255681  0.24893133  0.33528689  1
  O  O470  1  0.98415869  0.24922808  0.58410050  1
  O  O471  1  0.98547765  0.24962337  0.83645509  1
  O  O472  1  0.98425525  0.58317838  0.08770438  1
  O  O473  1  0.98462946  0.58396354  0.33412325  1
  O  O474  1  0.98549677  0.58348373  0.58545290  1
  O  O475  1  0.98461838  0.58393082  0.83751895  1
  O  O476  1  0.98457353  0.91698534  0.08785624  1
  O  O477  1  0.98265372  0.91713410  0.33475156  1
  O  O478  1  0.98514469  0.91678950  0.58609568  1
  O  O479  1  0.98294774  0.91616457  0.83451937  1
  O  O480  1  0.08789984  0.31490214  0.07775861  1
  O  O481  1  0.08691682  0.31333916  0.32622875  1
  O  O482  1  0.08778542  0.31473864  0.57752524  1
  O  O483  1  0.08900646  0.31491613  0.82906326  1
  O  O484  1  0.08799233  0.64804953  0.07728613  1
  O  O485  1  0.08840680  0.64949731  0.32704534  1
  O  O486  1  0.08906402  0.64847916  0.57827051  1
  O  O487  1  0.08827931  0.64905199  0.82832128  1
  O  O488  1  0.08803775  0.98199143  0.07835558  1
  O  O489  1  0.08687712  0.98210311  0.32660248  1
  O  O490  1  0.08859917  0.98200429  0.57772364  1
  O  O491  1  0.08698154  0.98142086  0.82716891  1
  O  O492  1  0.58762005  0.31463339  0.07881908  1
  O  O493  1  0.58675557  0.31369697  0.32628865  1
  O  O494  1  0.58840422  0.31432771  0.57757405  1
  O  O495  1  0.58776293  0.31497054  0.82697241  1
  O  O496  1  0.58644191  0.64778037  0.07629789  1
  O  O497  1  0.58501165  0.64873868  0.32625630  1
  O  O498  1  0.58538298  0.64851316  0.57683248  1
  O  O499  1  0.58733594  0.64887604  0.82802127  1
  O  O500  1  0.58537695  0.98281978  0.07791271  1
  O  O501  1  0.58652976  0.98260096  0.32817066  1
  O  O502  1  0.58910896  0.98271821  0.57748850  1
  O  O503  1  0.58629814  0.98109915  0.82664808  1
  O  O504  1  0.41237525  0.01771856  0.17321231  1
  O  O505  1  0.41199186  0.01881645  0.42300670  1
  O  O506  1  0.41252839  0.01811643  0.67290589  1
  O  O507  1  0.41137101  0.01713940  0.92111612  1
  O  O508  1  0.41135711  0.35266326  0.17249980  1
  O  O509  1  0.41124475  0.35064963  0.42098668  1
  O  O510  1  0.41233545  0.35263853  0.67295571  1
  O  O511  1  0.41114386  0.35156629  0.92367050  1
  O  O512  1  0.41096911  0.68468571  0.17141163  1
  O  O513  1  0.41180829  0.68542539  0.42164629  1
  O  O514  1  0.41250140  0.68401422  0.67248484  1
  O  O515  1  0.41039114  0.68646783  0.92328155  1
  O  O516  1  0.91102637  0.01971622  0.17360328  1
  O  O517  1  0.91239566  0.01791883  0.42238252  1
  O  O518  1  0.91381348  0.01831260  0.67244274  1
  O  O519  1  0.91476530  0.01702833  0.92213502  1
  O  O520  1  0.91272826  0.35156105  0.17219956  1
  O  O521  1  0.91297285  0.35043973  0.42172025  1
  O  O522  1  0.91530754  0.35119637  0.67340762  1
  O  O523  1  0.91475539  0.35227403  0.92308522  1
  O  O524  1  0.91168670  0.68351775  0.17206622  1
  O  O525  1  0.91278510  0.68639597  0.42267552  1
  O  O526  1  0.91400340  0.68509793  0.67228099  1
  O  O527  1  0.91418277  0.68525094  0.92306168  1
  O  O528  1  0.16364459  0.01798429  0.20336052  1
  O  O529  1  0.16239733  0.01842631  0.45108608  1
  O  O530  1  0.16248211  0.01672083  0.70206607  1
  O  O531  1  0.16116857  0.01912499  0.95204204  1
  O  O532  1  0.16420116  0.35113073  0.20345089  1
  O  O533  1  0.16276608  0.35134713  0.45223125  1
  O  O534  1  0.16014655  0.35248630  0.70222797  1
  O  O535  1  0.16304553  0.35193532  0.95239644  1
  O  O536  1  0.16144896  0.68546761  0.20397103  1
  O  O537  1  0.16106396  0.68546088  0.45178941  1
  O  O538  1  0.16005326  0.68569752  0.70266305  1
  O  O539  1  0.16315882  0.68403258  0.95270417  1
  O  O540  1  0.66202022  0.01892093  0.20228468  1
  O  O541  1  0.66232529  0.01708116  0.45195718  1
  O  O542  1  0.66137629  0.01809127  0.70240267  1
  O  O543  1  0.66195822  0.01775695  0.95331524  1
  O  O544  1  0.66124919  0.35032536  0.20230560  1
  O  O545  1  0.66260040  0.35211826  0.45178691  1
  O  O546  1  0.66330331  0.35063704  0.70299844  1
  O  O547  1  0.66158586  0.35298878  0.95352248  1
  O  O548  1  0.66450834  0.68553281  0.20150600  1
  O  O549  1  0.66447208  0.68590801  0.45151873  1
  O  O550  1  0.66356738  0.68565561  0.70249195  1
  O  O551  1  0.66463112  0.68376437  0.95277116  1
  O  O552  1  0.33521735  0.31580489  0.04733451  1
  O  O553  1  0.33702154  0.31470334  0.29784679  1
  O  O554  1  0.33856515  0.31348562  0.54727706  1
  O  O555  1  0.33702219  0.31367958  0.79726305  1
  O  O556  1  0.33590979  0.64863579  0.04797714  1
  O  O557  1  0.33750512  0.64746256  0.29800288  1
  O  O558  1  0.33851920  0.64880612  0.54812993  1
  O  O559  1  0.33547715  0.64870499  0.79719380  1
  O  O560  1  0.33919166  0.98029625  0.04783320  1
  O  O561  1  0.33766715  0.98266227  0.29786165  1
  O  O562  1  0.33796802  0.98291547  0.54680123  1
  O  O563  1  0.33577142  0.98270131  0.79770761  1
  O  O564  1  0.83828933  0.31503735  0.04879836  1
  O  O565  1  0.83736759  0.31390763  0.29779214  1
  O  O566  1  0.83850997  0.31367357  0.54679880  1
  O  O567  1  0.83573728  0.31452605  0.79828871  1
  O  O568  1  0.83875242  0.64914937  0.04726134  1
  O  O569  1  0.83823081  0.64903420  0.29616877  1
  O  O570  1  0.83808654  0.64979432  0.54683817  1
  O  O571  1  0.83929453  0.64823222  0.79869738  1
  O  O572  1  0.83872961  0.98089919  0.04716690  1
  O  O573  1  0.83856349  0.98210820  0.29789416  1
  O  O574  1  0.83744769  0.98233011  0.54678391  1
  O  O575  1  0.83634625  0.98254987  0.79837021  1
  O  O576  1  0.41231603  0.14767668  0.17370482  1
  O  O577  1  0.41249206  0.14898293  0.42261873  1
  O  O578  1  0.41271052  0.14792079  0.67297294  1
  O  O579  1  0.41138653  0.14733544  0.92215028  1
  O  O580  1  0.41170862  0.48283278  0.17166200  1
  O  O581  1  0.41084387  0.48116903  0.42071746  1
  O  O582  1  0.41224256  0.48287557  0.67246488  1
  O  O583  1  0.41106710  0.48157814  0.92346238  1
  O  O584  1  0.41075446  0.81499704  0.17133763  1
  O  O585  1  0.41246715  0.81578187  0.42243177  1
  O  O586  1  0.41217074  0.81421254  0.67296339  1
  O  O587  1  0.41113863  0.81655594  0.92220722  1
  O  O588  1  0.91173613  0.14969506  0.17305874  1
  O  O589  1  0.91232879  0.14806667  0.42242433  1
  O  O590  1  0.91405576  0.14831717  0.67257755  1
  O  O591  1  0.91421824  0.14723337  0.92258848  1
  O  O592  1  0.91297183  0.48178520  0.17224527  1
  O  O593  1  0.91327353  0.48088743  0.42244971  1
  O  O594  1  0.91517105  0.48142985  0.67327123  1
  O  O595  1  0.91505410  0.48242376  0.92276461  1
  O  O596  1  0.91068168  0.81363539  0.17262818  1
  O  O597  1  0.91337937  0.81654638  0.42217607  1
  O  O598  1  0.91415864  0.81517020  0.67246107  1
  O  O599  1  0.91388212  0.81529476  0.92260433  1
  O  O600  1  0.08774698  0.18496567  0.07784872  1
  O  O601  1  0.08651348  0.18339002  0.32662956  1
  O  O602  1  0.08803353  0.18438030  0.57721817  1
  O  O603  1  0.08899885  0.18454832  0.82890851  1
  O  O604  1  0.08804068  0.51816564  0.07739160  1
  O  O605  1  0.08879798  0.51935897  0.32630869  1
  O  O606  1  0.08897714  0.51813194  0.57859654  1
  O  O607  1  0.08843023  0.51881960  0.82830401  1
  O  O608  1  0.08797420  0.85195530  0.07809393  1
  O  O609  1  0.08678940  0.85209557  0.32663973  1
  O  O610  1  0.08872253  0.85174749  0.57803830  1
  O  O611  1  0.08715405  0.85138581  0.82756282  1
  O  O612  1  0.58745239  0.18408412  0.07899896  1
  O  O613  1  0.58641623  0.18373268  0.32685934  1
  O  O614  1  0.58817633  0.18401049  0.57809322  1
  O  O615  1  0.58786651  0.18503083  0.82702565  1
  O  O616  1  0.58607643  0.51772216  0.07681773  1
  O  O617  1  0.58506314  0.51858537  0.32651275  1
  O  O618  1  0.58554413  0.51837461  0.57686049  1
  O  O619  1  0.58721344  0.51872891  0.82807962  1
  O  O620  1  0.58557133  0.85259154  0.07724674  1
  O  O621  1  0.58623660  0.85242233  0.32724154  1
  O  O622  1  0.58993136  0.85263839  0.57704057  1
  O  O623  1  0.58601284  0.85126165  0.82676817  1
  O  O624  1  0.33541366  0.18572850  0.04799561  1
  O  O625  1  0.33697847  0.18473311  0.29829267  1
  O  O626  1  0.33816569  0.18316044  0.54671428  1
  O  O627  1  0.33649755  0.18333275  0.79700919  1
  O  O628  1  0.33635995  0.51864690  0.04756051  1
  O  O629  1  0.33707432  0.51730220  0.29716238  1
  O  O630  1  0.33866649  0.51877741  0.54808557  1
  O  O631  1  0.33522865  0.51869721  0.79730254  1
  O  O632  1  0.33784443  0.85012256  0.04711603  1
  O  O633  1  0.33792919  0.85265940  0.29816314  1
  O  O634  1  0.33789657  0.85273183  0.54753118  1
  O  O635  1  0.33642994  0.85281663  0.79800230  1
  O  O636  1  0.83863285  0.18507760  0.04861981  1
  O  O637  1  0.83687061  0.18390325  0.29749474  1
  O  O638  1  0.83794215  0.18328131  0.54638428  1
  O  O639  1  0.83560702  0.18443778  0.79803137  1
  O  O640  1  0.83867580  0.51909719  0.04829198  1
  O  O641  1  0.83820282  0.51877119  0.29695242  1
  O  O642  1  0.83798184  0.51942221  0.54759599  1
  O  O643  1  0.83938712  0.51821144  0.79883946  1
  O  O644  1  0.83892381  0.85069815  0.04612588  1
  O  O645  1  0.83876225  0.85197973  0.29761655  1
  O  O646  1  0.83779186  0.85200598  0.54669349  1
  O  O647  1  0.83710731  0.85270634  0.79822366  1
  O  O648  1  0.16324192  0.14824585  0.20397086  1
  O  O649  1  0.16255322  0.14812522  0.45122210  1
  O  O650  1  0.16194843  0.14679957  0.70166013  1
  O  O651  1  0.16179622  0.14920440  0.95281603  1
  O  O652  1  0.16456558  0.48131166  0.20286288  1
  O  O653  1  0.16236783  0.48146023  0.45255032  1
  O  O654  1  0.16091361  0.48274507  0.70259495  1
  O  O655  1  0.16285420  0.48203718  0.95256389  1
  O  O656  1  0.16183952  0.81592118  0.20363312  1
  O  O657  1  0.16113082  0.81532572  0.45160450  1
  O  O658  1  0.16012378  0.81594903  0.70286287  1
  O  O659  1  0.16301128  0.81399248  0.95184892  1
  O  O660  1  0.66257475  0.14895276  0.20262357  1
  O  O661  1  0.66169729  0.14701695  0.45123552  1
  O  O662  1  0.66140890  0.14831561  0.70216376  1
  O  O663  1  0.66133451  0.14787826  0.95370098  1
  O  O664  1  0.66056855  0.48052276  0.20141441  1
  O  O665  1  0.66289157  0.48238686  0.45184196  1
  O  O666  1  0.66310334  0.48103777  0.70266077  1
  O  O667  1  0.66256007  0.48336316  0.95363095  1
  O  O668  1  0.66471980  0.81564794  0.20166661  1
  O  O669  1  0.66458744  0.81607962  0.45198982  1
  O  O670  1  0.66310657  0.81599206  0.70333839  1
  O  O671  1  0.66426188  0.81389677  0.95235388  1
