# generated using pymatgen
data_Na2MnFe(PO4)2
_symmetry_space_group_name_H-M   'P 1'
_cell_length_a   21.07460716
_cell_length_b   18.92563074
_cell_length_c   20.03475471
_cell_angle_alpha   90.00037502
_cell_angle_beta   90.00247574
_cell_angle_gamma   89.99746097
_symmetry_Int_Tables_number   1
_chemical_formula_structural   Na2MnFe(PO4)2
_chemical_formula_sum   'Na96 Mn48 Fe48 P96 O384'
_cell_volume   7990.86657375
_cell_formula_units_Z   48
loop_
 _symmetry_equiv_pos_site_id
 _symmetry_equiv_pos_as_xyz
  1  'x, y, z'
loop_
 _atom_site_type_symbol
 _atom_site_label
 _atom_site_symmetry_multiplicity
 _atom_site_fract_x
 _atom_site_fract_y
 _atom_site_fract_z
 _atom_site_occupancy
  Na  Na0  1  0.00188326  0.00107196  0.00084435  1
  Na  Na1  1  0.00113124  0.00093981  0.24978309  1
  Na  Na2  1  -0.00003520  0.00070959  0.49964222  1
  Na  Na3  1  0.00027763  0.00068193  0.74980411  1
  Na  Na4  1  0.00314996  0.33376788  0.00068272  1
  Na  Na5  1  0.00327601  0.33333610  0.25087225  1
  Na  Na6  1  0.00276088  0.33414642  0.49993050  1
  Na  Na7  1  0.00202013  0.33385171  0.74982732  1
  Na  Na8  1  -0.00107047  0.66597597  -0.00011497  1
  Na  Na9  1  0.00323785  0.66703916  0.24938094  1
  Na  Na10  1  0.00111712  0.66671455  0.49956401  1
  Na  Na11  1  -0.00323164  0.66515068  0.75117356  1
  Na  Na12  1  0.50070039  0.00050408  -0.00047107  1
  Na  Na13  1  0.50076900  0.00078958  0.25116850  1
  Na  Na14  1  0.50138216  0.00096388  0.49998012  1
  Na  Na15  1  0.50102437  0.00042621  0.74908266  1
  Na  Na16  1  0.49914977  0.33351640  0.00067411  1
  Na  Na17  1  0.49820248  0.33314313  0.25053743  1
  Na  Na18  1  0.49809971  0.33321522  0.49878647  1
  Na  Na19  1  0.49841869  0.33298814  0.75000201  1
  Na  Na20  1  0.50203384  0.66753896  0.00003663  1
  Na  Na21  1  0.49883229  0.66627137  0.25038259  1
  Na  Na22  1  0.49861344  0.66588071  0.50065196  1
  Na  Na23  1  0.50116506  0.66701979  0.74859388  1
  Na  Na24  1  0.24753984  -0.00015506  0.12395559  1
  Na  Na25  1  0.24809250  0.00030000  0.37581898  1
  Na  Na26  1  0.25021257  0.00042737  0.62534482  1
  Na  Na27  1  0.25027942  0.00052879  0.87565731  1
  Na  Na28  1  0.24870496  0.33239338  0.12474629  1
  Na  Na29  1  0.25080837  0.33405790  0.37577163  1
  Na  Na30  1  0.24930102  0.33277046  0.62555907  1
  Na  Na31  1  0.25034200  0.33347193  0.87390995  1
  Na  Na32  1  0.24776749  0.66590767  0.12530930  1
  Na  Na33  1  0.24758683  0.66570923  0.37479414  1
  Na  Na34  1  0.25106046  0.66717899  0.62554223  1
  Na  Na35  1  0.24891458  0.66591660  0.87382677  1
  Na  Na36  1  0.74984212  0.00035124  0.12446943  1
  Na  Na37  1  0.75067586  0.00089931  0.37481642  1
  Na  Na38  1  0.74857923  0.00000964  0.62470463  1
  Na  Na39  1  0.74801972  -0.00014807  0.87575012  1
  Na  Na40  1  0.74751631  0.33231439  0.12504348  1
  Na  Na41  1  0.75051587  0.33370627  0.37490033  1
  Na  Na42  1  0.74874241  0.33285098  0.62495174  1
  Na  Na43  1  0.74911417  0.33371921  0.87518755  1
  Na  Na44  1  0.75135342  0.66675230  0.12437425  1
  Na  Na45  1  0.75061891  0.66596351  0.37521247  1
  Na  Na46  1  0.75292708  0.66709418  0.62556686  1
  Na  Na47  1  0.75095952  0.66620520  0.87436423  1
  Na  Na48  1  0.00288806  0.16608025  0.00088201  1
  Na  Na49  1  0.00219701  0.16657572  0.25088799  1
  Na  Na50  1  0.00231631  0.16566297  0.49912374  1
  Na  Na51  1  0.00133561  0.16639604  0.74998413  1
  Na  Na52  1  0.00185798  0.49946702  0.00054009  1
  Na  Na53  1  0.00369688  0.49885878  0.25092525  1
  Na  Na54  1  0.00095484  0.49972287  0.49959225  1
  Na  Na55  1  0.00029869  0.49950036  0.75004915  1
  Na  Na56  1  -0.00138121  0.83415013  -0.00009330  1
  Na  Na57  1  0.00154557  0.83360180  0.24818535  1
  Na  Na58  1  0.00060384  0.83342496  0.50037044  1
  Na  Na59  1  -0.00244213  0.83408918  0.75100816  1
  Na  Na60  1  0.50168743  0.16521635  -0.00024109  1
  Na  Na61  1  0.49904933  0.16703048  0.25079741  1
  Na  Na62  1  0.49950856  0.16679907  0.49934386  1
  Na  Na63  1  0.49786006  0.16782739  0.75035022  1
  Na  Na64  1  0.49910897  0.49992360  -0.00015569  1
  Na  Na65  1  0.49903848  0.49874150  0.25004946  1
  Na  Na66  1  0.49797651  0.49988977  0.49939147  1
  Na  Na67  1  0.50115932  0.49923277  0.74916993  1
  Na  Na68  1  0.50067338  0.83364641  0.00052511  1
  Na  Na69  1  0.49991155  0.83380455  0.25125240  1
  Na  Na70  1  0.49974785  0.83392508  0.50064647  1
  Na  Na71  1  0.50132590  0.83311537  0.74809819  1
  Na  Na72  1  0.24795778  0.16713760  0.12428778  1
  Na  Na73  1  0.24793888  0.16725052  0.37573523  1
  Na  Na74  1  0.25036950  0.16640642  0.62496008  1
  Na  Na75  1  0.24917024  0.16659410  0.87453651  1
  Na  Na76  1  0.24880842  0.49902685  0.12486644  1
  Na  Na77  1  0.24793639  0.50009415  0.37581024  1
  Na  Na78  1  0.24962747  0.49966648  0.62593832  1
  Na  Na79  1  0.24948280  0.49984523  0.87423503  1
  Na  Na80  1  0.24821608  0.83445864  0.12475860  1
  Na  Na81  1  0.24972345  0.83320061  0.37501633  1
  Na  Na82  1  0.25084332  0.83323309  0.62541973  1
  Na  Na83  1  0.25071442  0.83360021  0.87482075  1
  Na  Na84  1  0.74909789  0.16621514  0.12526973  1
  Na  Na85  1  0.74969384  0.16673223  0.37444005  1
  Na  Na86  1  0.75008377  0.16622607  0.62597435  1
  Na  Na87  1  0.74759709  0.16732901  0.87542321  1
  Na  Na88  1  0.74875809  0.50023835  0.12404434  1
  Na  Na89  1  0.75124666  0.49881357  0.37560748  1
  Na  Na90  1  0.74991203  0.49988198  0.62470140  1
  Na  Na91  1  0.74882661  0.50015820  0.87490356  1
  Na  Na92  1  0.75113550  0.83359661  0.12459598  1
  Na  Na93  1  0.75100591  0.83384344  0.37482606  1
  Na  Na94  1  0.74965521  0.83442105  0.62468085  1
  Na  Na95  1  0.75185320  0.83252232  0.87497828  1
  Mn  Mn96  1  0.35796011  0.74932966  0.00172678  1
  Mn  Mn97  1  0.14212604  0.91645600  0.74835154  1
  Mn  Mn98  1  0.60692948  0.41702797  0.87264868  1
  Mn  Mn99  1  0.60760651  0.08470229  0.62247938  1
  Mn  Mn100  1  0.60776958  0.74989335  0.37306939  1
  Mn  Mn101  1  0.35880052  0.75082910  0.75299430  1
  Mn  Mn102  1  0.35724138  0.08346466  0.00224277  1
  Mn  Mn103  1  0.85860415  0.41608842  0.25156060  1
  Mn  Mn104  1  0.85774983  0.41642808  0.75211504  1
  Mn  Mn105  1  0.39160937  0.91707129  0.37717646  1
  Mn  Mn106  1  0.89260814  0.24995001  0.87781594  1
  Mn  Mn107  1  0.14265218  0.24946837  0.74778119  1
  Mn  Mn108  1  0.39161944  0.24931764  0.12698541  1
  Mn  Mn109  1  0.35712541  0.08326532  0.50214070  1
  Mn  Mn110  1  0.10719060  0.74992561  0.62315033  1
  Mn  Mn111  1  0.14160736  0.91615158  0.49758587  1
  Mn  Mn112  1  0.64162027  0.25015634  0.24800091  1
  Mn  Mn113  1  0.64184850  0.58337899  0.24805155  1
  Mn  Mn114  1  0.60823780  0.74994740  0.12306361  1
  Mn  Mn115  1  0.89165652  0.91662340  0.62740486  1
  Mn  Mn116  1  0.60698581  0.41641183  0.37311735  1
  Mn  Mn117  1  0.64219122  0.58327988  0.99759314  1
  Mn  Mn118  1  0.39269978  0.91711196  0.62716327  1
  Mn  Mn119  1  0.14141784  0.58404883  0.74745466  1
  Mn  Mn120  1  0.89340488  0.58216244  0.12748700  1
  Mn  Mn121  1  0.89333529  0.24988055  0.37763957  1
  Mn  Mn122  1  0.85816992  0.41605748  0.00270360  1
  Mn  Mn123  1  0.85898184  0.75004835  0.50198121  1
  Mn  Mn124  1  0.89404483  0.58349391  0.37684114  1
  Mn  Mn125  1  0.85914723  0.75020714  0.25270611  1
  Mn  Mn126  1  0.85775646  0.08329909  0.75271722  1
  Mn  Mn127  1  0.39125998  0.58361827  0.12698068  1
  Mn  Mn128  1  0.60835791  0.74901266  0.62184930  1
  Mn  Mn129  1  0.64288095  0.91634611  0.24806561  1
  Mn  Mn130  1  0.85747820  0.08377837  0.00197346  1
  Mn  Mn131  1  0.39292212  0.58392930  0.87748770  1
  Mn  Mn132  1  0.64205180  0.91653197  0.99738110  1
  Mn  Mn133  1  0.35767015  0.41632323  0.75190340  1
  Mn  Mn134  1  0.89322792  0.91769706  0.12709458  1
  Mn  Mn135  1  0.64263438  0.58306805  0.49763375  1
  Mn  Mn136  1  0.39160323  0.91716463  0.12734970  1
  Mn  Mn137  1  0.89278141  0.25043713  0.62656907  1
  Mn  Mn138  1  0.10635541  0.75014932  0.87268224  1
  Mn  Mn139  1  0.89324799  0.25038142  0.12681230  1
  Mn  Mn140  1  0.10833749  0.75021406  0.12121180  1
  Mn  Mn141  1  0.39031145  0.58323715  0.37755457  1
  Mn  Mn142  1  0.64088504  0.25052430  0.74737081  1
  Mn  Mn143  1  0.35675420  0.75025527  0.25249958  1
  Fe  Fe144  1  0.35653088  0.08363647  0.25158290  1
  Fe  Fe145  1  0.14224385  0.91723625  0.24845083  1
  Fe  Fe146  1  0.39222159  0.25038452  0.62586194  1
  Fe  Fe147  1  0.64332223  0.91742557  0.49776264  1
  Fe  Fe148  1  0.14292677  0.25008525  0.99742190  1
  Fe  Fe149  1  0.39237311  0.58277379  0.62659981  1
  Fe  Fe150  1  0.10757903  0.41648864  0.87357024  1
  Fe  Fe151  1  0.85684142  0.75014222  0.75195230  1
  Fe  Fe152  1  0.64286600  0.91598139  0.74892952  1
  Fe  Fe153  1  0.35613348  0.41735124  0.50214362  1
  Fe  Fe154  1  0.60857268  0.75065626  0.87286991  1
  Fe  Fe155  1  0.14276823  0.58310933  0.24781935  1
  Fe  Fe156  1  0.60667321  0.41636981  0.62251315  1
  Fe  Fe157  1  0.39371588  0.91655061  0.87630555  1
  Fe  Fe158  1  0.14319178  0.25051723  0.49860112  1
  Fe  Fe159  1  0.85728080  0.08423235  0.50111595  1
  Fe  Fe160  1  0.64158434  0.25027917  0.99859861  1
  Fe  Fe161  1  0.60735695  0.08377306  0.12406187  1
  Fe  Fe162  1  0.35615393  0.41691471  0.00140591  1
  Fe  Fe163  1  0.64328434  0.58366948  0.74763717  1
  Fe  Fe164  1  0.89233991  0.58258261  0.87704356  1
  Fe  Fe165  1  0.10910901  0.41604702  0.12268324  1
  Fe  Fe166  1  0.10746934  0.41668261  0.62269219  1
  Fe  Fe167  1  0.39141941  0.24933186  0.37671750  1
  Fe  Fe168  1  0.10832047  0.75071010  0.37333281  1
  Fe  Fe169  1  0.89368641  0.91685967  0.37587299  1
  Fe  Fe170  1  0.35674012  0.74943773  0.50101976  1
  Fe  Fe171  1  0.89292637  0.58252741  0.62625029  1
  Fe  Fe172  1  0.89209393  0.91735867  0.87700069  1
  Fe  Fe173  1  0.14264618  0.58325454  0.99724658  1
  Fe  Fe174  1  0.39254652  0.24941669  0.87735466  1
  Fe  Fe175  1  0.60638687  0.08286105  0.87300784  1
  Fe  Fe176  1  0.85790972  0.08381605  0.25177605  1
  Fe  Fe177  1  0.10772007  0.08351391  0.62321085  1
  Fe  Fe178  1  0.64223296  0.24978254  0.49832396  1
  Fe  Fe179  1  0.14257212  0.91631551  0.99668144  1
  Fe  Fe180  1  0.60633002  0.41620002  0.12360976  1
  Fe  Fe181  1  0.10731359  0.08284263  0.37268604  1
  Fe  Fe182  1  0.14352476  0.24973569  0.24852576  1
  Fe  Fe183  1  0.35615216  0.41598513  0.25127843  1
  Fe  Fe184  1  0.10849126  0.41641244  0.37347500  1
  Fe  Fe185  1  0.85810961  0.41572068  0.50192535  1
  Fe  Fe186  1  0.10796184  0.08385512  0.12346192  1
  Fe  Fe187  1  0.85719746  0.74981122  0.00121747  1
  Fe  Fe188  1  0.10741585  0.08323096  0.87304801  1
  Fe  Fe189  1  0.60746908  0.08371465  0.37327952  1
  Fe  Fe190  1  0.14258178  0.58330353  0.49950633  1
  Fe  Fe191  1  0.35743310  0.08285986  0.75185177  1
  P  P192  1  0.05656739  0.24983535  0.11100350  1
  P  P193  1  0.05637772  0.24996456  0.36115617  1
  P  P194  1  0.05461047  0.24979515  0.60936706  1
  P  P195  1  0.05501078  0.24990177  0.86113046  1
  P  P196  1  0.05633354  0.58219996  0.11018599  1
  P  P197  1  0.05663773  0.58329927  0.36104349  1
  P  P198  1  0.05250677  0.58282442  0.60961155  1
  P  P199  1  0.05306519  0.58266462  0.86124087  1
  P  P200  1  0.05599070  0.91801568  0.11011469  1
  P  P201  1  0.05317524  0.91694023  0.35934192  1
  P  P202  1  0.05289950  0.91735132  0.61026339  1
  P  P203  1  0.05269651  0.91738647  0.86112285  1
  P  P204  1  0.55334146  0.24988923  0.10996366  1
  P  P205  1  0.55280336  0.24945162  0.36128854  1
  P  P206  1  0.55202667  0.25119439  0.60889063  1
  P  P207  1  0.55261006  0.24953472  0.86127608  1
  P  P208  1  0.55285045  0.58216144  0.11003922  1
  P  P209  1  0.55215316  0.58287493  0.36005883  1
  P  P210  1  0.55335997  0.58203514  0.61059091  1
  P  P211  1  0.55429214  0.58444249  0.85871657  1
  P  P212  1  0.55333685  0.91782008  0.11034553  1
  P  P213  1  0.55476696  0.91769205  0.36154679  1
  P  P214  1  0.55582592  0.91683104  0.61012753  1
  P  P215  1  0.55317523  0.91658356  0.85916061  1
  P  P216  1  0.44700297  0.08339070  0.14090458  1
  P  P217  1  0.44592577  0.08406874  0.38894045  1
  P  P218  1  0.44577462  0.08460969  0.64024954  1
  P  P219  1  0.44615763  0.08273587  0.88859573  1
  P  P220  1  0.44485554  0.41636159  0.13944381  1
  P  P221  1  0.44307001  0.41553776  0.38934048  1
  P  P222  1  0.44570320  0.41646285  0.63827644  1
  P  P223  1  0.44531758  0.41601758  0.89066056  1
  P  P224  1  0.44660534  0.75025255  0.14053456  1
  P  P225  1  0.44563242  0.75016298  0.39121224  1
  P  P226  1  0.44522720  0.74910853  0.63832089  1
  P  P227  1  0.44909091  0.75115188  0.88980382  1
  P  P228  1  0.94789568  0.08429882  0.14062937  1
  P  P229  1  0.94650983  0.08276108  0.38905705  1
  P  P230  1  0.94673641  0.08403510  0.63879033  1
  P  P231  1  0.94810167  0.08309066  0.89038997  1
  P  P232  1  0.94979912  0.41606804  0.14040011  1
  P  P233  1  0.94829590  0.41631696  0.39042189  1
  P  P234  1  0.94711919  0.41686411  0.63869965  1
  P  P235  1  0.94809744  0.41678144  0.89029106  1
  P  P236  1  0.94618269  0.74981663  0.13853743  1
  P  P237  1  0.94925773  0.75111337  0.38945734  1
  P  P238  1  0.94575164  0.74892103  0.64097701  1
  P  P239  1  0.94383694  0.75004184  0.88939225  1
  P  P240  1  0.19594956  0.08352897  0.23582308  1
  P  P241  1  0.19437942  0.08413761  0.48578357  1
  P  P242  1  0.19630101  0.08297462  0.73550864  1
  P  P243  1  0.19448323  0.08345207  0.98529167  1
  P  P244  1  0.19601443  0.41584251  0.23603387  1
  P  P245  1  0.19573237  0.41683525  0.48645406  1
  P  P246  1  0.19448289  0.41660421  0.73530810  1
  P  P247  1  0.19597763  0.41641877  0.98492224  1
  P  P248  1  0.19482422  0.75063042  0.23593440  1
  P  P249  1  0.19700472  0.74901330  0.48508938  1
  P  P250  1  0.19681238  0.75041938  0.73493967  1
  P  P251  1  0.19664497  0.74979596  0.98407555  1
  P  P252  1  0.69637267  0.08328519  0.23554870  1
  P  P253  1  0.69684309  0.08423581  0.48450428  1
  P  P254  1  0.69496508  0.08247453  0.73633665  1
  P  P255  1  0.69406432  0.08434996  0.98562063  1
  P  P256  1  0.69594396  0.41672261  0.23425374  1
  P  P257  1  0.69673775  0.41552994  0.48614569  1
  P  P258  1  0.69539895  0.41757572  0.73403875  1
  P  P259  1  0.69511502  0.41571936  0.98602077  1
  P  P260  1  0.69778149  0.75000275  0.23478171  1
  P  P261  1  0.69766946  0.75045900  0.48481803  1
  P  P262  1  0.69670466  0.75001612  0.73598953  1
  P  P263  1  0.69742649  0.74993940  0.98395726  1
  P  P264  1  0.30303045  0.25054331  0.01340256  1
  P  P265  1  0.30255818  0.24940290  0.26524469  1
  P  P266  1  0.30351699  0.25078942  0.51442963  1
  P  P267  1  0.30555569  0.24893562  0.76427071  1
  P  P268  1  0.30165717  0.58256213  0.01453064  1
  P  P269  1  0.30123715  0.58229116  0.26474165  1
  P  P270  1  0.30214921  0.58311739  0.51574669  1
  P  P271  1  0.30441294  0.58309721  0.76414839  1
  P  P272  1  0.30320127  0.91657329  0.01360162  1
  P  P273  1  0.30134500  0.91821054  0.26486703  1
  P  P274  1  0.30289324  0.91605967  0.51516102  1
  P  P275  1  0.30430544  0.91791535  0.76596818  1
  P  P276  1  0.80170434  0.24980088  0.01541620  1
  P  P277  1  0.80379952  0.24937468  0.26495142  1
  P  P278  1  0.80230292  0.24959107  0.51480643  1
  P  P279  1  0.80289073  0.25013799  0.76539391  1
  P  P280  1  0.80500871  0.58350929  0.01383679  1
  P  P281  1  0.80381083  0.58261120  0.26529794  1
  P  P282  1  0.80498923  0.58210266  0.51539329  1
  P  P283  1  0.80431607  0.58329036  0.76414962  1
  P  P284  1  0.80464321  0.91645863  0.01386449  1
  P  P285  1  0.80502000  0.91807433  0.26543148  1
  P  P286  1  0.80405087  0.91822074  0.51318793  1
  P  P287  1  0.80274008  0.91651454  0.76557430  1
  O  O288  1  0.06019981  0.24981071  0.18785797  1
  O  O289  1  0.05998260  0.25025781  0.43793434  1
  O  O290  1  0.05706297  0.24957711  0.68621525  1
  O  O291  1  0.05876349  0.25006262  0.93795515  1
  O  O292  1  0.06037830  0.58284908  0.18711159  1
  O  O293  1  0.05982111  0.58335838  0.43788848  1
  O  O294  1  0.05545972  0.58335727  0.68640929  1
  O  O295  1  0.05815264  0.58347017  0.93792173  1
  O  O296  1  0.05972954  0.91730743  0.18695219  1
  O  O297  1  0.05609050  0.91685852  0.43613647  1
  O  O298  1  0.05590014  0.91684579  0.68704716  1
  O  O299  1  0.05764978  0.91649855  0.93782292  1
  O  O300  1  0.55575900  0.25019563  0.18682777  1
  O  O301  1  0.55788115  0.25007062  0.43792928  1
  O  O302  1  0.55542518  0.25061607  0.68568926  1
  O  O303  1  0.55721841  0.25012182  0.93791746  1
  O  O304  1  0.55547959  0.58254384  0.18683580  1
  O  O305  1  0.55592326  0.58275950  0.43686289  1
  O  O306  1  0.55865665  0.58314821  0.68721899  1
  O  O307  1  0.55703482  0.58369647  0.93557560  1
  O  O308  1  0.55644043  0.91713803  0.18716389  1
  O  O309  1  0.55921982  0.91720205  0.43833474  1
  O  O310  1  0.55999383  0.91643447  0.68692768  1
  O  O311  1  0.55624671  0.91639426  0.93588751  1
  O  O312  1  0.44286433  0.08328373  0.06414288  1
  O  O313  1  0.44075936  0.08341146  0.31228476  1
  O  O314  1  0.44274906  0.08353137  0.56341350  1
  O  O315  1  0.44192646  0.08307379  0.81192414  1
  O  O316  1  0.43983082  0.41657226  0.06274769  1
  O  O317  1  0.43880738  0.41636122  0.31250339  1
  O  O318  1  0.44087973  0.41681682  0.56157269  1
  O  O319  1  0.44282304  0.41671364  0.81379423  1
  O  O320  1  0.44343473  0.75010547  0.06368986  1
  O  O321  1  0.44229216  0.75021600  0.31435480  1
  O  O322  1  0.44035100  0.74959862  0.56163174  1
  O  O323  1  0.44534591  0.75042767  0.81304563  1
  O  O324  1  0.94354446  0.08426996  0.06392339  1
  O  O325  1  0.94198831  0.08401579  0.31238474  1
  O  O326  1  0.94160562  0.08411983  0.56211467  1
  O  O327  1  0.94423690  0.08357577  0.81361878  1
  O  O328  1  0.94505756  0.41598840  0.06371784  1
  O  O329  1  0.94439926  0.41595407  0.31372052  1
  O  O330  1  0.94216458  0.41591186  0.56201807  1
  O  O331  1  0.94416702  0.41623757  0.81354530  1
  O  O332  1  0.94149289  0.74982475  0.06176937  1
  O  O333  1  0.94595275  0.75033746  0.31271067  1
  O  O334  1  0.94375340  0.75006417  0.56405169  1
  O  O335  1  0.94011317  0.75007964  0.81252541  1
  O  O336  1  0.19109435  0.08358414  0.06212611  1
  O  O337  1  0.19167291  0.08314634  0.31259809  1
  O  O338  1  0.19086519  0.08323903  0.56262557  1
  O  O339  1  0.19133727  0.08298109  0.81223632  1
  O  O340  1  0.19247835  0.41609077  0.06175564  1
  O  O341  1  0.19225027  0.41602828  0.31281452  1
  O  O342  1  0.19155959  0.41659527  0.56323287  1
  O  O343  1  0.19039961  0.41683990  0.81211523  1
  O  O344  1  0.19419379  0.75012455  0.06086604  1
  O  O345  1  0.19146721  0.75087098  0.31281562  1
  O  O346  1  0.19353670  0.75005942  0.56180416  1
  O  O347  1  0.19252229  0.75022586  0.81166453  1
  O  O348  1  0.69044396  0.08345195  0.06245243  1
  O  O349  1  0.69142462  0.08368376  0.31223513  1
  O  O350  1  0.69345051  0.08433443  0.56129447  1
  O  O351  1  0.69039379  0.08337007  0.81310528  1
  O  O352  1  0.69055625  0.41633245  0.06272452  1
  O  O353  1  0.69273692  0.41655873  0.31111390  1
  O  O354  1  0.69146064  0.41617296  0.56277658  1
  O  O355  1  0.69225913  0.41663677  0.81087099  1
  O  O356  1  0.69364448  0.75015797  0.06071269  1
  O  O357  1  0.69409453  0.74998164  0.31155764  1
  O  O358  1  0.69473752  0.74977191  0.56169817  1
  O  O359  1  0.69243305  0.74995173  0.81270213  1
  O  O360  1  0.30570157  0.24911901  0.18845695  1
  O  O361  1  0.30762486  0.24973878  0.43769936  1
  O  O362  1  0.30917906  0.24985506  0.68743728  1
  O  O363  1  0.30803614  0.24953869  0.93672304  1
  O  O364  1  0.30483095  0.58270086  0.18803477  1
  O  O365  1  0.30486623  0.58299464  0.43893287  1
  O  O366  1  0.30902110  0.58294176  0.68738933  1
  O  O367  1  0.30586627  0.58339317  0.93780886  1
  O  O368  1  0.30480406  0.91797595  0.18811532  1
  O  O369  1  0.30571548  0.91699764  0.43834493  1
  O  O370  1  0.30735377  0.91722007  0.68916832  1
  O  O371  1  0.30913681  0.91667334  0.93701892  1
  O  O372  1  0.80712014  0.24981748  0.18819866  1
  O  O373  1  0.80633161  0.24992729  0.43811187  1
  O  O374  1  0.80694761  0.24998884  0.68863761  1
  O  O375  1  0.80593730  0.25007112  0.93868769  1
  O  O376  1  0.80710572  0.58251188  0.18845101  1
  O  O377  1  0.80840751  0.58246094  0.43859150  1
  O  O378  1  0.80910338  0.58218919  0.68745329  1
  O  O379  1  0.80893989  0.58213999  0.93699567  1
  O  O380  1  0.80785382  0.91750317  0.18857357  1
  O  O381  1  0.80930292  0.91726483  0.43657810  1
  O  O382  1  0.80605247  0.91763044  0.68874681  1
  O  O383  1  0.80857257  0.91768604  0.93705852  1
  O  O384  1  0.23266080  0.24998445  0.03695193  1
  O  O385  1  0.23251019  0.24994064  0.29005806  1
  O  O386  1  0.23318900  0.25015750  0.53844907  1
  O  O387  1  0.23544983  0.24972897  0.78836578  1
  O  O388  1  0.23157900  0.58258615  0.03893396  1
  O  O389  1  0.23115990  0.58270987  0.28937615  1
  O  O390  1  0.23212759  0.58294786  0.54083248  1
  O  O391  1  0.23421074  0.58302409  0.78776952  1
  O  O392  1  0.23259762  0.91697376  0.03642262  1
  O  O393  1  0.23136886  0.91744582  0.28980207  1
  O  O394  1  0.23324401  0.91662252  0.54051491  1
  O  O395  1  0.23452491  0.91706826  0.79091575  1
  O  O396  1  0.73163366  0.24941586  0.03971827  1
  O  O397  1  0.73398658  0.25008505  0.28985355  1
  O  O398  1  0.73226460  0.24936546  0.53960952  1
  O  O399  1  0.73289455  0.25056298  0.78958580  1
  O  O400  1  0.73497054  0.58354054  0.03800187  1
  O  O401  1  0.73419915  0.58242930  0.29063589  1
  O  O402  1  0.73511792  0.58323798  0.54014306  1
  O  O403  1  0.73385348  0.58313853  0.78772029  1
  O  O404  1  0.73468489  0.91696866  0.03825204  1
  O  O405  1  0.73532113  0.91738396  0.29050204  1
  O  O406  1  0.73365612  0.91799697  0.53696387  1
  O  O407  1  0.73267989  0.91624323  0.79022152  1
  O  O408  1  0.26615354  0.08382451  0.21129228  1
  O  O409  1  0.26442007  0.08366073  0.46151827  1
  O  O410  1  0.26670584  0.08330678  0.71204741  1
  O  O411  1  0.26455932  0.08355778  0.96098159  1
  O  O412  1  0.26626234  0.41548476  0.21152163  1
  O  O413  1  0.26604351  0.41715942  0.46243347  1
  O  O414  1  0.26465085  0.41620918  0.71159836  1
  O  O415  1  0.26611852  0.41655121  0.96029996  1
  O  O416  1  0.26459533  0.75044857  0.21077698  1
  O  O417  1  0.26700550  0.74929084  0.46015885  1
  O  O418  1  0.26675377  0.75054258  0.71083708  1
  O  O419  1  0.26617247  0.74961863  0.95826005  1
  O  O420  1  0.76677850  0.08331608  0.21190936  1
  O  O421  1  0.76694587  0.08412910  0.45983750  1
  O  O422  1  0.76500563  0.08287794  0.71211755  1
  O  O423  1  0.76413013  0.08373754  0.96122411  1
  O  O424  1  0.76572505  0.41620264  0.20920542  1
  O  O425  1  0.76720824  0.41588975  0.46258448  1
  O  O426  1  0.76528912  0.41649296  0.70939322  1
  O  O427  1  0.76516272  0.41648753  0.96170885  1
  O  O428  1  0.76752448  0.75027764  0.20987709  1
  O  O429  1  0.76742315  0.74984647  0.45962859  1
  O  O430  1  0.76700478  0.75028931  0.71182509  1
  O  O431  1  0.76752600  0.74953390  0.95967981  1
  O  O432  1  0.01825795  0.08404205  0.16432446  1
  O  O433  1  0.01707461  0.08324738  0.41236567  1
  O  O434  1  0.01716215  0.08396392  0.66240014  1
  O  O435  1  0.01815989  0.08344034  0.91489859  1
  O  O436  1  0.02003118  0.41593505  0.16423566  1
  O  O437  1  0.01870201  0.41658136  0.41414317  1
  O  O438  1  0.01752052  0.41656819  0.66233257  1
  O  O439  1  0.01823804  0.41654689  0.91469231  1
  O  O440  1  0.01638356  0.75003869  0.16204975  1
  O  O441  1  0.01921043  0.75056343  0.41451438  1
  O  O442  1  0.01519460  0.74959655  0.66701363  1
  O  O443  1  0.01386160  0.75007910  0.91392686  1
  O  O444  1  0.51718935  0.08412625  0.16502034  1
  O  O445  1  0.51625328  0.08407051  0.41274456  1
  O  O446  1  0.51561292  0.08445390  0.66502197  1
  O  O447  1  0.51642479  0.08273616  0.91279358  1
  O  O448  1  0.51525236  0.41574245  0.16302318  1
  O  O449  1  0.51327456  0.41631852  0.41313449  1
  O  O450  1  0.51590495  0.41603243  0.66248674  1
  O  O451  1  0.51506317  0.41651452  0.91570190  1
  O  O452  1  0.51624501  0.75006496  0.16579239  1
  O  O453  1  0.51537683  0.75014684  0.41618354  1
  O  O454  1  0.51553924  0.74966239  0.66181744  1
  O  O455  1  0.51911401  0.75085134  0.91448230  1
  O  O456  1  0.48365547  0.24937023  0.08451885  1
  O  O457  1  0.48243709  0.24973356  0.33752061  1
  O  O458  1  0.48193210  0.25036481  0.58438786  1
  O  O459  1  0.48226680  0.24998267  0.83734766  1
  O  O460  1  0.48330970  0.58328066  0.08424009  1
  O  O461  1  0.48227594  0.58263741  0.33544643  1
  O  O462  1  0.48292628  0.58242044  0.58703778  1
  O  O463  1  0.48455146  0.58343948  0.83352141  1
  O  O464  1  0.48370603  0.91738583  0.08488932  1
  O  O465  1  0.48469176  0.91725147  0.33741849  1
  O  O466  1  0.48558539  0.91730206  0.58643511  1
  O  O467  1  0.48327539  0.91675569  0.83388049  1
  O  O468  1  0.98663218  0.24988483  0.08628356  1
  O  O469  1  0.98635496  0.24976234  0.33672311  1
  O  O470  1  0.98505063  0.24996042  0.58364852  1
  O  O471  1  0.98525322  0.24988524  0.83606948  1
  O  O472  1  0.98625979  0.58275297  0.08621277  1
  O  O473  1  0.98676833  0.58300087  0.33594827  1
  O  O474  1  0.98265338  0.58315675  0.58443483  1
  O  O475  1  0.98264188  0.58268698  0.83769994  1
  O  O476  1  0.98586737  0.91759648  0.08609765  1
  O  O477  1  0.98335655  0.91730762  0.33395321  1
  O  O478  1  0.98325313  0.91702427  0.58491492  1
  O  O479  1  0.98235559  0.91730834  0.83734163  1
  O  O480  1  0.09054836  0.31484175  0.07800318  1
  O  O481  1  0.09009499  0.31505558  0.32814190  1
  O  O482  1  0.08915784  0.31494343  0.57731539  1
  O  O483  1  0.08887315  0.31499690  0.82839690  1
  O  O484  1  0.09012133  0.64701822  0.07672590  1
  O  O485  1  0.09029848  0.64844407  0.32819162  1
  O  O486  1  0.08690659  0.64777866  0.57707985  1
  O  O487  1  0.08596726  0.64780254  0.82740018  1
  O  O488  1  0.08940311  0.98337871  0.07763072  1
  O  O489  1  0.08756034  0.98205320  0.32696032  1
  O  O490  1  0.08698961  0.98239934  0.57792320  1
  O  O491  1  0.08619992  0.98253945  0.82817142  1
  O  O492  1  0.58739421  0.31504713  0.07742415  1
  O  O493  1  0.58603331  0.31449143  0.32771514  1
  O  O494  1  0.58582734  0.31624344  0.57611830  1
  O  O495  1  0.58591625  0.31453736  0.82762875  1
  O  O496  1  0.58787628  0.64695029  0.07788594  1
  O  O497  1  0.58601200  0.64812313  0.32764753  1
  O  O498  1  0.58683183  0.64690529  0.57685402  1
  O  O499  1  0.58818483  0.64979241  0.82651335  1
  O  O500  1  0.58717390  0.98321719  0.07827290  1
  O  O501  1  0.58806140  0.98305621  0.32871089  1
  O  O502  1  0.58946088  0.98197770  0.57721211  1
  O  O503  1  0.58739829  0.98172154  0.82678864  1
  O  O504  1  0.41337856  0.01834835  0.17398025  1
  O  O505  1  0.41268562  0.01910852  0.42269567  1
  O  O506  1  0.41161537  0.01970110  0.67318267  1
  O  O507  1  0.41299784  0.01742898  0.92178356  1
  O  O508  1  0.41117413  0.35136289  0.17275623  1
  O  O509  1  0.40984425  0.35018240  0.42218293  1
  O  O510  1  0.41215017  0.35121513  0.67119994  1
  O  O511  1  0.41114362  0.35089678  0.92286933  1
  O  O512  1  0.41215524  0.68519138  0.17275004  1
  O  O513  1  0.41125736  0.68502985  0.42346590  1
  O  O514  1  0.41223445  0.68386779  0.67159061  1
  O  O515  1  0.41509353  0.68605021  0.92266173  1
  O  O516  1  0.91407428  0.01931437  0.17356326  1
  O  O517  1  0.91344770  0.01744119  0.42208903  1
  O  O518  1  0.91341084  0.01897085  0.67225821  1
  O  O519  1  0.91429766  0.01797685  0.92297575  1
  O  O520  1  0.91614856  0.35102182  0.17335948  1
  O  O521  1  0.91472995  0.35128077  0.42371390  1
  O  O522  1  0.91387031  0.35198597  0.67254786  1
  O  O523  1  0.91448433  0.35170037  0.92344209  1
  O  O524  1  0.91321104  0.68469643  0.17205875  1
  O  O525  1  0.91509418  0.68618894  0.42220186  1
  O  O526  1  0.91154618  0.68343246  0.67240114  1
  O  O527  1  0.91026701  0.68477260  0.92213917  1
  O  O528  1  0.16225337  0.01866196  0.20247912  1
  O  O529  1  0.16032675  0.01937062  0.45239980  1
  O  O530  1  0.16285690  0.01800276  0.70216248  1
  O  O531  1  0.16077570  0.01834412  0.95223656  1
  O  O532  1  0.16254409  0.35069278  0.20296018  1
  O  O533  1  0.16261922  0.35171697  0.45287226  1
  O  O534  1  0.16085879  0.35158564  0.70226605  1
  O  O535  1  0.16230971  0.35135625  0.95183091  1
  O  O536  1  0.16101071  0.68535643  0.20349914  1
  O  O537  1  0.16313384  0.68373854  0.45295747  1
  O  O538  1  0.16309479  0.68532408  0.70207089  1
  O  O539  1  0.16224183  0.68453161  0.95219106  1
  O  O540  1  0.66294815  0.01827690  0.20217969  1
  O  O541  1  0.66275309  0.01927392  0.45174443  1
  O  O542  1  0.66175620  0.01713326  0.70360823  1
  O  O543  1  0.65999559  0.01954054  0.95231137  1
  O  O544  1  0.66121599  0.35180630  0.20196168  1
  O  O545  1  0.66352656  0.35028339  0.45290026  1
  O  O546  1  0.66045935  0.35299423  0.70125857  1
  O  O547  1  0.66187602  0.35028436  0.95308678  1
  O  O548  1  0.66386171  0.68485391  0.20221752  1
  O  O549  1  0.66327733  0.68542560  0.45253062  1
  O  O550  1  0.66356257  0.68473525  0.70257063  1
  O  O551  1  0.66319788  0.68514481  0.95112227  1
  O  O552  1  0.33588092  0.31585362  0.04660348  1
  O  O553  1  0.33681310  0.31432614  0.29772359  1
  O  O554  1  0.33664618  0.31613021  0.54745813  1
  O  O555  1  0.33954382  0.31370374  0.79758153  1
  O  O556  1  0.33532913  0.64761827  0.04765245  1
  O  O557  1  0.33499502  0.64738777  0.29758550  1
  O  O558  1  0.33638658  0.64816466  0.54799286  1
  O  O559  1  0.33781199  0.64819111  0.79739813  1
  O  O560  1  0.33616438  0.98168038  0.04742860  1
  O  O561  1  0.33492555  0.98340049  0.29764910  1
  O  O562  1  0.33730516  0.98103763  0.54762858  1
  O  O563  1  0.33796846  0.98330646  0.79830309  1
  O  O564  1  0.83551421  0.31484200  0.04842186  1
  O  O565  1  0.83820993  0.31419849  0.29767098  1
  O  O566  1  0.83621843  0.31465219  0.54773342  1
  O  O567  1  0.83689414  0.31522998  0.79800146  1
  O  O568  1  0.83860628  0.64891712  0.04611420  1
  O  O569  1  0.83800670  0.64782422  0.29760349  1
  O  O570  1  0.83975195  0.64689137  0.54788406  1
  O  O571  1  0.83763448  0.64857562  0.79701266  1
  O  O572  1  0.83849313  0.98132568  0.04720338  1
  O  O573  1  0.83893602  0.98341700  0.29759521  1
  O  O574  1  0.83697094  0.98362448  0.54642374  1
  O  O575  1  0.83662377  0.98142992  0.79885619  1
  O  O576  1  0.41263996  0.14827245  0.17361163  1
  O  O577  1  0.41244042  0.14922958  0.42204616  1
  O  O578  1  0.41167722  0.14987070  0.67216511  1
  O  O579  1  0.41271819  0.14770759  0.92222042  1
  O  O580  1  0.41155710  0.48139157  0.17300699  1
  O  O581  1  0.40904309  0.48024165  0.42292106  1
  O  O582  1  0.41242512  0.48145618  0.67187696  1
  O  O583  1  0.41089157  0.48098617  0.92322617  1
  O  O584  1  0.41255393  0.81546387  0.17285423  1
  O  O585  1  0.41123594  0.81512540  0.42360842  1
  O  O586  1  0.41203608  0.81427424  0.67181882  1
  O  O587  1  0.41513877  0.81629883  0.92221052  1
  O  O588  1  0.91438815  0.14931985  0.17379663  1
  O  O589  1  0.91302193  0.14748479  0.42318000  1
  O  O590  1  0.91357540  0.14904432  0.67242046  1
  O  O591  1  0.91433366  0.14814843  0.92337417  1
  O  O592  1  0.91635992  0.48119117  0.17342185  1
  O  O593  1  0.91438055  0.48125207  0.42320131  1
  O  O594  1  0.91404206  0.48218660  0.67179687  1
  O  O595  1  0.91437405  0.48187913  0.92294998  1
  O  O596  1  0.91293972  0.81506199  0.17161332  1
  O  O597  1  0.91545854  0.81637720  0.42183562  1
  O  O598  1  0.91061383  0.81362715  0.67327003  1
  O  O599  1  0.91015033  0.81522548  0.92219748  1
  O  O600  1  0.09035520  0.18472506  0.07811685  1
  O  O601  1  0.09018297  0.18482735  0.32825250  1
  O  O602  1  0.08909302  0.18484271  0.57710440  1
  O  O603  1  0.08883020  0.18463235  0.82843918  1
  O  O604  1  0.08977046  0.51681211  0.07761725  1
  O  O605  1  0.09059887  0.51802491  0.32847828  1
  O  O606  1  0.08685568  0.51787915  0.57718326  1
  O  O607  1  0.08649505  0.51761271  0.82818115  1
  O  O608  1  0.08974742  0.85320538  0.07652491  1
  O  O609  1  0.08739728  0.85195245  0.32687859  1
  O  O610  1  0.08701695  0.85216950  0.57782256  1
  O  O611  1  0.08583390  0.85235448  0.82742385  1
  O  O612  1  0.58794656  0.18485432  0.07796982  1
  O  O613  1  0.58619442  0.18431570  0.32810559  1
  O  O614  1  0.58643785  0.18633081  0.57613727  1
  O  O615  1  0.58570233  0.18436239  0.82791850  1
  O  O616  1  0.58642259  0.51663448  0.07778134  1
  O  O617  1  0.58614508  0.51779872  0.32758022  1
  O  O618  1  0.58627882  0.51666597  0.57734746  1
  O  O619  1  0.58900829  0.51960452  0.82627391  1
  O  O620  1  0.58783086  0.85292569  0.07771831  1
  O  O621  1  0.58840844  0.85270631  0.32827871  1
  O  O622  1  0.58936850  0.85187896  0.57678475  1
  O  O623  1  0.58747601  0.85161623  0.82642804  1
  O  O624  1  0.33637373  0.18568947  0.04727807  1
  O  O625  1  0.33626114  0.18429931  0.29826180  1
  O  O626  1  0.33745239  0.18611068  0.54793286  1
  O  O627  1  0.33874002  0.18357852  0.79722159  1
  O  O628  1  0.33527763  0.51731346  0.04713364  1
  O  O629  1  0.33467078  0.51709460  0.29742869  1
  O  O630  1  0.33640514  0.51808979  0.54835030  1
  O  O631  1  0.33768663  0.51797442  0.79731602  1
  O  O632  1  0.33592991  0.85138570  0.04731732  1
  O  O633  1  0.33569998  0.85326973  0.29734591  1
  O  O634  1  0.33684562  0.85075261  0.54709900  1
  O  O635  1  0.33914147  0.85325910  0.79872280  1
  O  O636  1  0.83580345  0.18478275  0.04799518  1
  O  O637  1  0.83749450  0.18400624  0.29739210  1
  O  O638  1  0.83621369  0.18435389  0.54733599  1
  O  O639  1  0.83645928  0.18494746  0.79829470  1
  O  O640  1  0.83860785  0.51862837  0.04747085  1
  O  O641  1  0.83820149  0.51758811  0.29755869  1
  O  O642  1  0.83849878  0.51669513  0.54806473  1
  O  O643  1  0.83771242  0.51840462  0.79812353  1
  O  O644  1  0.83803084  0.85093209  0.04616796  1
  O  O645  1  0.83980957  0.85336447  0.29816625  1
  O  O646  1  0.83727390  0.85314484  0.54689597  1
  O  O647  1  0.83710393  0.85143306  0.79750005  1
  O  O648  1  0.16240382  0.14881602  0.20295906  1
  O  O649  1  0.16100007  0.14939765  0.45304798  1
  O  O650  1  0.16278028  0.14793692  0.70206466  1
  O  O651  1  0.16081402  0.14852175  0.95221316  1
  O  O652  1  0.16256845  0.48083365  0.20270894  1
  O  O653  1  0.16208279  0.48185423  0.45346418  1
  O  O654  1  0.16089023  0.48152445  0.70199544  1
  O  O655  1  0.16212342  0.48149333  0.95205811  1
  O  O656  1  0.16116084  0.81580276  0.20317969  1
  O  O657  1  0.16280996  0.81386398  0.45188833  1
  O  O658  1  0.16297795  0.81550318  0.70227482  1
  O  O659  1  0.16226534  0.81494909  0.95186907  1
  O  O660  1  0.66265234  0.14819811  0.20219539  1
  O  O661  1  0.66274206  0.14933721  0.45182515  1
  O  O662  1  0.66131948  0.14751210  0.70292579  1
  O  O663  1  0.66041079  0.14961265  0.95295438  1
  O  O664  1  0.66177036  0.48170384  0.20168438  1
  O  O665  1  0.66338336  0.48051804  0.45249955  1
  O  O666  1  0.66191359  0.48307849  0.70172245  1
  O  O667  1  0.66129145  0.48059143  0.95263209  1
  O  O668  1  0.66377683  0.81516665  0.20224051  1
  O  O669  1  0.66387979  0.81579309  0.45275226  1
  O  O670  1  0.66314494  0.81507034  0.70297386  1
  O  O671  1  0.66380605  0.81512290  0.95100064  1
