# generated using pymatgen
data_Na2MnFe(PO4)2
_symmetry_space_group_name_H-M   'P 1'
_cell_length_a   21.08732754
_cell_length_b   18.94005536
_cell_length_c   20.04640743
_cell_angle_alpha   90.00057201
_cell_angle_beta   90.00277778
_cell_angle_gamma   90.00208031
_symmetry_Int_Tables_number   1
_chemical_formula_structural   Na2MnFe(PO4)2
_chemical_formula_sum   'Na96 Mn48 Fe48 P96 O384'
_cell_volume   8006.43790870
_cell_formula_units_Z   48
loop_
 _symmetry_equiv_pos_site_id
 _symmetry_equiv_pos_as_xyz
  1  'x, y, z'
loop_
 _atom_site_type_symbol
 _atom_site_label
 _atom_site_symmetry_multiplicity
 _atom_site_fract_x
 _atom_site_fract_y
 _atom_site_fract_z
 _atom_site_occupancy
  Na  Na0  1  0.00146394  0.00051440  -0.00056397  1
  Na  Na1  1  -0.00021831  -0.00105522  0.25019502  1
  Na  Na2  1  0.00061745  0.00008734  0.50074317  1
  Na  Na3  1  -0.00070138  -0.00054600  0.75015517  1
  Na  Na4  1  0.00009222  0.33352647  0.00029563  1
  Na  Na5  1  0.00146376  0.33305283  0.25107615  1
  Na  Na6  1  0.00108692  0.33345734  0.49891742  1
  Na  Na7  1  -0.00291778  0.33229495  0.74976319  1
  Na  Na8  1  0.00132794  0.66780271  0.00009142  1
  Na  Na9  1  0.00069567  0.66740822  0.25056670  1
  Na  Na10  1  -0.00020652  0.66742496  0.49929999  1
  Na  Na11  1  -0.00091810  0.66689589  0.75034905  1
  Na  Na12  1  0.49845994  -0.00014382  0.00084940  1
  Na  Na13  1  0.49897676  -0.00032964  0.25029011  1
  Na  Na14  1  0.49943008  -0.00003893  0.49938824  1
  Na  Na15  1  0.49733466  -0.00088873  0.74900040  1
  Na  Na16  1  0.49940107  0.33283551  -0.00014646  1
  Na  Na17  1  0.49638052  0.33216969  0.25069511  1
  Na  Na18  1  0.49931419  0.33406709  0.49926392  1
  Na  Na19  1  0.50144176  0.33395608  0.74960974  1
  Na  Na20  1  0.49790545  0.66653837  0.00103994  1
  Na  Na21  1  0.49936150  0.66647788  0.24997195  1
  Na  Na22  1  0.50232569  0.66770356  0.49913341  1
  Na  Na23  1  0.50029382  0.66740460  0.75024552  1
  Na  Na24  1  0.25065997  -0.00027690  0.12568590  1
  Na  Na25  1  0.25228297  0.00094384  0.37513585  1
  Na  Na26  1  0.25052851  -0.00069498  0.62429875  1
  Na  Na27  1  0.25263404  0.00063722  0.87443014  1
  Na  Na28  1  0.25050925  0.33376960  0.12550596  1
  Na  Na29  1  0.24895622  0.33304112  0.37434443  1
  Na  Na30  1  0.24877040  0.33286662  0.62387630  1
  Na  Na31  1  0.25055821  0.33391344  0.87597265  1
  Na  Na32  1  0.24951093  0.66759287  0.12601728  1
  Na  Na33  1  0.24821213  0.66674936  0.37582452  1
  Na  Na34  1  0.24886724  0.66661212  0.62412389  1
  Na  Na35  1  0.24959558  0.66787131  0.87486619  1
  Na  Na36  1  0.74921171  -0.00073074  0.12528005  1
  Na  Na37  1  0.75001653  -0.00054904  0.37472233  1
  Na  Na38  1  0.75092669  -0.00013229  0.62417172  1
  Na  Na39  1  0.75101512  0.00050652  0.87545862  1
  Na  Na40  1  0.75073215  0.33315237  0.12517101  1
  Na  Na41  1  0.75137001  0.33390486  0.37537745  1
  Na  Na42  1  0.75170123  0.33349730  0.62459594  1
  Na  Na43  1  0.75167151  0.33310266  0.87453239  1
  Na  Na44  1  0.75050646  0.66736955  0.12615575  1
  Na  Na45  1  0.74975910  0.66729243  0.37539215  1
  Na  Na46  1  0.75047592  0.66733413  0.62487553  1
  Na  Na47  1  0.75121034  0.66716398  0.87386152  1
  Na  Na48  1  -0.00171056  0.16815386  0.00036617  1
  Na  Na49  1  0.00211105  0.16618982  0.25101803  1
  Na  Na50  1  -0.00030602  0.16669882  0.49988007  1
  Na  Na51  1  -0.00275148  0.16718798  0.74937779  1
  Na  Na52  1  0.00177327  0.49941896  -0.00050714  1
  Na  Na53  1  0.00135387  0.50015834  0.25077296  1
  Na  Na54  1  0.00140648  0.49930655  0.49931656  1
  Na  Na55  1  -0.00175859  0.50109931  0.75085168  1
  Na  Na56  1  0.00168395  0.83242982  -0.00026636  1
  Na  Na57  1  0.00013062  0.83300062  0.25039339  1
  Na  Na58  1  0.00060554  0.83248396  0.49983139  1
  Na  Na59  1  0.00057636  0.83252522  0.75013347  1
  Na  Na60  1  0.49820489  0.16676459  -0.00073215  1
  Na  Na61  1  0.49684010  0.16736494  0.24973822  1
  Na  Na62  1  0.49735007  0.16699411  0.49965591  1
  Na  Na63  1  0.49904379  0.16626708  0.74999810  1
  Na  Na64  1  0.50042557  0.49993333  0.00115244  1
  Na  Na65  1  0.49866665  0.50057354  0.25118735  1
  Na  Na66  1  0.50036597  0.50000551  0.49896324  1
  Na  Na67  1  0.50106985  0.50018134  0.74898632  1
  Na  Na68  1  0.49717136  0.83380031  0.00116537  1
  Na  Na69  1  0.49961873  0.83329400  0.25003349  1
  Na  Na70  1  0.50251344  0.83224533  0.49898786  1
  Na  Na71  1  0.49902565  0.83309559  0.75002940  1
  Na  Na72  1  0.25268647  0.16553107  0.12611812  1
  Na  Na73  1  0.24862131  0.16754933  0.37443405  1
  Na  Na74  1  0.25130610  0.16592159  0.62390504  1
  Na  Na75  1  0.25234787  0.16601392  0.87543539  1
  Na  Na76  1  0.24885790  0.50020885  0.12566483  1
  Na  Na77  1  0.25156629  0.49911897  0.37512119  1
  Na  Na78  1  0.24943702  0.50039420  0.62417531  1
  Na  Na79  1  0.24868516  0.50075506  0.87523955  1
  Na  Na80  1  0.24969978  0.83259741  0.12516354  1
  Na  Na81  1  0.24891819  0.83283362  0.37600237  1
  Na  Na82  1  0.24834057  0.83347189  0.62390370  1
  Na  Na83  1  0.24962276  0.83284758  0.87503481  1
  Na  Na84  1  0.75024884  0.16704262  0.12545471  1
  Na  Na85  1  0.75198042  0.16638298  0.37424652  1
  Na  Na86  1  0.75334074  0.16576775  0.62517375  1
  Na  Na87  1  0.75090009  0.16731521  0.87469967  1
  Na  Na88  1  0.75000106  0.50009406  0.12481496  1
  Na  Na89  1  0.74860927  0.50077800  0.37569620  1
  Na  Na90  1  0.75010446  0.50037788  0.62455684  1
  Na  Na91  1  0.75087580  0.49990326  0.87447622  1
  Na  Na92  1  0.75074542  0.83263775  0.12622741  1
  Na  Na93  1  0.74993728  0.83299213  0.37578879  1
  Na  Na94  1  0.74950331  0.83344995  0.62386276  1
  Na  Na95  1  0.75162131  0.83246228  0.87481458  1
  Mn  Mn96  1  0.10760975  0.41626748  0.87217946  1
  Mn  Mn97  1  0.14190575  0.24967130  0.74784676  1
  Mn  Mn98  1  0.64339760  0.24966365  0.74729268  1
  Mn  Mn99  1  0.89373637  0.24926581  0.37689042  1
  Mn  Mn100  1  0.64196520  0.91690794  0.74828022  1
  Mn  Mn101  1  0.85785404  0.08273520  0.00296985  1
  Mn  Mn102  1  0.64184613  0.91664495  0.99732371  1
  Mn  Mn103  1  0.39152604  0.58358529  0.87734789  1
  Mn  Mn104  1  0.60810239  0.08349682  0.62235274  1
  Mn  Mn105  1  0.35843539  0.41704353  0.75202916  1
  Mn  Mn106  1  0.60711199  0.08362827  0.37309649  1
  Mn  Mn107  1  0.89293306  0.91700532  0.12713527  1
  Mn  Mn108  1  0.39110187  0.91680574  0.12796766  1
  Mn  Mn109  1  0.39116735  0.58268275  0.12784965  1
  Mn  Mn110  1  0.35722509  0.74979961  0.50214660  1
  Mn  Mn111  1  0.60841185  0.41682755  0.87278693  1
  Mn  Mn112  1  0.60748368  0.41583414  0.12383310  1
  Mn  Mn113  1  0.39268663  0.58380660  0.62627799  1
  Mn  Mn114  1  0.10833105  0.08367505  0.87262514  1
  Mn  Mn115  1  0.60680612  0.41635616  0.37234210  1
  Mn  Mn116  1  0.14243131  0.24933768  0.99795054  1
  Mn  Mn117  1  0.14265708  0.58318141  0.24801208  1
  Mn  Mn118  1  0.89299893  0.58283771  0.12759715  1
  Mn  Mn119  1  0.14256852  0.91707042  0.24842076  1
  Mn  Mn120  1  0.85826588  0.41705204  0.50231579  1
  Mn  Mn121  1  0.60705534  0.08272072  0.87287327  1
  Mn  Mn122  1  0.64228664  0.58331986  0.99778542  1
  Mn  Mn123  1  0.14178079  0.58336361  0.74700819  1
  Mn  Mn124  1  0.64274290  0.24938455  0.49769501  1
  Mn  Mn125  1  0.10772437  0.08319065  0.62280669  1
  Mn  Mn126  1  0.89259671  0.91678699  0.87758106  1
  Mn  Mn127  1  0.60727611  0.75045046  0.87366350  1
  Mn  Mn128  1  0.85823123  0.08305544  0.25239460  1
  Mn  Mn129  1  0.60753175  0.75000957  0.12292594  1
  Mn  Mn130  1  0.89229121  0.91629483  0.62719171  1
  Mn  Mn131  1  0.89229420  0.58348766  0.37731144  1
  Mn  Mn132  1  0.64287321  0.58350719  0.74757967  1
  Mn  Mn133  1  0.60672600  0.08397483  0.12324387  1
  Mn  Mn134  1  0.64174689  0.25026495  0.24785270  1
  Mn  Mn135  1  0.39233314  0.91575438  0.62594313  1
  Mn  Mn136  1  0.85821163  0.41716678  0.00318312  1
  Mn  Mn137  1  0.39175609  0.25069928  0.62706935  1
  Mn  Mn138  1  0.35744015  0.41728113  0.00264693  1
  Mn  Mn139  1  0.39216728  0.25003102  0.87704895  1
  Mn  Mn140  1  0.14297978  0.91714358  0.74779988  1
  Mn  Mn141  1  0.89246906  0.58337862  0.87776821  1
  Mn  Mn142  1  0.10712363  0.41707107  0.62303538  1
  Mn  Mn143  1  0.10861765  0.08325214  0.12243795  1
  Fe  Fe144  1  0.39154118  0.91594120  0.87689932  1
  Fe  Fe145  1  0.35573065  0.74998628  0.00176560  1
  Fe  Fe146  1  0.60738733  0.75001579  0.37291153  1
  Fe  Fe147  1  0.39191355  0.25036286  0.12663804  1
  Fe  Fe148  1  0.39286754  0.58387997  0.37722347  1
  Fe  Fe149  1  0.35658852  0.41704942  0.25213835  1
  Fe  Fe150  1  0.14334577  0.91652019  0.99830727  1
  Fe  Fe151  1  0.85784311  0.08294528  0.75218572  1
  Fe  Fe152  1  0.14238840  0.24975830  0.49837027  1
  Fe  Fe153  1  0.10760628  0.74969654  0.12334507  1
  Fe  Fe154  1  0.14389274  0.24988732  0.24785921  1
  Fe  Fe155  1  0.64288705  0.58373518  0.49835644  1
  Fe  Fe156  1  0.89300777  0.25067236  0.62620945  1
  Fe  Fe157  1  0.39308558  0.91596452  0.37704355  1
  Fe  Fe158  1  0.85828930  0.75010038  0.00200780  1
  Fe  Fe159  1  0.89297811  0.25048391  0.12718571  1
  Fe  Fe160  1  0.14224554  0.91703543  0.49746659  1
  Fe  Fe161  1  0.35741015  0.75011794  0.75140121  1
  Fe  Fe162  1  0.10754333  0.41686420  0.12374151  1
  Fe  Fe163  1  0.10772262  0.08266243  0.37377116  1
  Fe  Fe164  1  0.39103939  0.25017879  0.37722694  1
  Fe  Fe165  1  0.14248169  0.58402862  0.99862331  1
  Fe  Fe166  1  0.85809495  0.41744850  0.25138241  1
  Fe  Fe167  1  0.60828125  0.74983051  0.62347904  1
  Fe  Fe168  1  0.85678447  0.75019327  0.50186289  1
  Fe  Fe169  1  0.14191020  0.58304056  0.49814565  1
  Fe  Fe170  1  0.89261449  0.91674984  0.37669146  1
  Fe  Fe171  1  0.35704512  0.08303349  0.25288354  1
  Fe  Fe172  1  0.35779926  0.08287648  0.75143510  1
  Fe  Fe173  1  0.35732044  0.08286879  0.00205703  1
  Fe  Fe174  1  0.85742832  0.41672678  0.75124252  1
  Fe  Fe175  1  0.85761295  0.75030989  0.75145564  1
  Fe  Fe176  1  0.60834810  0.41697247  0.62265528  1
  Fe  Fe177  1  0.10694904  0.74966048  0.62353322  1
  Fe  Fe178  1  0.35624532  0.08350875  0.50105974  1
  Fe  Fe179  1  0.89251140  0.58322152  0.62584337  1
  Fe  Fe180  1  0.85826671  0.08258951  0.50119898  1
  Fe  Fe181  1  0.64271620  0.58345788  0.24883544  1
  Fe  Fe182  1  0.64267696  0.24991431  0.99845473  1
  Fe  Fe183  1  0.89234058  0.24983335  0.87745455  1
  Fe  Fe184  1  0.10634470  0.75049477  0.37339237  1
  Fe  Fe185  1  0.64295825  0.91640757  0.24887788  1
  Fe  Fe186  1  0.64313448  0.91679056  0.49774158  1
  Fe  Fe187  1  0.10751512  0.75009122  0.87283485  1
  Fe  Fe188  1  0.35696064  0.74987267  0.25256560  1
  Fe  Fe189  1  0.85745864  0.74973809  0.25197205  1
  Fe  Fe190  1  0.35624826  0.41659328  0.50168490  1
  Fe  Fe191  1  0.10826478  0.41681166  0.37287813  1
  P  P192  1  0.05388218  0.25082057  0.11156491  1
  P  P193  1  0.05677833  0.24944527  0.36081708  1
  P  P194  1  0.05255822  0.25001571  0.60935544  1
  P  P195  1  0.05177272  0.24971944  0.85967585  1
  P  P196  1  0.05441699  0.58342322  0.10997533  1
  P  P197  1  0.05486039  0.58376763  0.36133202  1
  P  P198  1  0.05217436  0.58419134  0.60934416  1
  P  P199  1  0.05481333  0.58450412  0.86117892  1
  P  P200  1  0.05471303  0.91576507  0.10944424  1
  P  P201  1  0.05340371  0.91669098  0.36143874  1
  P  P202  1  0.05418448  0.91570885  0.60958721  1
  P  P203  1  0.05513228  0.91604758  0.86102938  1
  P  P204  1  0.55184396  0.24993474  0.10955412  1
  P  P205  1  0.55099071  0.24971564  0.36014660  1
  P  P206  1  0.55336816  0.25049587  0.60943505  1
  P  P207  1  0.55454788  0.24964284  0.86051775  1
  P  P208  1  0.55414761  0.58312747  0.11161850  1
  P  P209  1  0.55417610  0.58418478  0.36071973  1
  P  P210  1  0.55464471  0.58374302  0.60905399  1
  P  P211  1  0.55309257  0.58384504  0.85987522  1
  P  P212  1  0.55392954  0.91672757  0.11137316  1
  P  P213  1  0.55426151  0.91616673  0.36063460  1
  P  P214  1  0.55431900  0.91595904  0.60900344  1
  P  P215  1  0.55093638  0.91652553  0.85995275  1
  P  P216  1  0.44381334  0.08403765  0.13986984  1
  P  P217  1  0.44389963  0.08294554  0.38934121  1
  P  P218  1  0.44459182  0.08317792  0.63872526  1
  P  P219  1  0.44422598  0.08198637  0.88949042  1
  P  P220  1  0.44550806  0.41592838  0.14124430  1
  P  P221  1  0.44359580  0.41713542  0.38931707  1
  P  P222  1  0.44705778  0.41725270  0.63826596  1
  P  P223  1  0.44703022  0.41707954  0.89041403  1
  P  P224  1  0.44402913  0.74983962  0.14009464  1
  P  P225  1  0.44636707  0.74996151  0.38872918  1
  P  P226  1  0.44781246  0.74984016  0.63984352  1
  P  P227  1  0.44427990  0.75070766  0.89007893  1
  P  P228  1  0.94751041  0.08403374  0.14043384  1
  P  P229  1  0.94776067  0.08214498  0.39042248  1
  P  P230  1  0.94504325  0.08364976  0.63918942  1
  P  P231  1  0.94575988  0.08387999  0.88930502  1
  P  P232  1  0.94803929  0.41634097  0.14111806  1
  P  P233  1  0.94737435  0.41666438  0.38861252  1
  P  P234  1  0.94612642  0.41722590  0.63996055  1
  P  P235  1  0.94529926  0.41593649  0.88912794  1
  P  P236  1  0.94676883  0.74997815  0.13982310  1
  P  P237  1  0.94520246  0.75086717  0.38940844  1
  P  P238  1  0.94595454  0.74920881  0.63901000  1
  P  P239  1  0.94636747  0.75019588  0.88970180  1
  P  P240  1  0.19689078  0.08359593  0.23672294  1
  P  P241  1  0.19665606  0.08312180  0.48457133  1
  P  P242  1  0.19853026  0.08330746  0.73465010  1
  P  P243  1  0.19829097  0.08247400  0.98517507  1
  P  P244  1  0.19606438  0.41606305  0.23598985  1
  P  P245  1  0.19630846  0.41669020  0.48460150  1
  P  P246  1  0.19711769  0.41647713  0.73445300  1
  P  P247  1  0.19498772  0.41743648  0.98652666  1
  P  P248  1  0.19579913  0.75031308  0.23629418  1
  P  P249  1  0.19375161  0.74977770  0.48589836  1
  P  P250  1  0.19618563  0.75028523  0.73496659  1
  P  P251  1  0.19527835  0.75009043  0.98601981  1
  P  P252  1  0.69640289  0.08250066  0.23533929  1
  P  P253  1  0.69837280  0.08281174  0.48472150  1
  P  P254  1  0.69835873  0.08312893  0.73497106  1
  P  P255  1  0.69632406  0.08442362  0.98528156  1
  P  P256  1  0.69791332  0.41744373  0.23546244  1
  P  P257  1  0.69561183  0.41727281  0.48583003  1
  P  P258  1  0.69780198  0.41648909  0.73417795  1
  P  P259  1  0.69695602  0.41555156  0.98524768  1
  P  P260  1  0.69617360  0.75010967  0.23697366  1
  P  P261  1  0.69546967  0.74992420  0.48572942  1
  P  P262  1  0.69744928  0.75041556  0.73450568  1
  P  P263  1  0.69830903  0.74991989  0.98506280  1
  P  P264  1  0.30390740  0.24947909  0.01591605  1
  P  P265  1  0.30416015  0.25024929  0.26431617  1
  P  P266  1  0.30299939  0.25021219  0.51311364  1
  P  P267  1  0.30320698  0.24963024  0.76485827  1
  P  P268  1  0.30146291  0.58451886  0.01529862  1
  P  P269  1  0.30382205  0.58376342  0.26613178  1
  P  P270  1  0.30289966  0.58288385  0.51337252  1
  P  P271  1  0.30311640  0.58451293  0.76446349  1
  P  P272  1  0.30314856  0.91608689  0.01398542  1
  P  P273  1  0.30393887  0.91589021  0.26622100  1
  P  P274  1  0.30300783  0.91682795  0.51311625  1
  P  P275  1  0.30440851  0.91575249  0.76470348  1
  P  P276  1  0.80418927  0.24988505  0.01512326  1
  P  P277  1  0.80503523  0.25121050  0.26407972  1
  P  P278  1  0.80489628  0.24913293  0.51496675  1
  P  P279  1  0.80616727  0.25016219  0.76389055  1
  P  P280  1  0.80365975  0.58456201  0.01544741  1
  P  P281  1  0.80265998  0.58326247  0.26511856  1
  P  P282  1  0.80293169  0.58452669  0.51506972  1
  P  P283  1  0.80541931  0.58355188  0.76313016  1
  P  P284  1  0.80334418  0.91553363  0.01551316  1
  P  P285  1  0.80338254  0.91566009  0.26574297  1
  P  P286  1  0.80397779  0.91629446  0.51315629  1
  P  P287  1  0.80376536  0.91630012  0.76477006  1
  O  O288  1  0.05930040  0.24977476  0.18820367  1
  O  O289  1  0.06011141  0.24969064  0.43768069  1
  O  O290  1  0.05599116  0.24967868  0.68606100  1
  O  O291  1  0.05631022  0.24965834  0.93638018  1
  O  O292  1  0.05709996  0.58374044  0.18680876  1
  O  O293  1  0.05847666  0.58328230  0.43808218  1
  O  O294  1  0.05547331  0.58372221  0.68610896  1
  O  O295  1  0.05900321  0.58408845  0.93789261  1
  O  O296  1  0.05740111  0.91649229  0.18628251  1
  O  O297  1  0.05794822  0.91695013  0.43809911  1
  O  O298  1  0.05721027  0.91654524  0.68636910  1
  O  O299  1  0.05955537  0.91691496  0.93774454  1
  O  O300  1  0.55582311  0.24989487  0.18632080  1
  O  O301  1  0.55598363  0.24967129  0.43671936  1
  O  O302  1  0.55684452  0.24963445  0.68622512  1
  O  O303  1  0.55873891  0.24953518  0.93725286  1
  O  O304  1  0.55893302  0.58339276  0.18836856  1
  O  O305  1  0.55922270  0.58370319  0.43735171  1
  O  O306  1  0.55735366  0.58377610  0.68587112  1
  O  O307  1  0.55611667  0.58391407  0.93670092  1
  O  O308  1  0.55879906  0.91643906  0.18807738  1
  O  O309  1  0.55941602  0.91691555  0.43731909  1
  O  O310  1  0.55677411  0.91676314  0.68582453  1
  O  O311  1  0.55500962  0.91662414  0.93668981  1
  O  O312  1  0.44005263  0.08283310  0.06303945  1
  O  O313  1  0.44018841  0.08315810  0.31247385  1
  O  O314  1  0.43976388  0.08321077  0.56196042  1
  O  O315  1  0.44056453  0.08285967  0.81263953  1
  O  O316  1  0.44285316  0.41702959  0.06444564  1
  O  O317  1  0.43951423  0.41693044  0.31254415  1
  O  O318  1  0.44109855  0.41706969  0.56166654  1
  O  O319  1  0.44420191  0.41720400  0.81358153  1
  O  O320  1  0.43915856  0.74979221  0.06337495  1
  O  O321  1  0.44156061  0.74991271  0.31211956  1
  O  O322  1  0.44355466  0.74986810  0.56312751  1
  O  O323  1  0.44077755  0.74993789  0.81328942  1
  O  O324  1  0.94420054  0.08354009  0.06366657  1
  O  O325  1  0.94412056  0.08255766  0.31372201  1
  O  O326  1  0.94131646  0.08255287  0.56239540  1
  O  O327  1  0.94155666  0.08276421  0.81252354  1
  O  O328  1  0.94428084  0.41697866  0.06438350  1
  O  O329  1  0.94218307  0.41725876  0.31202771  1
  O  O330  1  0.94416572  0.41706425  0.56308127  1
  O  O331  1  0.94105550  0.41684879  0.81241910  1
  O  O332  1  0.94211226  0.74999792  0.06314409  1
  O  O333  1  0.94058550  0.75006303  0.31267963  1
  O  O334  1  0.94113947  0.75004758  0.56231332  1
  O  O335  1  0.94135063  0.75030844  0.81301196  1
  O  O336  1  0.19462773  0.08308724  0.06192553  1
  O  O337  1  0.19180907  0.08277827  0.31328232  1
  O  O338  1  0.19351830  0.08279378  0.56130173  1
  O  O339  1  0.19460935  0.08351751  0.81132805  1
  O  O340  1  0.19107159  0.41662207  0.06333530  1
  O  O341  1  0.19155499  0.41689381  0.31267557  1
  O  O342  1  0.19274399  0.41696307  0.56131580  1
  O  O343  1  0.19374735  0.41649945  0.81125348  1
  O  O344  1  0.19133714  0.74995931  0.06279514  1
  O  O345  1  0.19051109  0.75045949  0.31291731  1
  O  O346  1  0.18996974  0.74957402  0.56267901  1
  O  O347  1  0.19159748  0.75013968  0.81165986  1
  O  O348  1  0.69288953  0.08374932  0.06204050  1
  O  O349  1  0.69315492  0.08342275  0.31209278  1
  O  O350  1  0.69464451  0.08346053  0.56139861  1
  O  O351  1  0.69375804  0.08329267  0.81160565  1
  O  O352  1  0.69357784  0.41608014  0.06200572  1
  O  O353  1  0.69372837  0.41645485  0.31216657  1
  O  O354  1  0.69175742  0.41648867  0.56257934  1
  O  O355  1  0.69406935  0.41642867  0.81090801  1
  O  O356  1  0.69405488  0.75003992  0.06176973  1
  O  O357  1  0.69148199  0.75012328  0.31366079  1
  O  O358  1  0.69142838  0.75000088  0.56242303  1
  O  O359  1  0.69330413  0.75025199  0.81115756  1
  O  O360  1  0.30823373  0.25034040  0.18764961  1
  O  O361  1  0.30713583  0.25036274  0.43641257  1
  O  O362  1  0.30579740  0.25041095  0.68801197  1
  O  O363  1  0.30686834  0.25043917  0.93913535  1
  O  O364  1  0.30592455  0.58369884  0.18927244  1
  O  O365  1  0.30811405  0.58406632  0.43681411  1
  O  O366  1  0.30637459  0.58391167  0.68766860  1
  O  O367  1  0.30501777  0.58390397  0.93863539  1
  O  O368  1  0.30590731  0.91579790  0.18932183  1
  O  O369  1  0.30825700  0.91563357  0.43658329  1
  O  O370  1  0.30688414  0.91532313  0.68787901  1
  O  O371  1  0.30716236  0.91604948  0.93734921  1
  O  O372  1  0.80937382  0.25052136  0.18732664  1
  O  O373  1  0.80797932  0.25005459  0.43815622  1
  O  O374  1  0.80991562  0.25027395  0.68709284  1
  O  O375  1  0.80882838  0.24991418  0.93837933  1
  O  O376  1  0.80648021  0.58325589  0.18847057  1
  O  O377  1  0.80657924  0.58378253  0.43836912  1
  O  O378  1  0.80891054  0.58358429  0.68638705  1
  O  O379  1  0.80680979  0.58376528  0.93864283  1
  O  O380  1  0.80723389  0.91619387  0.18906804  1
  O  O381  1  0.80865249  0.91649852  0.43655701  1
  O  O382  1  0.80636009  0.91622843  0.68793602  1
  O  O383  1  0.80679869  0.91636820  0.93877670  1
  O  O384  1  0.23422246  0.24954635  0.04111651  1
  O  O385  1  0.23377312  0.25020640  0.28819915  1
  O  O386  1  0.23272477  0.24969674  0.53728541  1
  O  O387  1  0.23385254  0.24977472  0.79096838  1
  O  O388  1  0.23160504  0.58434572  0.04035175  1
  O  O389  1  0.23415658  0.58339946  0.29138349  1
  O  O390  1  0.23244666  0.58327056  0.53682316  1
  O  O391  1  0.23348834  0.58431052  0.78965489  1
  O  O392  1  0.23310241  0.91593714  0.03872858  1
  O  O393  1  0.23436712  0.91644361  0.29172278  1
  O  O394  1  0.23261131  0.91650318  0.53663943  1
  O  O395  1  0.23483068  0.91646628  0.79024473  1
  O  O396  1  0.73387755  0.24983585  0.03886690  1
  O  O397  1  0.73501152  0.25037488  0.28838350  1
  O  O398  1  0.73522512  0.24969279  0.54014431  1
  O  O399  1  0.73613947  0.25004329  0.78827010  1
  O  O400  1  0.73409221  0.58406073  0.04073617  1
  O  O401  1  0.73266133  0.58376541  0.28993020  1
  O  O402  1  0.73285369  0.58419194  0.53938531  1
  O  O403  1  0.73560272  0.58357233  0.78814186  1
  O  O404  1  0.73368914  0.91581720  0.04059119  1
  O  O405  1  0.73321644  0.91605752  0.29000656  1
  O  O406  1  0.73365811  0.91615329  0.53702588  1
  O  O407  1  0.73431390  0.91642889  0.79064931  1
  O  O408  1  0.26738015  0.08290316  0.21343420  1
  O  O409  1  0.26671533  0.08377087  0.45985759  1
  O  O410  1  0.26851619  0.08253487  0.71007349  1
  O  O411  1  0.26833464  0.08304775  0.96077291  1
  O  O412  1  0.26652901  0.41693675  0.21261132  1
  O  O413  1  0.26642471  0.41647206  0.46008354  1
  O  O414  1  0.26665406  0.41666569  0.70910616  1
  O  O415  1  0.26493483  0.41715174  0.96208710  1
  O  O416  1  0.26629675  0.75005782  0.21324219  1
  O  O417  1  0.26391125  0.74989023  0.46189839  1
  O  O418  1  0.26643495  0.75036402  0.71098123  1
  O  O419  1  0.26554460  0.75032989  0.96186931  1
  O  O420  1  0.76614984  0.08283340  0.21034899  1
  O  O421  1  0.76844487  0.08276586  0.46009573  1
  O  O422  1  0.76860325  0.08301702  0.71112263  1
  O  O423  1  0.76608094  0.08398749  0.96041228  1
  O  O424  1  0.76791951  0.41713189  0.21080211  1
  O  O425  1  0.76568477  0.41722866  0.46160791  1
  O  O426  1  0.76798073  0.41686790  0.71003461  1
  O  O427  1  0.76666055  0.41625512  0.96020647  1
  O  O428  1  0.76661217  0.75006754  0.21333120  1
  O  O429  1  0.76590382  0.75007135  0.46192611  1
  O  O430  1  0.76764188  0.75037978  0.71032260  1
  O  O431  1  0.76834369  0.74997233  0.96061786  1
  O  O432  1  0.01722189  0.08302335  0.16548334  1
  O  O433  1  0.01785738  0.08314744  0.41484805  1
  O  O434  1  0.01505502  0.08292993  0.66367406  1
  O  O435  1  0.01567617  0.08398984  0.91378860  1
  O  O436  1  0.01817885  0.41679487  0.16543968  1
  O  O437  1  0.01784082  0.41622218  0.41189531  1
  O  O438  1  0.01555385  0.41703576  0.66605431  1
  O  O439  1  0.01525632  0.41634401  0.91342118  1
  O  O440  1  0.01723234  0.74992157  0.16332028  1
  O  O441  1  0.01568542  0.75022398  0.41267791  1
  O  O442  1  0.01633707  0.74990587  0.66276635  1
  O  O443  1  0.01682440  0.75022548  0.91291942  1
  O  O444  1  0.51375484  0.08350180  0.16431796  1
  O  O445  1  0.51394969  0.08310042  0.41365952  1
  O  O446  1  0.51474918  0.08278447  0.66247873  1
  O  O447  1  0.51411343  0.08281505  0.91412104  1
  O  O448  1  0.51504377  0.41632314  0.16689765  1
  O  O449  1  0.51384166  0.41711170  0.41298656  1
  O  O450  1  0.51754897  0.41741136  0.66137674  1
  O  O451  1  0.51651853  0.41679066  0.91593889  1
  O  O452  1  0.51425538  0.74988055  0.16353775  1
  O  O453  1  0.51682477  0.74998077  0.41223508  1
  O  O454  1  0.51802531  0.75011268  0.66386047  1
  O  O455  1  0.51409009  0.75011947  0.91509655  1
  O  O456  1  0.48166476  0.24995898  0.08548939  1
  O  O457  1  0.48055538  0.24978026  0.33690974  1
  O  O458  1  0.48357655  0.25044157  0.58455721  1
  O  O459  1  0.48456695  0.24988172  0.83622181  1
  O  O460  1  0.48395828  0.58306254  0.08794705  1
  O  O461  1  0.48359178  0.58367503  0.33764801  1
  O  O462  1  0.48498547  0.58384086  0.58357808  1
  O  O463  1  0.48356091  0.58376267  0.83445242  1
  O  O464  1  0.48365522  0.91685060  0.08796006  1
  O  O465  1  0.48371124  0.91643404  0.33747216  1
  O  O466  1  0.48463423  0.91601795  0.58360324  1
  O  O467  1  0.48100750  0.91621881  0.83537874  1
  O  O468  1  0.98350202  0.25100767  0.08799662  1
  O  O469  1  0.98670089  0.24933947  0.33659885  1
  O  O470  1  0.98249982  0.25041233  0.58479483  1
  O  O471  1  0.98166488  0.24962669  0.83569366  1
  O  O472  1  0.98483230  0.58342131  0.08445229  1
  O  O473  1  0.98498745  0.58411881  0.33661421  1
  O  O474  1  0.98222550  0.58337367  0.58439615  1
  O  O475  1  0.98481221  0.58416282  0.83706036  1
  O  O476  1  0.98509233  0.91654186  0.08412922  1
  O  O477  1  0.98322263  0.91621986  0.33719027  1
  O  O478  1  0.98431615  0.91619984  0.58484272  1
  O  O479  1  0.98519512  0.91586908  0.83671199  1
  O  O480  1  0.08714611  0.31595866  0.07856445  1
  O  O481  1  0.09038272  0.31448358  0.32776400  1
  O  O482  1  0.08682824  0.31488636  0.57681302  1
  O  O483  1  0.08524222  0.31481782  0.82671459  1
  O  O484  1  0.08872733  0.64851009  0.07770348  1
  O  O485  1  0.08852755  0.64900385  0.32877593  1
  O  O486  1  0.08599971  0.64931465  0.57693925  1
  O  O487  1  0.08802198  0.64978470  0.82815434  1
  O  O488  1  0.08957908  0.98040548  0.07684926  1
  O  O489  1  0.08668509  0.98181962  0.32815743  1
  O  O490  1  0.08860616  0.98054219  0.57682613  1
  O  O491  1  0.08842280  0.98113725  0.82759752  1
  O  O492  1  0.58581254  0.31496392  0.07694748  1
  O  O493  1  0.58436652  0.31478141  0.32689039  1
  O  O494  1  0.58737786  0.31563541  0.57724683  1
  O  O495  1  0.58832999  0.31465186  0.82758247  1
  O  O496  1  0.58731779  0.64816022  0.07814394  1
  O  O497  1  0.58727820  0.64928706  0.32726931  1
  O  O498  1  0.58887263  0.64895115  0.57689127  1
  O  O499  1  0.58729578  0.64894128  0.82761954  1
  O  O500  1  0.58707098  0.98185454  0.07814494  1
  O  O501  1  0.58755859  0.98106231  0.32695530  1
  O  O502  1  0.58867959  0.98087053  0.57630465  1
  O  O503  1  0.58464694  0.98153980  0.82694823  1
  O  O504  1  0.40970801  0.01933970  0.17328187  1
  O  O505  1  0.41039755  0.01764312  0.42206428  1
  O  O506  1  0.41084229  0.01815316  0.67163141  1
  O  O507  1  0.41080739  0.01658673  0.92214452  1
  O  O508  1  0.41126473  0.35059876  0.17290702  1
  O  O509  1  0.41006823  0.35209525  0.42253961  1
  O  O510  1  0.41407728  0.35224813  0.67201645  1
  O  O511  1  0.41251538  0.35210646  0.92247154  1
  O  O512  1  0.41050679  0.68495401  0.17352114  1
  O  O513  1  0.41320776  0.68492276  0.42232549  1
  O  O514  1  0.41406664  0.68488579  0.67276554  1
  O  O515  1  0.40989665  0.68603952  0.92325504  1
  O  O516  1  0.91312021  0.01902788  0.17277470  1
  O  O517  1  0.91411362  0.01699812  0.42315389  1
  O  O518  1  0.91099787  0.01889553  0.67254696  1
  O  O519  1  0.91236489  0.01880868  0.92266247  1
  O  O520  1  0.91410544  0.35144398  0.17380418  1
  O  O521  1  0.91404097  0.35169086  0.42183190  1
  O  O522  1  0.91152400  0.35220643  0.67186520  1
  O  O523  1  0.91201981  0.35063411  0.92194071  1
  O  O524  1  0.91337744  0.68501446  0.17331206  1
  O  O525  1  0.91158389  0.68611367  0.42305105  1
  O  O526  1  0.91294024  0.68392247  0.67199059  1
  O  O527  1  0.91308783  0.68525778  0.92330425  1
  O  O528  1  0.16360092  0.01874375  0.20307020  1
  O  O529  1  0.16301056  0.01799997  0.45158086  1
  O  O530  1  0.16435856  0.01842232  0.70203322  1
  O  O531  1  0.16479859  0.01732713  0.95253990  1
  O  O532  1  0.16313017  0.35082412  0.20282814  1
  O  O533  1  0.16244323  0.35156993  0.45206301  1
  O  O534  1  0.16288790  0.35145601  0.70219392  1
  O  O535  1  0.16138354  0.35239237  0.95330626  1
  O  O536  1  0.16247054  0.68536269  0.20279105  1
  O  O537  1  0.16018607  0.68478829  0.45275392  1
  O  O538  1  0.16238967  0.68544840  0.70158694  1
  O  O539  1  0.16194440  0.68503076  0.95272468  1
  O  O540  1  0.66259710  0.01704610  0.20346939  1
  O  O541  1  0.66424906  0.01777363  0.45240179  1
  O  O542  1  0.66470386  0.01807109  0.70213371  1
  O  O543  1  0.66226516  0.01935566  0.95252301  1
  O  O544  1  0.66389994  0.35247223  0.20253638  1
  O  O545  1  0.66206295  0.35234905  0.45240814  1
  O  O546  1  0.66413319  0.35150683  0.70121762  1
  O  O547  1  0.66335150  0.35011451  0.95299852  1
  O  O548  1  0.66296138  0.68502998  0.20368148  1
  O  O549  1  0.66217944  0.68479786  0.45242347  1
  O  O550  1  0.66364005  0.68546409  0.70144468  1
  O  O551  1  0.66455503  0.68488851  0.95225879  1
  O  O552  1  0.33817186  0.31440844  0.04864146  1
  O  O553  1  0.33732052  0.31535038  0.29770206  1
  O  O554  1  0.33606072  0.31545907  0.54639994  1
  O  O555  1  0.33767213  0.31456315  0.79721715  1
  O  O556  1  0.33538888  0.64954650  0.04778651  1
  O  O557  1  0.33791043  0.64890052  0.29854184  1
  O  O558  1  0.33623629  0.64770709  0.54719934  1
  O  O559  1  0.33699798  0.64987903  0.79654799  1
  O  O560  1  0.33668891  0.98116955  0.04708220  1
  O  O561  1  0.33877219  0.98078696  0.29800177  1
  O  O562  1  0.33605898  0.98216682  0.54594929  1
  O  O563  1  0.33908993  0.98064498  0.79676739  1
  O  O564  1  0.83781621  0.31488151  0.04839261  1
  O  O565  1  0.83835175  0.31647572  0.29688756  1
  O  O566  1  0.83942030  0.31403067  0.54754014  1
  O  O567  1  0.83959874  0.31540013  0.79684902  1
  O  O568  1  0.83776823  0.64970260  0.04754578  1
  O  O569  1  0.83672723  0.64827926  0.29775103  1
  O  O570  1  0.83682324  0.64968783  0.54747195  1
  O  O571  1  0.83910437  0.64883544  0.79579959  1
  O  O572  1  0.83742176  0.98058723  0.04823408  1
  O  O573  1  0.83755910  0.98055656  0.29866187  1
  O  O574  1  0.83741151  0.98119542  0.54651578  1
  O  O575  1  0.83822968  0.98129776  0.79692903  1
  O  O576  1  0.41030659  0.14940357  0.17221294  1
  O  O577  1  0.40997138  0.14788643  0.42226532  1
  O  O578  1  0.41122469  0.14817904  0.67210034  1
  O  O579  1  0.40998990  0.14671374  0.92260374  1
  O  O580  1  0.41072687  0.48062610  0.17387692  1
  O  O581  1  0.41029586  0.48239120  0.42236841  1
  O  O582  1  0.41398245  0.48235278  0.67170636  1
  O  O583  1  0.41286248  0.48215679  0.92284120  1
  O  O584  1  0.41057397  0.81483131  0.17346696  1
  O  O585  1  0.41329124  0.81506562  0.42228462  1
  O  O586  1  0.41375765  0.81473680  0.67257890  1
  O  O587  1  0.41058984  0.81605027  0.92263707  1
  O  O588  1  0.91395869  0.14929626  0.17284300  1
  O  O589  1  0.91336141  0.14692401  0.42308642  1
  O  O590  1  0.91173531  0.14912821  0.67141512  1
  O  O591  1  0.91192518  0.14899891  0.92180437  1
  O  O592  1  0.91407733  0.48137125  0.17406306  1
  O  O593  1  0.91433257  0.48163011  0.42238338  1
  O  O594  1  0.91179906  0.48242312  0.67183120  1
  O  O595  1  0.91179037  0.48090801  0.92257734  1
  O  O596  1  0.91338604  0.81495775  0.17319153  1
  O  O597  1  0.91221595  0.81600909  0.42272062  1
  O  O598  1  0.91237253  0.81403275  0.67272877  1
  O  O599  1  0.91305375  0.81503302  0.92340475  1
  O  O600  1  0.08680365  0.18574430  0.07762975  1
  O  O601  1  0.09040720  0.18423579  0.32812030  1
  O  O602  1  0.08645551  0.18499864  0.57659273  1
  O  O603  1  0.08547133  0.18473542  0.82662334  1
  O  O604  1  0.08867839  0.51826843  0.07798180  1
  O  O605  1  0.08843055  0.51871559  0.32831124  1
  O  O606  1  0.08683767  0.51942422  0.57677485  1
  O  O607  1  0.08830116  0.51952207  0.82787497  1
  O  O608  1  0.08858848  0.85036735  0.07755335  1
  O  O609  1  0.08697749  0.85163910  0.32837145  1
  O  O610  1  0.08794084  0.85053049  0.57728932  1
  O  O611  1  0.08873351  0.85080025  0.82840667  1
  O  O612  1  0.58560422  0.18498698  0.07659905  1
  O  O613  1  0.58435793  0.18474238  0.32690449  1
  O  O614  1  0.58712600  0.18528285  0.57666781  1
  O  O615  1  0.58786629  0.18450026  0.82726495  1
  O  O616  1  0.58750133  0.51793243  0.07874003  1
  O  O617  1  0.58757731  0.51928028  0.32705816  1
  O  O618  1  0.58901293  0.51879076  0.57664220  1
  O  O619  1  0.58748593  0.51887786  0.82757566  1
  O  O620  1  0.58694134  0.85165634  0.07780326  1
  O  O621  1  0.58742945  0.85096432  0.32741632  1
  O  O622  1  0.58861477  0.85076783  0.57714869  1
  O  O623  1  0.58503890  0.85152171  0.82747133  1
  O  O624  1  0.33815269  0.18431904  0.04785727  1
  O  O625  1  0.33745816  0.18520679  0.29771623  1
  O  O626  1  0.33672466  0.18524290  0.54590346  1
  O  O627  1  0.33757282  0.18430568  0.79637254  1
  O  O628  1  0.33545760  0.51950778  0.04811210  1
  O  O629  1  0.33834319  0.51879222  0.29809042  1
  O  O630  1  0.33590313  0.51755976  0.54641056  1
  O  O631  1  0.33719029  0.51955478  0.79720503  1
  O  O632  1  0.33669880  0.85110107  0.04721801  1
  O  O633  1  0.33807127  0.85074842  0.29852520  1
  O  O634  1  0.33628814  0.85202303  0.54707530  1
  O  O635  1  0.33816229  0.85048987  0.79728460  1
  O  O636  1  0.83791754  0.18504746  0.04843201  1
  O  O637  1  0.83905714  0.18624606  0.29704323  1
  O  O638  1  0.83892493  0.18385225  0.54680909  1
  O  O639  1  0.83980333  0.18503826  0.79687423  1
  O  O640  1  0.83795023  0.51955374  0.04801871  1
  O  O641  1  0.83634272  0.51806179  0.29788504  1
  O  O642  1  0.83719932  0.51972863  0.54788954  1
  O  O643  1  0.83905828  0.51839564  0.79595258  1
  O  O644  1  0.83749062  0.85039587  0.04764974  1
  O  O645  1  0.83716688  0.85062884  0.29852175  1
  O  O646  1  0.83718963  0.85110707  0.54650111  1
  O  O647  1  0.83807153  0.85105953  0.79669908  1
  O  O648  1  0.16423398  0.14885899  0.20320882  1
  O  O649  1  0.16240658  0.14802007  0.45221663  1
  O  O650  1  0.16494077  0.14838012  0.70175629  1
  O  O651  1  0.16437644  0.14748405  0.95233352  1
  O  O652  1  0.16228799  0.48077705  0.20254965  1
  O  O653  1  0.16249668  0.48171465  0.45168357  1
  O  O654  1  0.16284370  0.48155019  0.70215745  1
  O  O655  1  0.16155990  0.48278922  0.95402495  1
  O  O656  1  0.16266618  0.81523939  0.20265748  1
  O  O657  1  0.16011558  0.81487561  0.45285131  1
  O  O658  1  0.16246831  0.81520073  0.70186203  1
  O  O659  1  0.16182756  0.81512981  0.95280196  1
  O  O660  1  0.66218536  0.14747232  0.20274729  1
  O  O661  1  0.66460686  0.14782278  0.45167987  1
  O  O662  1  0.66496123  0.14810893  0.70163113  1
  O  O663  1  0.66260760  0.14972909  0.95299933  1
  O  O664  1  0.66415982  0.48268963  0.20321845  1
  O  O665  1  0.66206533  0.48261167  0.45341221  1
  O  O666  1  0.66366898  0.48141804  0.70153796  1
  O  O667  1  0.66281280  0.48058167  0.95263512  1
  O  O668  1  0.66300516  0.81527601  0.20370848  1
  O  O669  1  0.66186692  0.81484307  0.45237256  1
  O  O670  1  0.66354420  0.81534170  0.70164315  1
  O  O671  1  0.66436030  0.81489559  0.95217643  1
