# generated using pymatgen
data_Na2MnFe(PO4)2
_symmetry_space_group_name_H-M   'P 1'
_cell_length_a   21.09403819
_cell_length_b   18.94821908
_cell_length_c   20.05200446
_cell_angle_alpha   90.00107060
_cell_angle_beta   90.00209506
_cell_angle_gamma   89.99973180
_symmetry_Int_Tables_number   1
_chemical_formula_structural   Na2MnFe(PO4)2
_chemical_formula_sum   'Na96 Mn48 Fe48 P96 O384'
_cell_volume   8014.67502544
_cell_formula_units_Z   48
loop_
 _symmetry_equiv_pos_site_id
 _symmetry_equiv_pos_as_xyz
  1  'x, y, z'
loop_
 _atom_site_type_symbol
 _atom_site_label
 _atom_site_symmetry_multiplicity
 _atom_site_fract_x
 _atom_site_fract_y
 _atom_site_fract_z
 _atom_site_occupancy
  Na  Na0  1  -0.00086822  -0.00002565  0.00017336  1
  Na  Na1  1  -0.00313242  -0.00128810  0.25104499  1
  Na  Na2  1  0.00126085  0.00003362  0.49906376  1
  Na  Na3  1  0.00056363  -0.00043694  0.74904689  1
  Na  Na4  1  -0.00156051  0.33209275  0.00053897  1
  Na  Na5  1  0.00048374  0.33373389  0.24902574  1
  Na  Na6  1  0.00089150  0.33356065  0.50026971  1
  Na  Na7  1  0.00125094  0.33329855  0.75056833  1
  Na  Na8  1  -0.00018186  0.66750964  -0.00093400  1
  Na  Na9  1  -0.00223855  0.66632721  0.24981571  1
  Na  Na10  1  0.00105222  0.66706260  0.49985324  1
  Na  Na11  1  0.00091255  0.66658964  0.75055262  1
  Na  Na12  1  0.49698692  -0.00143442  -0.00044860  1
  Na  Na13  1  0.49938712  -0.00082099  0.24916256  1
  Na  Na14  1  0.49939931  -0.00100398  0.50035856  1
  Na  Na15  1  0.49863043  -0.00061163  0.75059743  1
  Na  Na16  1  0.49895340  0.33238638  0.00057933  1
  Na  Na17  1  0.50112686  0.33315538  0.24991915  1
  Na  Na18  1  0.50205403  0.33380865  0.49977983  1
  Na  Na19  1  0.50122368  0.33389869  0.74998213  1
  Na  Na20  1  0.50110901  0.66689842  -0.00035917  1
  Na  Na21  1  0.49987853  0.66645793  0.24953990  1
  Na  Na22  1  0.49832505  0.66576245  0.50076955  1
  Na  Na23  1  0.50018263  0.66697220  0.75043943  1
  Na  Na24  1  0.25253900  0.00053366  0.12446599  1
  Na  Na25  1  0.25082944  -0.00099982  0.37452767  1
  Na  Na26  1  0.25127610  -0.00044952  0.62565501  1
  Na  Na27  1  0.25225300  0.00020919  0.87485622  1
  Na  Na28  1  0.25025665  0.33261089  0.12478568  1
  Na  Na29  1  0.25019047  0.33330897  0.37581226  1
  Na  Na30  1  0.24827580  0.33249467  0.62421104  1
  Na  Na31  1  0.24917392  0.33271368  0.87535373  1
  Na  Na32  1  0.24984391  0.66663470  0.12538268  1
  Na  Na33  1  0.25169015  0.66693209  0.37618300  1
  Na  Na34  1  0.25133987  0.66696313  0.62456008  1
  Na  Na35  1  0.24931319  0.66633460  0.87415093  1
  Na  Na36  1  0.75128878  -0.00044520  0.12411551  1
  Na  Na37  1  0.75029241  -0.00015116  0.37469881  1
  Na  Na38  1  0.74840117  -0.00085306  0.62483314  1
  Na  Na39  1  0.74988997  -0.00076505  0.87513553  1
  Na  Na40  1  0.75195363  0.33415136  0.12527219  1
  Na  Na41  1  0.74687550  0.33243337  0.37502853  1
  Na  Na42  1  0.74693013  0.33290933  0.62587197  1
  Na  Na43  1  0.75190645  0.33388551  0.87517876  1
  Na  Na44  1  0.74999345  0.66692431  0.12512748  1
  Na  Na45  1  0.74976122  0.66684171  0.37577311  1
  Na  Na46  1  0.74838049  0.66649742  0.62514525  1
  Na  Na47  1  0.74869431  0.66649192  0.87437310  1
  Na  Na48  1  0.00062668  0.16713836  0.00050285  1
  Na  Na49  1  -0.00064463  0.16713375  0.25002902  1
  Na  Na50  1  0.00060887  0.16677446  0.49956443  1
  Na  Na51  1  0.00104665  0.16697707  0.74985268  1
  Na  Na52  1  0.00051147  0.50003254  -0.00047628  1
  Na  Na53  1  -0.00142247  0.50061931  0.24954112  1
  Na  Na54  1  0.00199959  0.50019885  0.50067010  1
  Na  Na55  1  0.00256432  0.50006004  0.75025338  1
  Na  Na56  1  -0.00459085  0.83444339  -0.00041521  1
  Na  Na57  1  -0.00274985  0.83345593  0.25025530  1
  Na  Na58  1  0.00039757  0.83266682  0.49900762  1
  Na  Na59  1  -0.00034763  0.83296892  0.75021317  1
  Na  Na60  1  0.49752518  0.16690005  -0.00016147  1
  Na  Na61  1  0.49933384  0.16716092  0.24932573  1
  Na  Na62  1  0.49988800  0.16673714  0.50000060  1
  Na  Na63  1  0.49774161  0.16727366  0.75037256  1
  Na  Na64  1  0.50262404  0.49974183  0.00025648  1
  Na  Na65  1  0.50131929  0.50046304  0.24964245  1
  Na  Na66  1  0.50189182  0.50021855  0.50018729  1
  Na  Na67  1  0.50341752  0.49991430  0.75107562  1
  Na  Na68  1  0.49881208  0.83335465  0.00015700  1
  Na  Na69  1  0.49938808  0.83376176  0.24963926  1
  Na  Na70  1  0.49859830  0.83400565  0.50071910  1
  Na  Na71  1  0.49760384  0.83386718  0.74925259  1
  Na  Na72  1  0.24974889  0.16751013  0.12469243  1
  Na  Na73  1  0.25049363  0.16700248  0.37502729  1
  Na  Na74  1  0.25139915  0.16617779  0.62492999  1
  Na  Na75  1  0.25057092  0.16657914  0.87549599  1
  Na  Na76  1  0.24929185  0.50071201  0.12542798  1
  Na  Na77  1  0.25101066  0.49997149  0.37596076  1
  Na  Na78  1  0.24825131  0.50151152  0.62452555  1
  Na  Na79  1  0.24805574  0.50106357  0.87416277  1
  Na  Na80  1  0.25249842  0.83310512  0.12479199  1
  Na  Na81  1  0.25195342  0.83284630  0.37531560  1
  Na  Na82  1  0.25120838  0.83303525  0.62479387  1
  Na  Na83  1  0.25271352  0.83241352  0.87451983  1
  Na  Na84  1  0.75199132  0.16664533  0.12420365  1
  Na  Na85  1  0.74881935  0.16714381  0.37471579  1
  Na  Na86  1  0.74832149  0.16698414  0.62563389  1
  Na  Na87  1  0.75157604  0.16655088  0.87537309  1
  Na  Na88  1  0.74797532  0.50056059  0.12611557  1
  Na  Na89  1  0.74766005  0.50041343  0.37592444  1
  Na  Na90  1  0.74697409  0.50055609  0.62499935  1
  Na  Na91  1  0.74790180  0.50042075  0.87398355  1
  Na  Na92  1  0.75265563  0.83277284  0.12431187  1
  Na  Na93  1  0.75003084  0.83394190  0.37490642  1
  Na  Na94  1  0.74858336  0.83406760  0.62519410  1
  Na  Na95  1  0.75206522  0.83260021  0.87530569  1
  Mn  Mn96  1  0.64187164  0.24933396  0.74899888  1
  Mn  Mn97  1  0.85689406  0.08390317  0.50252679  1
  Mn  Mn98  1  0.64268542  0.91632299  0.99737560  1
  Mn  Mn99  1  0.89216247  0.25046700  0.62705541  1
  Mn  Mn100  1  0.10771400  0.41691959  0.37250534  1
  Mn  Mn101  1  0.85671901  0.41689339  0.25314467  1
  Mn  Mn102  1  0.60697138  0.08353847  0.62344174  1
  Mn  Mn103  1  0.85763603  0.41727482  0.75168379  1
  Mn  Mn104  1  0.60819116  0.41598707  0.12244988  1
  Mn  Mn105  1  0.35786483  0.41712462  0.00192238  1
  Mn  Mn106  1  0.35786051  0.41677362  0.75218603  1
  Mn  Mn107  1  0.10753680  0.41686695  0.12258165  1
  Mn  Mn108  1  0.14246076  0.24959504  0.49722515  1
  Mn  Mn109  1  0.60701849  0.74994055  0.37276432  1
  Mn  Mn110  1  0.60832793  0.75068964  0.12274752  1
  Mn  Mn111  1  0.89143121  0.25066267  0.37737928  1
  Mn  Mn112  1  0.60762912  0.08322147  0.12245865  1
  Mn  Mn113  1  0.35811799  0.08368206  0.25248575  1
  Mn  Mn114  1  0.10724899  0.08247147  0.12322631  1
  Mn  Mn115  1  0.39247171  0.58296109  0.12678827  1
  Mn  Mn116  1  0.35823040  0.08266746  0.50205369  1
  Mn  Mn117  1  0.10768123  0.75122423  0.87311920  1
  Mn  Mn118  1  0.14297394  0.91637059  0.74794370  1
  Mn  Mn119  1  0.35854824  0.41731427  0.50270754  1
  Mn  Mn120  1  0.85893222  0.08358772  0.00204976  1
  Mn  Mn121  1  0.10746008  0.08315506  0.37221026  1
  Mn  Mn122  1  0.10738153  0.74989037  0.37262466  1
  Mn  Mn123  1  0.60765393  0.08333561  0.37190888  1
  Mn  Mn124  1  0.60675369  0.75012773  0.62313613  1
  Mn  Mn125  1  0.89276012  0.58330975  0.62690117  1
  Mn  Mn126  1  0.35821425  0.41684554  0.25256121  1
  Mn  Mn127  1  0.14212295  0.91691658  0.24744588  1
  Mn  Mn128  1  0.89200072  0.58292919  0.87697947  1
  Mn  Mn129  1  0.85637977  0.41653995  0.50256852  1
  Mn  Mn130  1  0.85820493  0.08285460  0.75211768  1
  Mn  Mn131  1  0.14190505  0.58314608  0.24822917  1
  Mn  Mn132  1  0.89240044  0.91632411  0.62663538  1
  Mn  Mn133  1  0.39254305  0.25065637  0.62779151  1
  Mn  Mn134  1  0.10897377  0.08254173  0.62249931  1
  Mn  Mn135  1  0.89111697  0.58325656  0.12684269  1
  Mn  Mn136  1  0.85709171  0.74985143  0.50299199  1
  Mn  Mn137  1  0.35843611  0.74949787  0.25258631  1
  Mn  Mn138  1  0.10687889  0.75056860  0.12277533  1
  Mn  Mn139  1  0.60671963  0.08303108  0.87298900  1
  Mn  Mn140  1  0.64275241  0.25023948  0.99756938  1
  Mn  Mn141  1  0.39292118  0.58301877  0.87727814  1
  Mn  Mn142  1  0.14248553  0.91645086  0.99796675  1
  Mn  Mn143  1  0.10801227  0.41610467  0.87304567  1
  Fe  Fe144  1  0.64248328  0.24914324  0.24750322  1
  Fe  Fe145  1  0.39238070  0.91630096  0.62712745  1
  Fe  Fe146  1  0.64165078  0.58388923  0.49783936  1
  Fe  Fe147  1  0.39284057  0.91670880  0.12686121  1
  Fe  Fe148  1  0.64286228  0.58356310  0.99834789  1
  Fe  Fe149  1  0.89155088  0.58313869  0.37753024  1
  Fe  Fe150  1  0.14288635  0.24997963  0.99830798  1
  Fe  Fe151  1  0.85651917  0.74997864  0.25185533  1
  Fe  Fe152  1  0.35778615  0.74956432  0.00127336  1
  Fe  Fe153  1  0.35722806  0.74959958  0.75197970  1
  Fe  Fe154  1  0.39340350  0.25032800  0.37632331  1
  Fe  Fe155  1  0.14240360  0.58374310  0.99882733  1
  Fe  Fe156  1  0.64247222  0.58436833  0.74824676  1
  Fe  Fe157  1  0.64320231  0.91677274  0.24804623  1
  Fe  Fe158  1  0.60803555  0.41619722  0.87394266  1
  Fe  Fe159  1  0.89194241  0.91639202  0.37747899  1
  Fe  Fe160  1  0.10803375  0.41718799  0.62324665  1
  Fe  Fe161  1  0.85708627  0.75003109  0.75121221  1
  Fe  Fe162  1  0.39278703  0.91646685  0.87675374  1
  Fe  Fe163  1  0.85669984  0.08332226  0.25171527  1
  Fe  Fe164  1  0.64159526  0.91680901  0.49786575  1
  Fe  Fe165  1  0.89367706  0.24959892  0.87656273  1
  Fe  Fe166  1  0.39318693  0.58295210  0.62714714  1
  Fe  Fe167  1  0.64149883  0.24948538  0.49792046  1
  Fe  Fe168  1  0.85670975  0.74866502  0.00120865  1
  Fe  Fe169  1  0.35736255  0.74988403  0.50190258  1
  Fe  Fe170  1  0.60742244  0.75054224  0.87300569  1
  Fe  Fe171  1  0.85719807  0.41750832  0.00108273  1
  Fe  Fe172  1  0.64226045  0.91625574  0.74903569  1
  Fe  Fe173  1  0.35725718  0.08346253  0.75236373  1
  Fe  Fe174  1  0.89236782  0.91763866  0.87569873  1
  Fe  Fe175  1  0.39328278  0.58311697  0.37698227  1
  Fe  Fe176  1  0.39218437  0.24992244  0.12724683  1
  Fe  Fe177  1  0.10827290  0.74983480  0.62337791  1
  Fe  Fe178  1  0.14363450  0.58431247  0.49769780  1
  Fe  Fe179  1  0.14306575  0.24995658  0.24848352  1
  Fe  Fe180  1  0.39306236  0.91647912  0.37699152  1
  Fe  Fe181  1  0.14310026  0.58341683  0.74752879  1
  Fe  Fe182  1  0.14304194  0.25009167  0.74865891  1
  Fe  Fe183  1  0.39180040  0.25042238  0.87658250  1
  Fe  Fe184  1  0.89315596  0.24960682  0.12726950  1
  Fe  Fe185  1  0.35685483  0.08320367  0.00171720  1
  Fe  Fe186  1  0.89182870  0.91745156  0.12747044  1
  Fe  Fe187  1  0.64262323  0.58417452  0.24884390  1
  Fe  Fe188  1  0.60734453  0.41666025  0.62333640  1
  Fe  Fe189  1  0.14365816  0.91592078  0.49808598  1
  Fe  Fe190  1  0.10805254  0.08300320  0.87379345  1
  Fe  Fe191  1  0.60677575  0.41668275  0.37340583  1
  P  P192  1  0.05423340  0.24973075  0.11074523  1
  P  P193  1  0.05364609  0.25022515  0.35888816  1
  P  P194  1  0.05516216  0.25065634  0.61110273  1
  P  P195  1  0.05476626  0.24900899  0.86100526  1
  P  P196  1  0.05313007  0.58388154  0.10917031  1
  P  P197  1  0.05248971  0.58371426  0.36086784  1
  P  P198  1  0.05606983  0.58397740  0.61062354  1
  P  P199  1  0.05550858  0.58376854  0.86054696  1
  P  P200  1  0.05109721  0.91642234  0.11000763  1
  P  P201  1  0.05297885  0.91605466  0.36083567  1
  P  P202  1  0.05458751  0.91508899  0.60902778  1
  P  P203  1  0.05230293  0.91748251  0.86016918  1
  P  P204  1  0.55316487  0.24930400  0.11060363  1
  P  P205  1  0.55395805  0.25039590  0.36017488  1
  P  P206  1  0.55380947  0.25041233  0.60991853  1
  P  P207  1  0.55153965  0.25018676  0.86066373  1
  P  P208  1  0.55569138  0.58379586  0.11034869  1
  P  P209  1  0.55367988  0.58313362  0.36071552  1
  P  P210  1  0.55412277  0.58342251  0.61108223  1
  P  P211  1  0.55601310  0.58391580  0.86113935  1
  P  P212  1  0.55357783  0.91681400  0.11063739  1
  P  P213  1  0.55362414  0.91643455  0.36015343  1
  P  P214  1  0.55335262  0.91647777  0.61113928  1
  P  P215  1  0.55242897  0.91553668  0.85977146  1
  P  P216  1  0.44493615  0.08328690  0.13849472  1
  P  P217  1  0.44686510  0.08322329  0.38968292  1
  P  P218  1  0.44546711  0.08238206  0.64088723  1
  P  P219  1  0.44397494  0.08323585  0.88934128  1
  P  P220  1  0.44676173  0.41608729  0.13999548  1
  P  P221  1  0.44807641  0.41674737  0.38988869  1
  P  P222  1  0.44841403  0.41801622  0.64027809  1
  P  P223  1  0.44830931  0.41654901  0.89000694  1
  P  P224  1  0.44569755  0.75031260  0.13865073  1
  P  P225  1  0.44601154  0.74993032  0.39079501  1
  P  P226  1  0.44416025  0.74951682  0.63937026  1
  P  P227  1  0.44622443  0.75024520  0.88913627  1
  P  P228  1  0.94569534  0.08359304  0.14089513  1
  P  P229  1  0.94464162  0.08288937  0.38899109  1
  P  P230  1  0.94730099  0.08325792  0.63965192  1
  P  P231  1  0.94838991  0.08351289  0.88954366  1
  P  P232  1  0.94471212  0.41628875  0.13876750  1
  P  P233  1  0.94608358  0.41758426  0.39054059  1
  P  P234  1  0.94835129  0.41717097  0.64000795  1
  P  P235  1  0.94620769  0.41606889  0.89028610  1
  P  P236  1  0.94374117  0.75039441  0.13930449  1
  P  P237  1  0.94407887  0.74962082  0.38891968  1
  P  P238  1  0.94777373  0.74961997  0.64038422  1
  P  P239  1  0.94425270  0.75055501  0.88878486  1
  P  P240  1  0.19690251  0.08406128  0.23475330  1
  P  P241  1  0.19703380  0.08171606  0.48460941  1
  P  P242  1  0.19707159  0.08380103  0.73668938  1
  P  P243  1  0.19712651  0.08347277  0.98488435  1
  P  P244  1  0.19679671  0.41582448  0.23510888  1
  P  P245  1  0.19575931  0.41800983  0.48611682  1
  P  P246  1  0.19621783  0.41636546  0.73449544  1
  P  P247  1  0.19666742  0.41676637  0.98525618  1
  P  P248  1  0.19680785  0.75013980  0.23497790  1
  P  P249  1  0.19678094  0.75010257  0.48633351  1
  P  P250  1  0.19745368  0.74972093  0.73452891  1
  P  P251  1  0.19798520  0.74999564  0.98513655  1
  P  P252  1  0.69758040  0.08283259  0.23454836  1
  P  P253  1  0.69554483  0.08316052  0.48495213  1
  P  P254  1  0.69635689  0.08210443  0.73560030  1
  P  P255  1  0.69720919  0.08342932  0.98475453  1
  P  P256  1  0.69444088  0.41661314  0.23676536  1
  P  P257  1  0.69344708  0.41664706  0.48584918  1
  P  P258  1  0.69424086  0.41723816  0.73591978  1
  P  P259  1  0.69745409  0.41698184  0.98464710  1
  P  P260  1  0.69747007  0.75063452  0.23550726  1
  P  P261  1  0.69551197  0.75032028  0.48525896  1
  P  P262  1  0.69605010  0.75076274  0.73636781  1
  P  P263  1  0.69710309  0.74970854  0.98437977  1
  P  P264  1  0.30416593  0.24944067  0.01420084  1
  P  P265  1  0.30414426  0.25030672  0.26487458  1
  P  P266  1  0.30517752  0.25014751  0.51392047  1
  P  P267  1  0.30281011  0.24994121  0.76543428  1
  P  P268  1  0.30230951  0.58408658  0.01454344  1
  P  P269  1  0.30410364  0.58313943  0.26625521  1
  P  P270  1  0.30502488  0.58403133  0.51462901  1
  P  P271  1  0.30369850  0.58365056  0.76351243  1
  P  P272  1  0.30568283  0.91630270  0.01392693  1
  P  P273  1  0.30530864  0.91660430  0.26467854  1
  P  P274  1  0.30464182  0.91570367  0.51446292  1
  P  P275  1  0.30558165  0.91616414  0.76429829  1
  P  P276  1  0.80597526  0.25108808  0.01428486  1
  P  P277  1  0.80284043  0.24927270  0.26382836  1
  P  P278  1  0.80085074  0.25045355  0.51534849  1
  P  P279  1  0.80406604  0.25012856  0.76571347  1
  P  P280  1  0.80175805  0.58293190  0.01433397  1
  P  P281  1  0.80214539  0.58396961  0.26588985  1
  P  P282  1  0.80213206  0.58300264  0.51448196  1
  P  P283  1  0.80208698  0.58406808  0.76429858  1
  P  P284  1  0.80575361  0.91596233  0.01382182  1
  P  P285  1  0.80395919  0.91685528  0.26420498  1
  P  P286  1  0.80239437  0.91671652  0.51412158  1
  P  P287  1  0.80273873  0.91583160  0.76498681  1
  O  O288  1  0.05922242  0.25003706  0.18734164  1
  O  O289  1  0.05725382  0.25003323  0.43569049  1
  O  O290  1  0.05936350  0.24995145  0.68786589  1
  O  O291  1  0.05943241  0.24977331  0.93772133  1
  O  O292  1  0.05620379  0.58380480  0.18595399  1
  O  O293  1  0.05848206  0.58407214  0.43743575  1
  O  O294  1  0.05995982  0.58411896  0.68746850  1
  O  O295  1  0.05981156  0.58405634  0.93728938  1
  O  O296  1  0.05534185  0.91612160  0.18665060  1
  O  O297  1  0.05891700  0.91591978  0.43735795  1
  O  O298  1  0.05763870  0.91577744  0.68583219  1
  O  O299  1  0.05599104  0.91656908  0.93681381  1
  O  O300  1  0.55874234  0.24910467  0.18724233  1
  O  O301  1  0.55830041  0.24922727  0.43687248  1
  O  O302  1  0.55664885  0.24934284  0.68667126  1
  O  O303  1  0.55551546  0.24953017  0.93730157  1
  O  O304  1  0.55993242  0.58437615  0.18713571  1
  O  O305  1  0.55805502  0.58423879  0.43744373  1
  O  O306  1  0.55885332  0.58460825  0.68777618  1
  O  O307  1  0.55994058  0.58393118  0.93795868  1
  O  O308  1  0.55916544  0.91665138  0.18726707  1
  O  O309  1  0.55836817  0.91654038  0.43688710  1
  O  O310  1  0.55839065  0.91627373  0.68774434  1
  O  O311  1  0.55628353  0.91588185  0.93645718  1
  O  O312  1  0.44096214  0.08339293  0.06176517  1
  O  O313  1  0.44426546  0.08321002  0.31290643  1
  O  O314  1  0.44312756  0.08282212  0.56409206  1
  O  O315  1  0.44033041  0.08365214  0.81253171  1
  O  O316  1  0.44348715  0.41679564  0.06323704  1
  O  O317  1  0.44473637  0.41690860  0.31323246  1
  O  O318  1  0.44468962  0.41769065  0.56362572  1
  O  O319  1  0.44446431  0.41734954  0.81335751  1
  O  O320  1  0.44166446  0.74934375  0.06191178  1
  O  O321  1  0.44396584  0.74982518  0.31396165  1
  O  O322  1  0.44066758  0.74964269  0.56262709  1
  O  O323  1  0.44132863  0.74926765  0.81245086  1
  O  O324  1  0.94370049  0.08369557  0.06407857  1
  O  O325  1  0.94010018  0.08347785  0.31227714  1
  O  O326  1  0.94353224  0.08344294  0.56290068  1
  O  O327  1  0.94492406  0.08343050  0.81288487  1
  O  O328  1  0.94069298  0.41732861  0.06207421  1
  O  O329  1  0.94260542  0.41706127  0.31373057  1
  O  O330  1  0.94368142  0.41717769  0.56338684  1
  O  O331  1  0.94344419  0.41722638  0.81352488  1
  O  O332  1  0.93980131  0.74905696  0.06251404  1
  O  O333  1  0.93969302  0.74957051  0.31216894  1
  O  O334  1  0.94350608  0.74949538  0.56365998  1
  O  O335  1  0.94032039  0.74931379  0.81202667  1
  O  O336  1  0.19320219  0.08286050  0.06153839  1
  O  O337  1  0.19363534  0.08307115  0.31149923  1
  O  O338  1  0.19451210  0.08234501  0.56145288  1
  O  O339  1  0.19215703  0.08292882  0.81330701  1
  O  O340  1  0.19394441  0.41649786  0.06199431  1
  O  O341  1  0.19392798  0.41648192  0.31189973  1
  O  O342  1  0.19162524  0.41732186  0.56281744  1
  O  O343  1  0.19347982  0.41633807  0.81134684  1
  O  O344  1  0.19388778  0.75093477  0.06176900  1
  O  O345  1  0.19345588  0.75035326  0.31176837  1
  O  O346  1  0.19253174  0.75009238  0.56293148  1
  O  O347  1  0.19350217  0.75052588  0.81119222  1
  O  O348  1  0.69380266  0.08346712  0.06147673  1
  O  O349  1  0.69380358  0.08300344  0.31122311  1
  O  O350  1  0.69254598  0.08297688  0.56168556  1
  O  O351  1  0.69313669  0.08289696  0.81233146  1
  O  O352  1  0.69399954  0.41595687  0.06139377  1
  O  O353  1  0.69031961  0.41639317  0.31351137  1
  O  O354  1  0.68995378  0.41680317  0.56271370  1
  O  O355  1  0.69054369  0.41601681  0.81270743  1
  O  O356  1  0.69375133  0.75079494  0.06108229  1
  O  O357  1  0.69363349  0.75077233  0.31212029  1
  O  O358  1  0.69242422  0.75030500  0.56201462  1
  O  O359  1  0.69177516  0.75094262  0.81299624  1
  O  O360  1  0.30883284  0.25031123  0.18813622  1
  O  O361  1  0.31007421  0.25057951  0.43720956  1
  O  O362  1  0.30652959  0.25056505  0.68870636  1
  O  O363  1  0.30890277  0.25055786  0.93750883  1
  O  O364  1  0.30741412  0.58308731  0.18950405  1
  O  O365  1  0.31010713  0.58277959  0.43798281  1
  O  O366  1  0.30874321  0.58274694  0.68693143  1
  O  O367  1  0.30623242  0.58338715  0.93786071  1
  O  O368  1  0.30962334  0.91667980  0.18791591  1
  O  O369  1  0.30929484  0.91647602  0.43776867  1
  O  O370  1  0.30886793  0.91636675  0.68750234  1
  O  O371  1  0.30936612  0.91607666  0.93712919  1
  O  O372  1  0.80818243  0.25004030  0.18724320  1
  O  O373  1  0.80507439  0.25070072  0.43867221  1
  O  O374  1  0.80667958  0.25016558  0.68890893  1
  O  O375  1  0.81032824  0.24982239  0.93754745  1
  O  O376  1  0.80573626  0.58304631  0.18918088  1
  O  O377  1  0.80731816  0.58286555  0.43789130  1
  O  O378  1  0.80597642  0.58339585  0.68765841  1
  O  O379  1  0.80526457  0.58283623  0.93770722  1
  O  O380  1  0.80821485  0.91689148  0.18744321  1
  O  O381  1  0.80766698  0.91659465  0.43750505  1
  O  O382  1  0.80617256  0.91661353  0.68828377  1
  O  O383  1  0.80971791  0.91749233  0.93708719  1
  O  O384  1  0.23364846  0.24980538  0.03754616  1
  O  O385  1  0.23387889  0.25003027  0.28857771  1
  O  O386  1  0.23505923  0.24958376  0.53747677  1
  O  O387  1  0.23273696  0.25007958  0.78984489  1
  O  O388  1  0.23233896  0.58387935  0.03927643  1
  O  O389  1  0.23437560  0.58335969  0.29115353  1
  O  O390  1  0.23453150  0.58422763  0.53771242  1
  O  O391  1  0.23323731  0.58352424  0.78681289  1
  O  O392  1  0.23572326  0.91678234  0.03855645  1
  O  O393  1  0.23525252  0.91613916  0.28858512  1
  O  O394  1  0.23440373  0.91598623  0.53837425  1
  O  O395  1  0.23566999  0.91600708  0.78904212  1
  O  O396  1  0.73585533  0.25044338  0.03831321  1
  O  O397  1  0.73237955  0.24957187  0.28721536  1
  O  O398  1  0.73071344  0.25022185  0.53938497  1
  O  O399  1  0.73435815  0.25003200  0.79090292  1
  O  O400  1  0.73185490  0.58346556  0.03943949  1
  O  O401  1  0.73190419  0.58365213  0.29012290  1
  O  O402  1  0.73166959  0.58323930  0.53765804  1
  O  O403  1  0.73200304  0.58381256  0.78865221  1
  O  O404  1  0.73567384  0.91631830  0.03800134  1
  O  O405  1  0.73356787  0.91686647  0.28807618  1
  O  O406  1  0.73198066  0.91652209  0.53744028  1
  O  O407  1  0.73279828  0.91590596  0.78991918  1
  O  O408  1  0.26653273  0.08400187  0.20970808  1
  O  O409  1  0.26656164  0.08250241  0.45914156  1
  O  O410  1  0.26744710  0.08328091  0.71296766  1
  O  O411  1  0.26736634  0.08308549  0.96089412  1
  O  O412  1  0.26631725  0.41655266  0.20962725  1
  O  O413  1  0.26579390  0.41745340  0.46200817  1
  O  O414  1  0.26584924  0.41679586  0.70905408  1
  O  O415  1  0.26616283  0.41687585  0.95943819  1
  O  O416  1  0.26656621  0.74993983  0.21031443  1
  O  O417  1  0.26705771  0.74978335  0.46232505  1
  O  O418  1  0.26767041  0.75009062  0.71050883  1
  O  O419  1  0.26803462  0.74985934  0.96053645  1
  O  O420  1  0.76756924  0.08272514  0.20990136  1
  O  O421  1  0.76509484  0.08334297  0.45946745  1
  O  O422  1  0.76590989  0.08270303  0.71015414  1
  O  O423  1  0.76704156  0.08313249  0.96015192  1
  O  O424  1  0.76441431  0.41699346  0.21245847  1
  O  O425  1  0.76333434  0.41664856  0.46117371  1
  O  O426  1  0.76419092  0.41682035  0.71135216  1
  O  O427  1  0.76741125  0.41697799  0.95993946  1
  O  O428  1  0.76748189  0.75033630  0.21083498  1
  O  O429  1  0.76514089  0.75034323  0.46017133  1
  O  O430  1  0.76615058  0.75045081  0.71176915  1
  O  O431  1  0.76722194  0.74964386  0.96003146  1
  O  O432  1  0.01516398  0.08299142  0.16668939  1
  O  O433  1  0.01474870  0.08334692  0.41287431  1
  O  O434  1  0.01710382  0.08294332  0.66426844  1
  O  O435  1  0.01817528  0.08344849  0.91496843  1
  O  O436  1  0.01467584  0.41689076  0.16313004  1
  O  O437  1  0.01582859  0.41701085  0.41529266  1
  O  O438  1  0.01847199  0.41729230  0.66410764  1
  O  O439  1  0.01594306  0.41619202  0.91543216  1
  O  O440  1  0.01367203  0.74975686  0.16380239  1
  O  O441  1  0.01414578  0.74985199  0.41292236  1
  O  O442  1  0.01793085  0.74959751  0.66443960  1
  O  O443  1  0.01431227  0.75067110  0.91304068  1
  O  O444  1  0.51475872  0.08333877  0.16328314  1
  O  O445  1  0.51632048  0.08290790  0.41538096  1
  O  O446  1  0.51501419  0.08318264  0.66641165  1
  O  O447  1  0.51392161  0.08254111  0.91397257  1
  O  O448  1  0.51645603  0.41647224  0.16487812  1
  O  O449  1  0.51804456  0.41676186  0.41476526  1
  O  O450  1  0.51843787  0.41734128  0.66478292  1
  O  O451  1  0.51833568  0.41644346  0.91471689  1
  O  O452  1  0.51558528  0.75032687  0.16323555  1
  O  O453  1  0.51548161  0.75002586  0.41661673  1
  O  O454  1  0.51414851  0.74994225  0.66384086  1
  O  O455  1  0.51664682  0.74992458  0.91266028  1
  O  O456  1  0.48270443  0.24956273  0.08759146  1
  O  O457  1  0.48360299  0.25011434  0.33636261  1
  O  O458  1  0.48409829  0.25021333  0.58481924  1
  O  O459  1  0.48150395  0.25041036  0.83601049  1
  O  O460  1  0.48566302  0.58321131  0.08632418  1
  O  O461  1  0.48335073  0.58359421  0.33691570  1
  O  O462  1  0.48375490  0.58359812  0.58752813  1
  O  O463  1  0.48595672  0.58376669  0.83690635  1
  O  O464  1  0.48317598  0.91650917  0.08746876  1
  O  O465  1  0.48317662  0.91629690  0.33690190  1
  O  O466  1  0.48282141  0.91616781  0.58799541  1
  O  O467  1  0.48220624  0.91635986  0.83576167  1
  O  O468  1  0.98373793  0.24942526  0.08757811  1
  O  O469  1  0.98375051  0.25052408  0.33456410  1
  O  O470  1  0.98523359  0.25023333  0.58650849  1
  O  O471  1  0.98439429  0.24999088  0.83734540  1
  O  O472  1  0.98335406  0.58377119  0.08430814  1
  O  O473  1  0.98206392  0.58362674  0.33765684  1
  O  O474  1  0.98600166  0.58394943  0.58637318  1
  O  O475  1  0.98532494  0.58330731  0.83678030  1
  O  O476  1  0.98093832  0.91725805  0.08604656  1
  O  O477  1  0.98239367  0.91591803  0.33804260  1
  O  O478  1  0.98486452  0.91620563  0.58394507  1
  O  O479  1  0.98233439  0.91686879  0.83532277  1
  O  O480  1  0.08728709  0.31468251  0.07693681  1
  O  O481  1  0.08787830  0.31512435  0.32639613  1
  O  O482  1  0.08854457  0.31599392  0.57848023  1
  O  O483  1  0.08857043  0.31375932  0.82748868  1
  O  O484  1  0.08726646  0.64883982  0.07662295  1
  O  O485  1  0.08555509  0.64862742  0.32708899  1
  O  O486  1  0.08964925  0.64907897  0.57754098  1
  O  O487  1  0.08887316  0.64877374  0.82726443  1
  O  O488  1  0.08527120  0.98126999  0.07739966  1
  O  O489  1  0.08576218  0.98119048  0.32711429  1
  O  O490  1  0.08959601  0.97962446  0.57650120  1
  O  O491  1  0.08613067  0.98260441  0.82776519  1
  O  O492  1  0.58639206  0.31438216  0.07731841  1
  O  O493  1  0.58726141  0.31564811  0.32754255  1
  O  O494  1  0.58778382  0.31561950  0.57793879  1
  O  O495  1  0.58574442  0.31505550  0.82833268  1
  O  O496  1  0.58910477  0.64873057  0.07699502  1
  O  O497  1  0.58725052  0.64791976  0.32701803  1
  O  O498  1  0.58736848  0.64828946  0.57722679  1
  O  O499  1  0.58937941  0.64910754  0.82795732  1
  O  O500  1  0.58638823  0.98183102  0.07694964  1
  O  O501  1  0.58694850  0.98129053  0.32653943  1
  O  O502  1  0.58636717  0.98150513  0.57759461  1
  O  O503  1  0.58653657  0.98031546  0.82684996  1
  O  O504  1  0.41141929  0.01809634  0.17127496  1
  O  O505  1  0.41256550  0.01809700  0.42180301  1
  O  O506  1  0.41150388  0.01713852  0.67288022  1
  O  O507  1  0.41000026  0.01813062  0.92182928  1
  O  O508  1  0.41295399  0.35084739  0.17220791  1
  O  O509  1  0.41433703  0.35164696  0.42249119  1
  O  O510  1  0.41439162  0.35304015  0.67292307  1
  O  O511  1  0.41407386  0.35164047  0.92225609  1
  O  O512  1  0.41223404  0.68531480  0.17190966  1
  O  O513  1  0.41160898  0.68492164  0.42292630  1
  O  O514  1  0.41087436  0.68431300  0.67246699  1
  O  O515  1  0.41272080  0.68546796  0.92291969  1
  O  O516  1  0.91077820  0.01877217  0.17280470  1
  O  O517  1  0.91146955  0.01751262  0.42180474  1
  O  O518  1  0.91335325  0.01806602  0.67197844  1
  O  O519  1  0.91414692  0.01852922  0.92191543  1
  O  O520  1  0.91149908  0.35085569  0.17148391  1
  O  O521  1  0.91197052  0.35248683  0.42301931  1
  O  O522  1  0.91466350  0.35218904  0.67285632  1
  O  O523  1  0.91216273  0.35093581  0.92222382  1
  O  O524  1  0.90949448  0.68580840  0.17270465  1
  O  O525  1  0.91083000  0.68447913  0.42219537  1
  O  O526  1  0.91374936  0.68478283  0.67327315  1
  O  O527  1  0.91074499  0.68555533  0.92237616  1
  O  O528  1  0.16297325  0.01901705  0.20195116  1
  O  O529  1  0.16323523  0.01632191  0.45263539  1
  O  O530  1  0.16380320  0.01883645  0.70309466  1
  O  O531  1  0.16329961  0.01861958  0.95161542  1
  O  O532  1  0.16298460  0.35052394  0.20295440  1
  O  O533  1  0.16199327  0.35318756  0.45293349  1
  O  O534  1  0.16219310  0.35112543  0.70242597  1
  O  O535  1  0.16256768  0.35154098  0.95304443  1
  O  O536  1  0.16271555  0.68503622  0.20281592  1
  O  O537  1  0.16323183  0.68507622  0.45304719  1
  O  O538  1  0.16384790  0.68466235  0.70176463  1
  O  O539  1  0.16393670  0.68507082  0.95269645  1
  O  O540  1  0.66377467  0.01765635  0.20203270  1
  O  O541  1  0.66154309  0.01802260  0.45246695  1
  O  O542  1  0.66245325  0.01675926  0.70359788  1
  O  O543  1  0.66300492  0.01845575  0.95246153  1
  O  O544  1  0.66127743  0.35146121  0.20338839  1
  O  O545  1  0.65961608  0.35158515  0.45308831  1
  O  O546  1  0.66009676  0.35249050  0.70286493  1
  O  O547  1  0.66350202  0.35207509  0.95156150  1
  O  O548  1  0.66361333  0.68553293  0.20303883  1
  O  O549  1  0.66156818  0.68508977  0.45292263  1
  O  O550  1  0.66229401  0.68575110  0.70336504  1
  O  O551  1  0.66306989  0.68473093  0.95212291  1
  O  O552  1  0.33771944  0.31414977  0.04793350  1
  O  O553  1  0.33757240  0.31525684  0.29824975  1
  O  O554  1  0.33811521  0.31526719  0.54752138  1
  O  O555  1  0.33668820  0.31495208  0.79838552  1
  O  O556  1  0.33622194  0.64910182  0.04703883  1
  O  O557  1  0.33851691  0.64797224  0.29872532  1
  O  O558  1  0.33835168  0.64914149  0.54756711  1
  O  O559  1  0.33677702  0.64884643  0.79668175  1
  O  O560  1  0.33959893  0.98137131  0.04664958  1
  O  O561  1  0.33871726  0.98168489  0.29783520  1
  O  O562  1  0.33829615  0.98047216  0.54803730  1
  O  O563  1  0.33932742  0.98110905  0.79723237  1
  O  O564  1  0.83912287  0.31643114  0.04700419  1
  O  O565  1  0.83584213  0.31420119  0.29778264  1
  O  O566  1  0.83438942  0.31546039  0.54843869  1
  O  O567  1  0.83840484  0.31513163  0.79780159  1
  O  O568  1  0.83579217  0.64797163  0.04681456  1
  O  O569  1  0.83575430  0.64918186  0.29825213  1
  O  O570  1  0.83543199  0.64801969  0.54780621  1
  O  O571  1  0.83570591  0.64910958  0.79692818  1
  O  O572  1  0.83959503  0.98066426  0.04745157  1
  O  O573  1  0.83737594  0.98187321  0.29738700  1
  O  O574  1  0.83553439  0.98169498  0.54753047  1
  O  O575  1  0.83690739  0.98070358  0.79799909  1
  O  O576  1  0.41124884  0.14837566  0.17141513  1
  O  O577  1  0.41284950  0.14844363  0.42173461  1
  O  O578  1  0.41065121  0.14718402  0.67316967  1
  O  O579  1  0.41051733  0.14836165  0.92230935  1
  O  O580  1  0.41277861  0.48111017  0.17255583  1
  O  O581  1  0.41439429  0.48180156  0.42274823  1
  O  O582  1  0.41496473  0.48307876  0.67317279  1
  O  O583  1  0.41482661  0.48170561  0.92303093  1
  O  O584  1  0.41206133  0.81548621  0.17120756  1
  O  O585  1  0.41151628  0.81499187  0.42278804  1
  O  O586  1  0.41022668  0.81441479  0.67221298  1
  O  O587  1  0.41293856  0.81542898  0.92204950  1
  O  O588  1  0.91149490  0.14883072  0.17296757  1
  O  O589  1  0.91119805  0.14796102  0.42222803  1
  O  O590  1  0.91349031  0.14822493  0.67235008  1
  O  O591  1  0.91446825  0.14853836  0.92223211  1
  O  O592  1  0.91080770  0.48103567  0.17211076  1
  O  O593  1  0.91229446  0.48278135  0.42294419  1
  O  O594  1  0.91475091  0.48225911  0.67298169  1
  O  O595  1  0.91189970  0.48098848  0.92302718  1
  O  O596  1  0.91039945  0.81588890  0.17173059  1
  O  O597  1  0.91059295  0.81479759  0.42193391  1
  O  O598  1  0.91379530  0.81470956  0.67284903  1
  O  O599  1  0.91043152  0.81564489  0.92104196  1
  O  O600  1  0.08765870  0.18475652  0.07740530  1
  O  O601  1  0.08767742  0.18525007  0.32625937  1
  O  O602  1  0.08891703  0.18568211  0.57796390  1
  O  O603  1  0.08781116  0.18377645  0.82791186  1
  O  O604  1  0.08748334  0.51896438  0.07677552  1
  O  O605  1  0.08559236  0.51862256  0.32740232  1
  O  O606  1  0.08979945  0.51891709  0.57783253  1
  O  O607  1  0.08929471  0.51876788  0.82765247  1
  O  O608  1  0.08421761  0.85134628  0.07663842  1
  O  O609  1  0.08593559  0.85115976  0.32698859  1
  O  O610  1  0.08810989  0.84955469  0.57688193  1
  O  O611  1  0.08640673  0.85266158  0.82721403  1
  O  O612  1  0.58618413  0.18447081  0.07685049  1
  O  O613  1  0.58745155  0.18563636  0.32628457  1
  O  O614  1  0.58796065  0.18554478  0.57704133  1
  O  O615  1  0.58497949  0.18503319  0.82765502  1
  O  O616  1  0.58970393  0.51888037  0.07757593  1
  O  O617  1  0.58701506  0.51796520  0.32799452  1
  O  O618  1  0.58753020  0.51837194  0.57822982  1
  O  O619  1  0.58977917  0.51890491  0.82844019  1
  O  O620  1  0.58681955  0.85189495  0.07706750  1
  O  O621  1  0.58696774  0.85146813  0.32679715  1
  O  O622  1  0.58657235  0.85160197  0.57742621  1
  O  O623  1  0.58579603  0.85039699  0.82677394  1
  O  O624  1  0.33708995  0.18408393  0.04720506  1
  O  O625  1  0.33792483  0.18549212  0.29807040  1
  O  O626  1  0.33865768  0.18513285  0.54689160  1
  O  O627  1  0.33678457  0.18503830  0.79806648  1
  O  O628  1  0.33612469  0.51907342  0.04743962  1
  O  O629  1  0.33827032  0.51817960  0.29889339  1
  O  O630  1  0.33817035  0.51923554  0.54879307  1
  O  O631  1  0.33681009  0.51882338  0.79746573  1
  O  O632  1  0.33930702  0.85118106  0.04677505  1
  O  O633  1  0.33933735  0.85190430  0.29782803  1
  O  O634  1  0.33804555  0.85057347  0.54744007  1
  O  O635  1  0.33946294  0.85101729  0.79688785  1
  O  O636  1  0.83992795  0.18630204  0.04770041  1
  O  O637  1  0.83575472  0.18405556  0.29700884  1
  O  O638  1  0.83471409  0.18546720  0.54800730  1
  O  O639  1  0.83850279  0.18516455  0.79798531  1
  O  O640  1  0.83530478  0.51789432  0.04729401  1
  O  O641  1  0.83600364  0.51919368  0.29917591  1
  O  O642  1  0.83517436  0.51807215  0.54816552  1
  O  O643  1  0.83583111  0.51913622  0.79735531  1
  O  O644  1  0.83897526  0.85047115  0.04606913  1
  O  O645  1  0.83726337  0.85174765  0.29739157  1
  O  O646  1  0.83568600  0.85177833  0.54765628  1
  O  O647  1  0.83699936  0.85084406  0.79709536  1
  O  O648  1  0.16292463  0.14932618  0.20283352  1
  O  O649  1  0.16238975  0.14653856  0.45239193  1
  O  O650  1  0.16412730  0.14899727  0.70352754  1
  O  O651  1  0.16354381  0.14862036  0.95220044  1
  O  O652  1  0.16213906  0.48068844  0.20290330  1
  O  O653  1  0.16260190  0.48348909  0.45338311  1
  O  O654  1  0.16166194  0.48132940  0.70241108  1
  O  O655  1  0.16234526  0.48180194  0.95322163  1
  O  O656  1  0.16293920  0.81510921  0.20215419  1
  O  O657  1  0.16363100  0.81522236  0.45294187  1
  O  O658  1  0.16355457  0.81455092  0.70139843  1
  O  O659  1  0.16451127  0.81512016  0.95188534  1
  O  O660  1  0.66373617  0.14787133  0.20181626  1
  O  O661  1  0.66146758  0.14835236  0.45267819  1
  O  O662  1  0.66189049  0.14704125  0.70328041  1
  O  O663  1  0.66340239  0.14849589  0.95221912  1
  O  O664  1  0.66093756  0.48188936  0.20423624  1
  O  O665  1  0.65955916  0.48175607  0.45312108  1
  O  O666  1  0.66075473  0.48264886  0.70351191  1
  O  O667  1  0.66321007  0.48195150  0.95253918  1
  O  O668  1  0.66402612  0.81572421  0.20237982  1
  O  O669  1  0.66139448  0.81529472  0.45279081  1
  O  O670  1  0.66249298  0.81578962  0.70325772  1
  O  O671  1  0.66328054  0.81455731  0.95110952  1
