# generated using pymatgen
data_Na2MnFe(PO4)2
_symmetry_space_group_name_H-M   'P 1'
_cell_length_a   21.08472427
_cell_length_b   18.93681960
_cell_length_c   20.04359061
_cell_angle_alpha   89.99988286
_cell_angle_beta   89.99661733
_cell_angle_gamma   90.00272922
_symmetry_Int_Tables_number   1
_chemical_formula_structural   Na2MnFe(PO4)2
_chemical_formula_sum   'Na96 Mn48 Fe48 P96 O384'
_cell_volume   8002.95712850
_cell_formula_units_Z   48
loop_
 _symmetry_equiv_pos_site_id
 _symmetry_equiv_pos_as_xyz
  1  'x, y, z'
loop_
 _atom_site_type_symbol
 _atom_site_label
 _atom_site_symmetry_multiplicity
 _atom_site_fract_x
 _atom_site_fract_y
 _atom_site_fract_z
 _atom_site_occupancy
  Na  Na0  1  -0.00105616  -0.00030244  0.00054229  1
  Na  Na1  1  0.00000620  0.00044278  0.25053898  1
  Na  Na2  1  -0.00112434  0.00024045  0.49932090  1
  Na  Na3  1  0.00058073  0.00133806  0.74967131  1
  Na  Na4  1  0.00181402  0.33260742  -0.00009561  1
  Na  Na5  1  0.00080708  0.33296082  0.25012297  1
  Na  Na6  1  0.00041667  0.33269746  0.49999860  1
  Na  Na7  1  0.00109654  0.33270233  0.75000875  1
  Na  Na8  1  -0.00030551  0.66711588  -0.00065860  1
  Na  Na9  1  -0.00018139  0.66677904  0.24967623  1
  Na  Na10  1  0.00065459  0.66674856  0.50013112  1
  Na  Na11  1  -0.00008918  0.66699229  0.75052612  1
  Na  Na12  1  0.50019410  0.00006548  -0.00056944  1
  Na  Na13  1  0.50016981  0.00032551  0.25014406  1
  Na  Na14  1  0.50195824  0.00027722  0.50080388  1
  Na  Na15  1  0.50359421  0.00090111  0.74983097  1
  Na  Na16  1  0.49991689  0.33345163  -0.00037350  1
  Na  Na17  1  0.49923293  0.33330873  0.25065374  1
  Na  Na18  1  0.49926237  0.33268648  0.50048649  1
  Na  Na19  1  0.50244915  0.33418284  0.74907188  1
  Na  Na20  1  0.49977039  0.66707573  0.00073567  1
  Na  Na21  1  0.49770628  0.66655338  0.24899629  1
  Na  Na22  1  0.50052416  0.66765501  0.49963396  1
  Na  Na23  1  0.49928573  0.66613590  0.75053254  1
  Na  Na24  1  0.25058272  -0.00018222  0.12505908  1
  Na  Na25  1  0.24961243  -0.00043873  0.37557666  1
  Na  Na26  1  0.24827041  -0.00068127  0.62387718  1
  Na  Na27  1  0.25133027  0.00105691  0.87560238  1
  Na  Na28  1  0.25158485  0.33309628  0.12531042  1
  Na  Na29  1  0.25180973  0.33271771  0.37470717  1
  Na  Na30  1  0.25099743  0.33325680  0.62528163  1
  Na  Na31  1  0.24878101  0.33183963  0.87402283  1
  Na  Na32  1  0.25100990  0.66759256  0.12447620  1
  Na  Na33  1  0.24899049  0.66696162  0.37558887  1
  Na  Na34  1  0.24775137  0.66612191  0.62482531  1
  Na  Na35  1  0.25053490  0.66765519  0.87548933  1
  Na  Na36  1  0.75042954  0.00059151  0.12522897  1
  Na  Na37  1  0.74999722  0.00119211  0.37416143  1
  Na  Na38  1  0.74666165  -0.00026211  0.62551063  1
  Na  Na39  1  0.74758590  -0.00045145  0.87584828  1
  Na  Na40  1  0.74931291  0.33336562  0.12379142  1
  Na  Na41  1  0.74867797  0.33261763  0.37537986  1
  Na  Na42  1  0.74862239  0.33245199  0.62616425  1
  Na  Na43  1  0.74828928  0.33303613  0.87493140  1
  Na  Na44  1  0.75005021  0.66648801  0.12627999  1
  Na  Na45  1  0.75001791  0.66620073  0.37428460  1
  Na  Na46  1  0.75202880  0.66742545  0.62480365  1
  Na  Na47  1  0.75082665  0.66669607  0.87421926  1
  Na  Na48  1  0.00154904  0.16646602  -0.00021587  1
  Na  Na49  1  -0.00001762  0.16663124  0.25099570  1
  Na  Na50  1  -0.00013761  0.16644134  0.49954142  1
  Na  Na51  1  0.00060432  0.16725284  0.74959754  1
  Na  Na52  1  0.00041594  0.49940725  0.00005040  1
  Na  Na53  1  -0.00145165  0.50106697  0.25043705  1
  Na  Na54  1  -0.00129835  0.50088196  0.50011051  1
  Na  Na55  1  -0.00015539  0.49996447  0.74989410  1
  Na  Na56  1  -0.00010348  0.83302264  0.00053763  1
  Na  Na57  1  0.00155241  0.83278975  0.24862568  1
  Na  Na58  1  0.00223860  0.83224258  0.50013894  1
  Na  Na59  1  -0.00004890  0.83291675  0.75030422  1
  Na  Na60  1  0.50063557  0.16601301  -0.00040068  1
  Na  Na61  1  0.49833780  0.16738624  0.25031063  1
  Na  Na62  1  0.50170626  0.16657733  0.50036772  1
  Na  Na63  1  0.50245249  0.16618069  0.74999691  1
  Na  Na64  1  0.50103862  0.49980795  -0.00021864  1
  Na  Na65  1  0.49992648  0.49985508  0.24910078  1
  Na  Na66  1  0.49877172  0.50037604  0.50000370  1
  Na  Na67  1  0.50083973  0.49953673  0.74994156  1
  Na  Na68  1  0.49807295  0.83377722  0.00028333  1
  Na  Na69  1  0.49809817  0.83360370  0.25049169  1
  Na  Na70  1  0.50044221  0.83370596  0.49996749  1
  Na  Na71  1  0.50217838  0.83254574  0.74977674  1
  Na  Na72  1  0.25031989  0.16679041  0.12550883  1
  Na  Na73  1  0.25049982  0.16677692  0.37510211  1
  Na  Na74  1  0.24872957  0.16785453  0.62404912  1
  Na  Na75  1  0.24980439  0.16677012  0.87469354  1
  Na  Na76  1  0.25156349  0.50004055  0.12411002  1
  Na  Na77  1  0.25186707  0.49966289  0.37512055  1
  Na  Na78  1  0.24943215  0.50017558  0.62567664  1
  Na  Na79  1  0.25126784  0.49915098  0.87497170  1
  Na  Na80  1  0.25115503  0.83287812  0.12522257  1
  Na  Na81  1  0.24940058  0.83305355  0.37557315  1
  Na  Na82  1  0.24880413  0.83297996  0.62440724  1
  Na  Na83  1  0.24950857  0.83330863  0.87543770  1
  Na  Na84  1  0.74922312  0.16669490  0.12415694  1
  Na  Na85  1  0.74956658  0.16609603  0.37518873  1
  Na  Na86  1  0.74931261  0.16648184  0.62642926  1
  Na  Na87  1  0.74934387  0.16673903  0.87547887  1
  Na  Na88  1  0.74903568  0.50057345  0.12507751  1
  Na  Na89  1  0.75187259  0.49901311  0.37539680  1
  Na  Na90  1  0.74989874  0.50001108  0.62502764  1
  Na  Na91  1  0.74819407  0.50078129  0.87438486  1
  Na  Na92  1  0.75214283  0.83181108  0.12592649  1
  Na  Na93  1  0.74767178  0.83480850  0.37337866  1
  Na  Na94  1  0.74852477  0.83366390  0.62467297  1
  Na  Na95  1  0.74936802  0.83304704  0.87527324  1
  Mn  Mn96  1  0.64116764  0.25014322  0.24766081  1
  Mn  Mn97  1  0.14277224  0.58258048  0.99766027  1
  Mn  Mn98  1  0.10849223  0.41664665  0.12231132  1
  Mn  Mn99  1  0.89216297  0.58232487  0.87781558  1
  Mn  Mn100  1  0.35761827  0.75042506  0.75217221  1
  Mn  Mn101  1  0.89270955  0.24980600  0.12709199  1
  Mn  Mn102  1  0.35823889  0.08373154  0.50270236  1
  Mn  Mn103  1  0.85765034  0.75120332  0.50163589  1
  Mn  Mn104  1  0.39315972  0.91727453  0.62759181  1
  Mn  Mn105  1  0.85761242  0.41535220  0.50284597  1
  Mn  Mn106  1  0.60690567  0.75032202  0.12247814  1
  Mn  Mn107  1  0.85699329  0.08287846  0.75212030  1
  Mn  Mn108  1  0.14317204  0.24951296  0.24783146  1
  Mn  Mn109  1  0.35711384  0.74931711  0.50234993  1
  Mn  Mn110  1  0.60700702  0.41741166  0.37300136  1
  Mn  Mn111  1  0.89141473  0.91732618  0.87734201  1
  Mn  Mn112  1  0.10766399  0.41656731  0.62190592  1
  Mn  Mn113  1  0.89145068  0.91671111  0.62713630  1
  Mn  Mn114  1  0.10735588  0.08273289  0.37274627  1
  Mn  Mn115  1  0.85758254  0.08291214  0.00245225  1
  Mn  Mn116  1  0.89164876  0.25053779  0.37773698  1
  Mn  Mn117  1  0.35879913  0.41756282  0.25228994  1
  Mn  Mn118  1  0.39178033  0.58318097  0.62725662  1
  Mn  Mn119  1  0.10857212  0.08327248  0.87278012  1
  Mn  Mn120  1  0.64243592  0.58355898  0.49712896  1
  Mn  Mn121  1  0.89234988  0.91588499  0.37726382  1
  Mn  Mn122  1  0.14163951  0.91684489  0.49742989  1
  Mn  Mn123  1  0.35812302  0.08229333  0.25271714  1
  Mn  Mn124  1  0.39294758  0.91624885  0.87652692  1
  Mn  Mn125  1  0.39241222  0.58350184  0.12712938  1
  Mn  Mn126  1  0.35803791  0.41635234  0.75232918  1
  Mn  Mn127  1  0.85768360  0.41744907  0.00187583  1
  Mn  Mn128  1  0.60878537  0.74954205  0.62223826  1
  Mn  Mn129  1  0.14261540  0.91737610  0.99810189  1
  Mn  Mn130  1  0.39270123  0.25025710  0.87673797  1
  Mn  Mn131  1  0.64197643  0.91523865  0.99884694  1
  Mn  Mn132  1  0.35790242  0.08307985  0.75106278  1
  Mn  Mn133  1  0.14219693  0.58293193  0.74829221  1
  Mn  Mn134  1  0.14141227  0.91732344  0.74773572  1
  Mn  Mn135  1  0.85738857  0.41641567  0.75244284  1
  Mn  Mn136  1  0.85830699  0.75038559  0.25268644  1
  Mn  Mn137  1  0.64145449  0.25070525  0.99742872  1
  Mn  Mn138  1  0.64198361  0.58302958  0.24841762  1
  Mn  Mn139  1  0.10834229  0.41733436  0.37281988  1
  Mn  Mn140  1  0.64214398  0.58358571  0.74742908  1
  Mn  Mn141  1  0.64161097  0.91684782  0.24720723  1
  Mn  Mn142  1  0.85785024  0.41559204  0.25171307  1
  Mn  Mn143  1  0.14238906  0.58357740  0.24729219  1
  Fe  Fe144  1  0.14333973  0.25067938  0.49849518  1
  Fe  Fe145  1  0.89301705  0.58307508  0.62616638  1
  Fe  Fe146  1  0.89335020  0.25016750  0.87641230  1
  Fe  Fe147  1  0.39308702  0.24988439  0.37769564  1
  Fe  Fe148  1  0.85747462  0.74963505  0.00148174  1
  Fe  Fe149  1  0.14236507  0.24958256  0.74735115  1
  Fe  Fe150  1  0.10721912  0.75022483  0.12300831  1
  Fe  Fe151  1  0.89265828  0.25008187  0.62683483  1
  Fe  Fe152  1  0.10750983  0.08292486  0.12355408  1
  Fe  Fe153  1  0.35803155  0.41610644  0.00095782  1
  Fe  Fe154  1  0.60711464  0.08316463  0.37311104  1
  Fe  Fe155  1  0.64233788  0.91699340  0.49727561  1
  Fe  Fe156  1  0.60670825  0.08353764  0.12367420  1
  Fe  Fe157  1  0.14306731  0.91658276  0.24803533  1
  Fe  Fe158  1  0.85599237  0.08353267  0.50191683  1
  Fe  Fe159  1  0.14204897  0.58229048  0.49809752  1
  Fe  Fe160  1  0.35755260  0.75027528  0.00134187  1
  Fe  Fe161  1  0.39326723  0.58350071  0.87671936  1
  Fe  Fe162  1  0.35733283  0.41673751  0.50166187  1
  Fe  Fe163  1  0.39288387  0.91690476  0.37697266  1
  Fe  Fe164  1  0.89246825  0.58349250  0.12616697  1
  Fe  Fe165  1  0.39287019  0.24960539  0.12576939  1
  Fe  Fe166  1  0.39372550  0.24961410  0.62662478  1
  Fe  Fe167  1  0.39209424  0.58386272  0.37720643  1
  Fe  Fe168  1  0.85755401  0.75043820  0.75172300  1
  Fe  Fe169  1  0.10756458  0.74978574  0.37278530  1
  Fe  Fe170  1  0.60801977  0.08413610  0.62273520  1
  Fe  Fe171  1  0.89337375  0.91687739  0.12686651  1
  Fe  Fe172  1  0.60732899  0.08321692  0.87354860  1
  Fe  Fe173  1  0.39203171  0.91749852  0.12709621  1
  Fe  Fe174  1  0.10672054  0.08334113  0.62289186  1
  Fe  Fe175  1  0.35835996  0.08362557  0.00203771  1
  Fe  Fe176  1  0.64261849  0.24963154  0.49857946  1
  Fe  Fe177  1  0.10820519  0.41663583  0.87367909  1
  Fe  Fe178  1  0.60698870  0.41705832  0.87323095  1
  Fe  Fe179  1  0.64270238  0.24973245  0.74811234  1
  Fe  Fe180  1  0.10656837  0.75025158  0.62396256  1
  Fe  Fe181  1  0.10711855  0.74974196  0.87346547  1
  Fe  Fe182  1  0.14381750  0.24992139  0.99858701  1
  Fe  Fe183  1  0.60769247  0.74965126  0.87390977  1
  Fe  Fe184  1  0.35656578  0.75035539  0.25220636  1
  Fe  Fe185  1  0.64254707  0.58405873  0.99846881  1
  Fe  Fe186  1  0.85707258  0.08378815  0.25116220  1
  Fe  Fe187  1  0.64255769  0.91628539  0.74862293  1
  Fe  Fe188  1  0.60622643  0.75006536  0.37321110  1
  Fe  Fe189  1  0.60716982  0.41636906  0.12291603  1
  Fe  Fe190  1  0.89311340  0.58368384  0.37686187  1
  Fe  Fe191  1  0.60704587  0.41649369  0.62257934  1
  P  P192  1  0.05478153  0.24867393  0.10957024  1
  P  P193  1  0.05467422  0.25015310  0.36116819  1
  P  P194  1  0.05394331  0.24911837  0.61011180  1
  P  P195  1  0.05512021  0.25053246  0.86054288  1
  P  P196  1  0.05233845  0.58429873  0.10976772  1
  P  P197  1  0.05373338  0.58392370  0.36092002  1
  P  P198  1  0.05286723  0.58385465  0.60988074  1
  P  P199  1  0.05359652  0.58312473  0.86050167  1
  P  P200  1  0.05387419  0.91698343  0.11144719  1
  P  P201  1  0.05401205  0.91571632  0.35890907  1
  P  P202  1  0.05276022  0.91715432  0.60997055  1
  P  P203  1  0.05296493  0.91615544  0.86038646  1
  P  P204  1  0.55206980  0.24982550  0.11009539  1
  P  P205  1  0.55320197  0.24943821  0.36165022  1
  P  P206  1  0.55473703  0.25021346  0.61074943  1
  P  P207  1  0.55403791  0.25032862  0.85933333  1
  P  P208  1  0.55403874  0.58286712  0.10950499  1
  P  P209  1  0.55131862  0.58429741  0.35992034  1
  P  P210  1  0.55334835  0.58258179  0.60966350  1
  P  P211  1  0.55376787  0.58389291  0.86148336  1
  P  P212  1  0.55133600  0.91733571  0.11023960  1
  P  P213  1  0.55347926  0.91676226  0.36111450  1
  P  P214  1  0.55606736  0.91726534  0.61043591  1
  P  P215  1  0.55450452  0.91581013  0.85995678  1
  P  P216  1  0.44629027  0.08347739  0.13883295  1
  P  P217  1  0.44782592  0.08288696  0.39032292  1
  P  P218  1  0.44878713  0.08433812  0.63984460  1
  P  P219  1  0.44743604  0.08326983  0.88973139  1
  P  P220  1  0.44666985  0.41577287  0.13830698  1
  P  P221  1  0.44568944  0.41706730  0.39068178  1
  P  P222  1  0.44639197  0.41571783  0.63866168  1
  P  P223  1  0.44748336  0.41732874  0.88988806  1
  P  P224  1  0.44402642  0.75128713  0.13950284  1
  P  P225  1  0.44575455  0.75039341  0.38876058  1
  P  P226  1  0.44713667  0.75007372  0.64005850  1
  P  P227  1  0.44746712  0.74933689  0.89032610  1
  P  P228  1  0.94735782  0.08291359  0.14052424  1
  P  P229  1  0.94418451  0.08329077  0.38975996  1
  P  P230  1  0.94586600  0.08434736  0.63856086  1
  P  P231  1  0.94667716  0.08462391  0.88983644  1
  P  P232  1  0.94716646  0.41712314  0.13978242  1
  P  P233  1  0.94667092  0.41728545  0.39024783  1
  P  P234  1  0.94649436  0.41595646  0.63998200  1
  P  P235  1  0.94822425  0.41515197  0.88980401  1
  P  P236  1  0.94623776  0.74987383  0.13844010  1
  P  P237  1  0.94824414  0.74964371  0.38995202  1
  P  P238  1  0.94678294  0.74956988  0.64024166  1
  P  P239  1  0.94572154  0.75018741  0.88956679  1
  P  P240  1  0.19639057  0.08215598  0.23467517  1
  P  P241  1  0.19546509  0.08450091  0.48597527  1
  P  P242  1  0.19591353  0.08406524  0.73367229  1
  P  P243  1  0.19750547  0.08412898  0.98665381  1
  P  P244  1  0.19777801  0.41686247  0.23466036  1
  P  P245  1  0.19797787  0.41615947  0.48509235  1
  P  P246  1  0.19541317  0.41580893  0.73589985  1
  P  P247  1  0.19812813  0.41547469  0.98453840  1
  P  P248  1  0.19586008  0.75085286  0.23540950  1
  P  P249  1  0.19385714  0.74903730  0.48572988  1
  P  P250  1  0.19467071  0.75002421  0.73546020  1
  P  P251  1  0.19601556  0.75021997  0.98594019  1
  P  P252  1  0.69543205  0.08360889  0.23510027  1
  P  P253  1  0.69535180  0.08380225  0.48554598  1
  P  P254  1  0.69411537  0.08345000  0.73629560  1
  P  P255  1  0.69431046  0.08306239  0.98592373  1
  P  P256  1  0.69570771  0.41651857  0.23415177  1
  P  P257  1  0.69541955  0.41561911  0.48624041  1
  P  P258  1  0.69424319  0.41606915  0.73555390  1
  P  P259  1  0.69463486  0.41796754  0.98526656  1
  P  P260  1  0.69509450  0.74983464  0.23598563  1
  P  P261  1  0.69614130  0.75076619  0.48337339  1
  P  P262  1  0.69688889  0.75028931  0.73612914  1
  P  P263  1  0.69738963  0.74895092  0.98493419  1
  P  P264  1  0.30368715  0.24997812  0.01498482  1
  P  P265  1  0.30623241  0.24956620  0.26463301  1
  P  P266  1  0.30483818  0.25072664  0.51465531  1
  P  P267  1  0.30344733  0.24932413  0.76352096  1
  P  P268  1  0.30520039  0.58321434  0.01331259  1
  P  P269  1  0.30401423  0.58470242  0.26561031  1
  P  P270  1  0.30271110  0.58263551  0.51417277  1
  P  P271  1  0.30404877  0.58351122  0.76607783  1
  P  P272  1  0.30461795  0.91679757  0.01534311  1
  P  P273  1  0.30384830  0.91584619  0.26489214  1
  P  P274  1  0.30454891  0.91650929  0.51418515  1
  P  P275  1  0.30275316  0.91695288  0.76504757  1
  P  P276  1  0.80423500  0.25031666  0.01368754  1
  P  P277  1  0.80273775  0.24908591  0.26486695  1
  P  P278  1  0.80219849  0.24874167  0.51616716  1
  P  P279  1  0.80364765  0.24979242  0.76485606  1
  P  P280  1  0.80248186  0.58412142  0.01550479  1
  P  P281  1  0.80545285  0.58299949  0.26470567  1
  P  P282  1  0.80521707  0.58356542  0.51446613  1
  P  P283  1  0.80493912  0.58377010  0.76365215  1
  P  P284  1  0.80381423  0.91556903  0.01610757  1
  P  P285  1  0.80466887  0.91788874  0.26362431  1
  P  P286  1  0.80134229  0.91783108  0.51455511  1
  P  P287  1  0.80165976  0.91640960  0.76504131  1
  O  O288  1  0.05762317  0.24952166  0.18639451  1
  O  O289  1  0.05925168  0.25024734  0.43787748  1
  O  O290  1  0.05847330  0.24977943  0.68685591  1
  O  O291  1  0.06012415  0.24975778  0.93721800  1
  O  O292  1  0.05594366  0.58389187  0.18650954  1
  O  O293  1  0.05851650  0.58273012  0.43759662  1
  O  O294  1  0.05651401  0.58289611  0.68658469  1
  O  O295  1  0.05662821  0.58305400  0.93722673  1
  O  O296  1  0.05848377  0.91697646  0.18806670  1
  O  O297  1  0.05662057  0.91683073  0.43570978  1
  O  O298  1  0.05539563  0.91741728  0.68674055  1
  O  O299  1  0.05629607  0.91674094  0.93717029  1
  O  O300  1  0.55492269  0.25006034  0.18681376  1
  O  O301  1  0.55810892  0.24978249  0.43827476  1
  O  O302  1  0.55885463  0.25011517  0.68742820  1
  O  O303  1  0.55618150  0.25024265  0.93620015  1
  O  O304  1  0.55672010  0.58356655  0.18628055  1
  O  O305  1  0.55554384  0.58387920  0.43656968  1
  O  O306  1  0.55640944  0.58326019  0.68641031  1
  O  O307  1  0.55812244  0.58423963  0.93816969  1
  O  O308  1  0.55505412  0.91650228  0.18693985  1
  O  O309  1  0.55810898  0.91675959  0.43781677  1
  O  O310  1  0.56003799  0.91612647  0.68723336  1
  O  O311  1  0.55664331  0.91559951  0.93676853  1
  O  O312  1  0.44211013  0.08328552  0.06206734  1
  O  O313  1  0.44420068  0.08273798  0.31363960  1
  O  O314  1  0.44468902  0.08375903  0.56318616  1
  O  O315  1  0.44371269  0.08331006  0.81308440  1
  O  O316  1  0.44195268  0.41636987  0.06158222  1
  O  O317  1  0.44363186  0.41721803  0.31394863  1
  O  O318  1  0.44131798  0.41655924  0.56203001  1
  O  O319  1  0.44400527  0.41659076  0.81315872  1
  O  O320  1  0.44023857  0.75039192  0.06270393  1
  O  O321  1  0.44125183  0.75026968  0.31209530  1
  O  O322  1  0.44337977  0.75023678  0.56328971  1
  O  O323  1  0.44390510  0.74997463  0.81362991  1
  O  O324  1  0.94357033  0.08348192  0.06379686  1
  O  O325  1  0.94010716  0.08369231  0.31301321  1
  O  O326  1  0.94067972  0.08353645  0.56194327  1
  O  O327  1  0.94325424  0.08404425  0.81306254  1
  O  O328  1  0.94397550  0.41625245  0.06302309  1
  O  O329  1  0.94372875  0.41611051  0.31348413  1
  O  O330  1  0.94357392  0.41581646  0.56323663  1
  O  O331  1  0.94408015  0.41578167  0.81314389  1
  O  O332  1  0.94160955  0.74983856  0.06174448  1
  O  O333  1  0.94452043  0.75045671  0.31324392  1
  O  O334  1  0.94329535  0.75054893  0.56352188  1
  O  O335  1  0.94077169  0.75045108  0.81285343  1
  O  O336  1  0.19238249  0.08308956  0.06321666  1
  O  O337  1  0.19320133  0.08284332  0.31148226  1
  O  O338  1  0.19093453  0.08366609  0.56266605  1
  O  O339  1  0.19357891  0.08343497  0.81056393  1
  O  O340  1  0.19455823  0.41659002  0.06127601  1
  O  O341  1  0.19449153  0.41685155  0.31146805  1
  O  O342  1  0.19428221  0.41641812  0.56182860  1
  O  O343  1  0.19136854  0.41636843  0.81264490  1
  O  O344  1  0.19090590  0.75006351  0.06265673  1
  O  O345  1  0.19130132  0.75007983  0.31214322  1
  O  O346  1  0.18948147  0.74977788  0.56251282  1
  O  O347  1  0.19049513  0.75013530  0.81228189  1
  O  O348  1  0.68985242  0.08337001  0.06270910  1
  O  O349  1  0.69045658  0.08351355  0.31183332  1
  O  O350  1  0.69127574  0.08394599  0.56233281  1
  O  O351  1  0.69051948  0.08370763  0.81312060  1
  O  O352  1  0.69050756  0.41661587  0.06204641  1
  O  O353  1  0.69240301  0.41651291  0.31099337  1
  O  O354  1  0.69135533  0.41659079  0.56298820  1
  O  O355  1  0.69007984  0.41710953  0.81238583  1
  O  O356  1  0.69343570  0.74968216  0.06163617  1
  O  O357  1  0.68985980  0.74997200  0.31265418  1
  O  O358  1  0.69383129  0.74957250  0.56022907  1
  O  O359  1  0.69200771  0.74929084  0.81277162  1
  O  O360  1  0.31039799  0.24953836  0.18784533  1
  O  O361  1  0.30966856  0.24936911  0.43789358  1
  O  O362  1  0.30900909  0.24951872  0.68692624  1
  O  O363  1  0.30680244  0.24964108  0.93820140  1
  O  O364  1  0.30704411  0.58383296  0.18874904  1
  O  O365  1  0.30795148  0.58375216  0.43753241  1
  O  O366  1  0.30664010  0.58353863  0.68920897  1
  O  O367  1  0.30911862  0.58340211  0.93656236  1
  O  O368  1  0.30854019  0.91704527  0.18818943  1
  O  O369  1  0.30927064  0.91674902  0.43739777  1
  O  O370  1  0.30625468  0.91673848  0.68826215  1
  O  O371  1  0.30757125  0.91690885  0.93855027  1
  O  O372  1  0.80610200  0.24977775  0.18809793  1
  O  O373  1  0.80582927  0.24977267  0.43944137  1
  O  O374  1  0.80867980  0.24991791  0.68818676  1
  O  O375  1  0.80878884  0.25038672  0.93699295  1
  O  O376  1  0.80966372  0.58344215  0.18791940  1
  O  O377  1  0.80958382  0.58351639  0.43765223  1
  O  O378  1  0.80953993  0.58307405  0.68686960  1
  O  O379  1  0.80624421  0.58311527  0.93872672  1
  O  O380  1  0.80956741  0.91687216  0.18694074  1
  O  O381  1  0.80538147  0.91707685  0.43788403  1
  O  O382  1  0.80524986  0.91708270  0.68831873  1
  O  O383  1  0.80621586  0.91661736  0.93926864  1
  O  O384  1  0.23375010  0.25011874  0.04006941  1
  O  O385  1  0.23607244  0.24933331  0.28846135  1
  O  O386  1  0.23440064  0.25050932  0.53804423  1
  O  O387  1  0.23305904  0.24919419  0.78685566  1
  O  O388  1  0.23531824  0.58337596  0.03815784  1
  O  O389  1  0.23428374  0.58374582  0.29055365  1
  O  O390  1  0.23233725  0.58283687  0.53782433  1
  O  O391  1  0.23438509  0.58342208  0.79119214  1
  O  O392  1  0.23483012  0.91643532  0.04037986  1
  O  O393  1  0.23349932  0.91630757  0.28856225  1
  O  O394  1  0.23432527  0.91623516  0.53761289  1
  O  O395  1  0.23317891  0.91731637  0.79031749  1
  O  O396  1  0.73404751  0.25017952  0.03751981  1
  O  O397  1  0.73306799  0.24935330  0.29002495  1
  O  O398  1  0.73210640  0.24909494  0.54057347  1
  O  O399  1  0.73309183  0.24974376  0.78796136  1
  O  O400  1  0.73243711  0.58383020  0.03999051  1
  O  O401  1  0.73530425  0.58276697  0.28866197  1
  O  O402  1  0.73508388  0.58370152  0.53830457  1
  O  O403  1  0.73486862  0.58331727  0.78750700  1
  O  O404  1  0.73418102  0.91593891  0.04160907  1
  O  O405  1  0.73448080  0.91776380  0.28722926  1
  O  O406  1  0.73127609  0.91733731  0.53895069  1
  O  O407  1  0.73172613  0.91667252  0.78990543  1
  O  O408  1  0.26626435  0.08290480  0.21013521  1
  O  O409  1  0.26553855  0.08389595  0.46185458  1
  O  O410  1  0.26544295  0.08353753  0.70797523  1
  O  O411  1  0.26786756  0.08391196  0.96281048  1
  O  O412  1  0.26745349  0.41696723  0.20974670  1
  O  O413  1  0.26792177  0.41600449  0.46026081  1
  O  O414  1  0.26540266  0.41648174  0.71160565  1
  O  O415  1  0.26819692  0.41559757  0.95985238  1
  O  O416  1  0.26625105  0.75040730  0.21183453  1
  O  O417  1  0.26405571  0.74987826  0.46198857  1
  O  O418  1  0.26467162  0.74967788  0.71119210  1
  O  O419  1  0.26665327  0.75054536  0.96296905  1
  O  O420  1  0.76579382  0.08353499  0.21157899  1
  O  O421  1  0.76561147  0.08376773  0.46147432  1
  O  O422  1  0.76408518  0.08320502  0.71175628  1
  O  O423  1  0.76444111  0.08293766  0.96210499  1
  O  O424  1  0.76542641  0.41659143  0.20925115  1
  O  O425  1  0.76535638  0.41566014  0.46183445  1
  O  O426  1  0.76440020  0.41655462  0.71170066  1
  O  O427  1  0.76463433  0.41724859  0.96086224  1
  O  O428  1  0.76538762  0.74968768  0.21282698  1
  O  O429  1  0.76572874  0.75061085  0.45779919  1
  O  O430  1  0.76714034  0.75042269  0.71199228  1
  O  O431  1  0.76749218  0.74968788  0.96052981  1
  O  O432  1  0.01746209  0.08342777  0.16498027  1
  O  O433  1  0.01439821  0.08306078  0.41338910  1
  O  O434  1  0.01619509  0.08424497  0.66228585  1
  O  O435  1  0.01640909  0.08364432  0.91479813  1
  O  O436  1  0.01681764  0.41688751  0.16515178  1
  O  O437  1  0.01625483  0.41701208  0.41570463  1
  O  O438  1  0.01617958  0.41616627  0.66514565  1
  O  O439  1  0.01829789  0.41590241  0.91429506  1
  O  O440  1  0.01660583  0.75011605  0.16232052  1
  O  O441  1  0.01819476  0.74979201  0.41452501  1
  O  O442  1  0.01695512  0.75005909  0.66464722  1
  O  O443  1  0.01618515  0.74982301  0.91297268  1
  O  O444  1  0.51639205  0.08356891  0.16341482  1
  O  O445  1  0.51786036  0.08283800  0.41502281  1
  O  O446  1  0.51893084  0.08410982  0.66393192  1
  O  O447  1  0.51772509  0.08307505  0.91378456  1
  O  O448  1  0.51690922  0.41651206  0.16239625  1
  O  O449  1  0.51532558  0.41677335  0.41626853  1
  O  O450  1  0.51672629  0.41616914  0.66225738  1
  O  O451  1  0.51763409  0.41678828  0.91420642  1
  O  O452  1  0.51409728  0.75020317  0.16360446  1
  O  O453  1  0.51600762  0.75065826  0.41295599  1
  O  O454  1  0.51696239  0.74949339  0.66457653  1
  O  O455  1  0.51751202  0.75020461  0.91506791  1
  O  O456  1  0.48233119  0.24957882  0.08450145  1
  O  O457  1  0.48283647  0.25025053  0.33795663  1
  O  O458  1  0.48446770  0.24991263  0.58658983  1
  O  O459  1  0.48446053  0.25040455  0.83366905  1
  O  O460  1  0.48423007  0.58331240  0.08464629  1
  O  O461  1  0.48127333  0.58342140  0.33542166  1
  O  O462  1  0.48365285  0.58332125  0.58456660  1
  O  O463  1  0.48357283  0.58328444  0.83709949  1
  O  O464  1  0.48143688  0.91718476  0.08545593  1
  O  O465  1  0.48317994  0.91689888  0.33716177  1
  O  O466  1  0.48599553  0.91691846  0.58631444  1
  O  O467  1  0.48499351  0.91638060  0.83404261  1
  O  O468  1  0.98505646  0.24932361  0.08450413  1
  O  O469  1  0.98457085  0.24993499  0.33732070  1
  O  O470  1  0.98355557  0.24970505  0.58643090  1
  O  O471  1  0.98472027  0.24998297  0.83681955  1
  O  O472  1  0.98236606  0.58373886  0.08489548  1
  O  O473  1  0.98347005  0.58400899  0.33707611  1
  O  O474  1  0.98265585  0.58343574  0.58563664  1
  O  O475  1  0.98394671  0.58323449  0.83522847  1
  O  O476  1  0.98357449  0.91665487  0.08738126  1
  O  O477  1  0.98435683  0.91625848  0.33373458  1
  O  O478  1  0.98319856  0.91653259  0.58425553  1
  O  O479  1  0.98334154  0.91697446  0.83507491  1
  O  O480  1  0.08945172  0.31338462  0.07682828  1
  O  O481  1  0.08816082  0.31514889  0.32790648  1
  O  O482  1  0.08776536  0.31401982  0.57672785  1
  O  O483  1  0.08828190  0.31575812  0.82737082  1
  O  O484  1  0.08616068  0.64936694  0.07725425  1
  O  O485  1  0.08706150  0.64915045  0.32794699  1
  O  O486  1  0.08651758  0.64901167  0.57747781  1
  O  O487  1  0.08760581  0.64836659  0.82829006  1
  O  O488  1  0.08697364  0.98229320  0.07812534  1
  O  O489  1  0.08869048  0.98046376  0.32633995  1
  O  O490  1  0.08669113  0.98232635  0.57742167  1
  O  O491  1  0.08742416  0.98109123  0.82799331  1
  O  O492  1  0.58617370  0.31482844  0.07751710  1
  O  O493  1  0.58669777  0.31433840  0.32820099  1
  O  O494  1  0.58808584  0.31526066  0.57740725  1
  O  O495  1  0.58848461  0.31537168  0.82733217  1
  O  O496  1  0.58828400  0.64781610  0.07676705  1
  O  O497  1  0.58476302  0.64943547  0.32705584  1
  O  O498  1  0.58784744  0.64740026  0.57711136  1
  O  O499  1  0.58693394  0.64912925  0.82816094  1
  O  O500  1  0.58544532  0.98228746  0.07801648  1
  O  O501  1  0.58687557  0.98194586  0.32802229  1
  O  O502  1  0.58942559  0.98276343  0.57793702  1
  O  O503  1  0.58920478  0.98077642  0.82802474  1
  O  O504  1  0.41283784  0.01837951  0.17212273  1
  O  O505  1  0.41394111  0.01789188  0.42308100  1
  O  O506  1  0.41517277  0.01929740  0.67284541  1
  O  O507  1  0.41350115  0.01843972  0.92269248  1
  O  O508  1  0.41364313  0.35058053  0.17135348  1
  O  O509  1  0.41126281  0.35200242  0.42289506  1
  O  O510  1  0.41349498  0.35031236  0.67184915  1
  O  O511  1  0.41337577  0.35239243  0.92272685  1
  O  O512  1  0.40976772  0.68660685  0.17266792  1
  O  O513  1  0.41254836  0.68513828  0.42207622  1
  O  O514  1  0.41284415  0.68513118  0.67239790  1
  O  O515  1  0.41376271  0.68417200  0.92299264  1
  O  O516  1  0.91351184  0.01776283  0.17303972  1
  O  O517  1  0.91056099  0.01821900  0.42281199  1
  O  O518  1  0.91262532  0.01929800  0.67225830  1
  O  O519  1  0.91214592  0.01980330  0.92239173  1
  O  O520  1  0.91306585  0.35203296  0.17246246  1
  O  O521  1  0.91233024  0.35239936  0.42305041  1
  O  O522  1  0.91255364  0.35069122  0.67236195  1
  O  O523  1  0.91467542  0.35001709  0.92246813  1
  O  O524  1  0.91307736  0.68471238  0.17168664  1
  O  O525  1  0.91423750  0.68472056  0.42238264  1
  O  O526  1  0.91321544  0.68431935  0.67272630  1
  O  O527  1  0.91216621  0.68520125  0.92287080  1
  O  O528  1  0.16274844  0.01684202  0.20219433  1
  O  O529  1  0.16173222  0.01954843  0.45271324  1
  O  O530  1  0.16100989  0.01929987  0.70138660  1
  O  O531  1  0.16416028  0.01926715  0.95280828  1
  O  O532  1  0.16386947  0.35168732  0.20236679  1
  O  O533  1  0.16412806  0.35101376  0.45260066  1
  O  O534  1  0.16215543  0.35058186  0.70291574  1
  O  O535  1  0.16411143  0.35028812  0.95237258  1
  O  O536  1  0.16227590  0.68605138  0.20169239  1
  O  O537  1  0.16091442  0.68364203  0.45268098  1
  O  O538  1  0.16078341  0.68506309  0.70250685  1
  O  O539  1  0.16299517  0.68518691  0.95231931  1
  O  O540  1  0.66181616  0.01875644  0.20164068  1
  O  O541  1  0.66185264  0.01877801  0.45221355  1
  O  O542  1  0.66025930  0.01847174  0.70350319  1
  O  O543  1  0.66070337  0.01793154  0.95314335  1
  O  O544  1  0.66150998  0.35152472  0.20153809  1
  O  O545  1  0.66188039  0.35023380  0.45380717  1
  O  O546  1  0.66100778  0.35059400  0.70297807  1
  O  O547  1  0.66041445  0.35330942  0.95188428  1
  O  O548  1  0.66188717  0.68478836  0.20273940  1
  O  O549  1  0.66146662  0.68594542  0.45084062  1
  O  O550  1  0.66378346  0.68535394  0.70223556  1
  O  O551  1  0.66376370  0.68385148  0.95198757  1
  O  O552  1  0.33786651  0.31512600  0.04727078  1
  O  O553  1  0.33970838  0.31460702  0.29766723  1
  O  O554  1  0.33810744  0.31595412  0.54755679  1
  O  O555  1  0.33648672  0.31438750  0.79722295  1
  O  O556  1  0.33877464  0.64831982  0.04626173  1
  O  O557  1  0.33750471  0.65015942  0.29797096  1
  O  O558  1  0.33590732  0.64754552  0.54797967  1
  O  O559  1  0.33847290  0.64841727  0.79840327  1
  O  O560  1  0.33851379  0.98202486  0.04797609  1
  O  O561  1  0.33765657  0.98054308  0.29863202  1
  O  O562  1  0.33770460  0.98167988  0.54749934  1
  O  O563  1  0.33716482  0.98196214  0.79717488  1
  O  O564  1  0.83751344  0.31537373  0.04695887  1
  O  O565  1  0.83675833  0.31412172  0.29767139  1
  O  O566  1  0.83637427  0.31345800  0.54939151  1
  O  O567  1  0.83691920  0.31478464  0.79844061  1
  O  O568  1  0.83642277  0.64929585  0.04788050  1
  O  O569  1  0.83903917  0.64802958  0.29803444  1
  O  O570  1  0.83888063  0.64866002  0.54739239  1
  O  O571  1  0.83815814  0.64900571  0.79654119  1
  O  O572  1  0.83850756  0.98038466  0.04857171  1
  O  O573  1  0.83781695  0.98314743  0.29644998  1
  O  O574  1  0.83479884  0.98295089  0.54749765  1
  O  O575  1  0.83540611  0.98147272  0.79797537  1
  O  O576  1  0.41278217  0.14854395  0.17166491  1
  O  O577  1  0.41415657  0.14810901  0.42295129  1
  O  O578  1  0.41514423  0.14947770  0.67246090  1
  O  O579  1  0.41385349  0.14837656  0.92269445  1
  O  O580  1  0.41307590  0.48074073  0.17165758  1
  O  O581  1  0.41132667  0.48217832  0.42294961  1
  O  O582  1  0.41295098  0.48053762  0.67231064  1
  O  O583  1  0.41373538  0.48231821  0.92260614  1
  O  O584  1  0.41090723  0.81665647  0.17235262  1
  O  O585  1  0.41232603  0.81542457  0.42196009  1
  O  O586  1  0.41363618  0.81528287  0.67287350  1
  O  O587  1  0.41284929  0.81406956  0.92304591  1
  O  O588  1  0.91312161  0.14776755  0.17346654  1
  O  O589  1  0.91062886  0.14813403  0.42328511  1
  O  O590  1  0.91263375  0.14951278  0.67180701  1
  O  O591  1  0.91312692  0.14997213  0.92221598  1
  O  O592  1  0.91306743  0.48241734  0.17154450  1
  O  O593  1  0.91257159  0.48255273  0.42205216  1
  O  O594  1  0.91236156  0.48113021  0.67215879  1
  O  O595  1  0.91406680  0.48008656  0.92267520  1
  O  O596  1  0.91292166  0.81488991  0.17190479  1
  O  O597  1  0.91447174  0.81473719  0.42295468  1
  O  O598  1  0.91261826  0.81442677  0.67329798  1
  O  O599  1  0.91247057  0.81512259  0.92311288  1
  O  O600  1  0.08865531  0.18329338  0.07746768  1
  O  O601  1  0.08816143  0.18507384  0.32804067  1
  O  O602  1  0.08731777  0.18409948  0.57695481  1
  O  O603  1  0.08869691  0.18566137  0.82685575  1
  O  O604  1  0.08666900  0.51930302  0.07728409  1
  O  O605  1  0.08698837  0.51902267  0.32716257  1
  O  O606  1  0.08681505  0.51900780  0.57651154  1
  O  O607  1  0.08760500  0.51793290  0.82819875  1
  O  O608  1  0.08737167  0.85202345  0.07815963  1
  O  O609  1  0.08809860  0.85039897  0.32700453  1
  O  O610  1  0.08737555  0.85207935  0.57816749  1
  O  O611  1  0.08668531  0.85081099  0.82825875  1
  O  O612  1  0.58631764  0.18480847  0.07784431  1
  O  O613  1  0.58590002  0.18408056  0.32826147  1
  O  O614  1  0.58846105  0.18526000  0.57752700  1
  O  O615  1  0.58841813  0.18519098  0.82738558  1
  O  O616  1  0.58805580  0.51781178  0.07722707  1
  O  O617  1  0.58543164  0.51923748  0.32729861  1
  O  O618  1  0.58711089  0.51727854  0.57739055  1
  O  O619  1  0.58743601  0.51889593  0.82842728  1
  O  O620  1  0.58521739  0.85225674  0.07737799  1
  O  O621  1  0.58669876  0.85171327  0.32770276  1
  O  O622  1  0.58991253  0.85258964  0.57684077  1
  O  O623  1  0.58863823  0.85053242  0.82778113  1
  O  O624  1  0.33782592  0.18508155  0.04783485  1
  O  O625  1  0.33980245  0.18459878  0.29795631  1
  O  O626  1  0.33834785  0.18597199  0.54856396  1
  O  O627  1  0.33669252  0.18436995  0.79700631  1
  O  O628  1  0.33861745  0.51781751  0.04599419  1
  O  O629  1  0.33890751  0.52013137  0.29811634  1
  O  O630  1  0.33589392  0.51733354  0.54715972  1
  O  O631  1  0.33857546  0.51850983  0.79816499  1
  O  O632  1  0.33884127  0.85180772  0.04775809  1
  O  O633  1  0.33706045  0.85055264  0.29782119  1
  O  O634  1  0.33793421  0.85152951  0.54734731  1
  O  O635  1  0.33663501  0.85183709  0.79765974  1
  O  O636  1  0.83753934  0.18525848  0.04700759  1
  O  O637  1  0.83670932  0.18391230  0.29709795  1
  O  O638  1  0.83596676  0.18352114  0.54860387  1
  O  O639  1  0.83698129  0.18480997  0.79823950  1
  O  O640  1  0.83665580  0.51926492  0.04842473  1
  O  O641  1  0.83915959  0.51800583  0.29761011  1
  O  O642  1  0.83875868  0.51858743  0.54779673  1
  O  O643  1  0.83828291  0.51878579  0.79729172  1
  O  O644  1  0.83804499  0.85025701  0.04778011  1
  O  O645  1  0.83784919  0.85282373  0.29736823  1
  O  O646  1  0.83522626  0.85279243  0.54745440  1
  O  O647  1  0.83562891  0.85136921  0.79739052  1
  O  O648  1  0.16197121  0.14686517  0.20187900  1
  O  O649  1  0.16240783  0.14990192  0.45317533  1
  O  O650  1  0.16153581  0.14920112  0.70172633  1
  O  O651  1  0.16434135  0.14934635  0.95350598  1
  O  O652  1  0.16378963  0.48193905  0.20215811  1
  O  O653  1  0.16410566  0.48125617  0.45238027  1
  O  O654  1  0.16168417  0.48078520  0.70278133  1
  O  O655  1  0.16398381  0.48033019  0.95153571  1
  O  O656  1  0.16266726  0.81609397  0.20229035  1
  O  O657  1  0.16003667  0.81376685  0.45215373  1
  O  O658  1  0.16102985  0.81500742  0.70227228  1
  O  O659  1  0.16261826  0.81514022  0.95255951  1
  O  O660  1  0.66191766  0.14854167  0.20176684  1
  O  O661  1  0.66185413  0.14893113  0.45241566  1
  O  O662  1  0.66070977  0.14865639  0.70308745  1
  O  O663  1  0.66073872  0.14796726  0.95249389  1
  O  O664  1  0.66136722  0.48146014  0.20180942  1
  O  O665  1  0.66198350  0.48057072  0.45266620  1
  O  O666  1  0.66034735  0.48070492  0.70199284  1
  O  O667  1  0.66142407  0.48350030  0.95277325  1
  O  O668  1  0.66205094  0.81490220  0.20234301  1
  O  O669  1  0.66174936  0.81605935  0.45177863  1
  O  O670  1  0.66339283  0.81546199  0.70334967  1
  O  O671  1  0.66304534  0.81375176  0.95207779  1
