# generated using pymatgen
data_Na2MnFe(PO4)2
_symmetry_space_group_name_H-M   'P 1'
_cell_length_a   21.08003993
_cell_length_b   18.93164869
_cell_length_c   20.03986632
_cell_angle_alpha   90.00015672
_cell_angle_beta   89.99981917
_cell_angle_gamma   89.99672377
_symmetry_Int_Tables_number   1
_chemical_formula_structural   Na2MnFe(PO4)2
_chemical_formula_sum   'Na96 Mn48 Fe48 P96 O384'
_cell_volume   7997.50803987
_cell_formula_units_Z   48
loop_
 _symmetry_equiv_pos_site_id
 _symmetry_equiv_pos_as_xyz
  1  'x, y, z'
loop_
 _atom_site_type_symbol
 _atom_site_label
 _atom_site_symmetry_multiplicity
 _atom_site_fract_x
 _atom_site_fract_y
 _atom_site_fract_z
 _atom_site_occupancy
  Na  Na0  1  -0.00083048  -0.00044656  0.00066174  1
  Na  Na1  1  0.00014498  -0.00004080  0.24999517  1
  Na  Na2  1  -0.00361048  -0.00176376  0.49991391  1
  Na  Na3  1  -0.00184213  -0.00032032  0.74938847  1
  Na  Na4  1  -0.00170829  0.33335910  0.00029256  1
  Na  Na5  1  -0.00005858  0.33312405  0.25011982  1
  Na  Na6  1  0.00277212  0.33439767  0.49951167  1
  Na  Na7  1  -0.00085618  0.33320755  0.74961064  1
  Na  Na8  1  -0.00283148  0.66578152  0.00002941  1
  Na  Na9  1  0.00033622  0.66692740  0.24994255  1
  Na  Na10  1  0.00070281  0.66671613  0.49947792  1
  Na  Na11  1  -0.00062047  0.66636725  0.75053687  1
  Na  Na12  1  0.49899725  -0.00119298  0.00028066  1
  Na  Na13  1  0.50166667  0.00073116  0.25062682  1
  Na  Na14  1  0.49975037  -0.00068346  0.50040774  1
  Na  Na15  1  0.50134041  0.00033966  0.74877386  1
  Na  Na16  1  0.49901368  0.33319436  -0.00001973  1
  Na  Na17  1  0.49879545  0.33341311  0.25099959  1
  Na  Na18  1  0.49937932  0.33361213  0.49960919  1
  Na  Na19  1  0.49959170  0.33345503  0.74921394  1
  Na  Na20  1  0.50089770  0.66651139  0.00048135  1
  Na  Na21  1  0.50046254  0.66697822  0.24941813  1
  Na  Na22  1  0.50060738  0.66607716  0.50014252  1
  Na  Na23  1  0.50289531  0.66771885  0.75038487  1
  Na  Na24  1  0.24978278  -0.00119956  0.12410439  1
  Na  Na25  1  0.25069999  -0.00002435  0.37543819  1
  Na  Na26  1  0.25233824  0.00029918  0.62588018  1
  Na  Na27  1  0.25259248  -0.00011472  0.87451064  1
  Na  Na28  1  0.25197901  0.33431579  0.12579610  1
  Na  Na29  1  0.24978278  0.33299766  0.37427993  1
  Na  Na30  1  0.25155395  0.33457764  0.62588125  1
  Na  Na31  1  0.25005940  0.33322168  0.87466171  1
  Na  Na32  1  0.25198458  0.66745354  0.12600454  1
  Na  Na33  1  0.24870348  0.66610744  0.37451393  1
  Na  Na34  1  0.24755211  0.66548545  0.62403021  1
  Na  Na35  1  0.25048354  0.66665510  0.87522553  1
  Na  Na36  1  0.74840314  -0.00111038  0.12433256  1
  Na  Na37  1  0.75152338  0.00060825  0.37561096  1
  Na  Na38  1  0.74863177  -0.00095197  0.62475375  1
  Na  Na39  1  0.74993065  0.00045725  0.87512557  1
  Na  Na40  1  0.75163379  0.33412825  0.12494687  1
  Na  Na41  1  0.74730775  0.33240336  0.37490900  1
  Na  Na42  1  0.74729085  0.33228133  0.62468724  1
  Na  Na43  1  0.75082457  0.33394825  0.87534050  1
  Na  Na44  1  0.74996801  0.66671808  0.12573761  1
  Na  Na45  1  0.75022978  0.66636687  0.37500657  1
  Na  Na46  1  0.75161611  0.66722048  0.62453643  1
  Na  Na47  1  0.74880989  0.66607775  0.87483167  1
  Na  Na48  1  -0.00276319  0.16811417  -0.00036381  1
  Na  Na49  1  0.00016616  0.16692094  0.25172695  1
  Na  Na50  1  0.00024466  0.16632265  0.49962157  1
  Na  Na51  1  -0.00074747  0.16647670  0.74908186  1
  Na  Na52  1  -0.00028863  0.50025981  0.00053697  1
  Na  Na53  1  0.00065088  0.50039032  0.24961186  1
  Na  Na54  1  0.00011645  0.50129744  0.50033745  1
  Na  Na55  1  0.00141923  0.49969902  0.75007807  1
  Na  Na56  1  -0.00281210  0.83342506  0.00060569  1
  Na  Na57  1  -0.00157064  0.83355030  0.24870498  1
  Na  Na58  1  -0.00013097  0.83253747  0.49894656  1
  Na  Na59  1  -0.00363459  0.83404861  0.75060308  1
  Na  Na60  1  0.49952640  0.16707439  0.00044869  1
  Na  Na61  1  0.50048119  0.16713079  0.25030195  1
  Na  Na62  1  0.50069511  0.16708943  0.50020634  1
  Na  Na63  1  0.50145469  0.16623960  0.74902438  1
  Na  Na64  1  0.49994899  0.50081423  -0.00010901  1
  Na  Na65  1  0.49823667  0.50130988  0.24983143  1
  Na  Na66  1  0.49899107  0.50008944  0.50033394  1
  Na  Na67  1  0.50158947  0.49970715  0.74980757  1
  Na  Na68  1  0.50066370  0.83244722  0.00079010  1
  Na  Na69  1  0.50028604  0.83260312  0.25050117  1
  Na  Na70  1  0.50110812  0.83270882  0.49987455  1
  Na  Na71  1  0.49964582  0.83407347  0.74921686  1
  Na  Na72  1  0.25229144  0.16566987  0.12548096  1
  Na  Na73  1  0.25060477  0.16690739  0.37417184  1
  Na  Na74  1  0.25030671  0.16710351  0.62547960  1
  Na  Na75  1  0.25196527  0.16645965  0.87402489  1
  Na  Na76  1  0.25193418  0.49976582  0.12548590  1
  Na  Na77  1  0.25097962  0.50015008  0.37441942  1
  Na  Na78  1  0.24930559  0.50020995  0.62488586  1
  Na  Na79  1  0.24886383  0.50043202  0.87577457  1
  Na  Na80  1  0.25111003  0.83246955  0.12466920  1
  Na  Na81  1  0.24830074  0.83360239  0.37576402  1
  Na  Na82  1  0.25147995  0.83282011  0.62561763  1
  Na  Na83  1  0.25211398  0.83301558  0.87445399  1
  Na  Na84  1  0.74963867  0.16751881  0.12411508  1
  Na  Na85  1  0.74853629  0.16690101  0.37494640  1
  Na  Na86  1  0.74851150  0.16677576  0.62533584  1
  Na  Na87  1  0.74885088  0.16751400  0.87605512  1
  Na  Na88  1  0.75021913  0.50059556  0.12588531  1
  Na  Na89  1  0.75050397  0.50028834  0.37592922  1
  Na  Na90  1  0.74911918  0.50066510  0.62367570  1
  Na  Na91  1  0.74928885  0.50077553  0.87393097  1
  Na  Na92  1  0.75076191  0.83176924  0.12499393  1
  Na  Na93  1  0.74942914  0.83328440  0.37484615  1
  Na  Na94  1  0.75017541  0.83340244  0.62486077  1
  Na  Na95  1  0.75054873  0.83266669  0.87555251  1
  Mn  Mn96  1  0.85713156  0.08294542  0.25211613  1
  Mn  Mn97  1  0.39186296  0.58337845  0.62755116  1
  Mn  Mn98  1  0.14200811  0.91606295  0.74808291  1
  Mn  Mn99  1  0.60809646  0.08289963  0.37291892  1
  Mn  Mn100  1  0.35904532  0.08361980  0.75205041  1
  Mn  Mn101  1  0.14276736  0.24972464  0.24709971  1
  Mn  Mn102  1  0.85763288  0.41697840  0.25331196  1
  Mn  Mn103  1  0.10846265  0.41649254  0.62255670  1
  Mn  Mn104  1  0.14289883  0.91655803  0.99703887  1
  Mn  Mn105  1  0.39296569  0.58429490  0.87691860  1
  Mn  Mn106  1  0.64198893  0.91582168  0.99746336  1
  Mn  Mn107  1  0.64243188  0.25133105  0.99802116  1
  Mn  Mn108  1  0.14193492  0.91720401  0.49838410  1
  Mn  Mn109  1  0.89157719  0.58291180  0.87731416  1
  Mn  Mn110  1  0.85817034  0.75046022  0.50182961  1
  Mn  Mn111  1  0.39210142  0.91600783  0.37760137  1
  Mn  Mn112  1  0.89225411  0.25036781  0.37782606  1
  Mn  Mn113  1  0.10780950  0.08264691  0.37353171  1
  Mn  Mn114  1  0.14256319  0.58376605  0.99872994  1
  Mn  Mn115  1  0.10813335  0.08392433  0.12227430  1
  Mn  Mn116  1  0.14203915  0.25026042  0.74790320  1
  Mn  Mn117  1  0.10681679  0.75070421  0.62364220  1
  Mn  Mn118  1  0.85650003  0.08341879  0.75221736  1
  Mn  Mn119  1  0.35847705  0.74863677  0.75219565  1
  Mn  Mn120  1  0.35825975  0.08230712  0.25245369  1
  Mn  Mn121  1  0.14232028  0.24943880  0.99793582  1
  Mn  Mn122  1  0.10732628  0.74983613  0.12265695  1
  Mn  Mn123  1  0.60751278  0.08275795  0.87277470  1
  Mn  Mn124  1  0.85711875  0.41667637  0.75167464  1
  Mn  Mn125  1  0.10759500  0.08355723  0.87305587  1
  Mn  Mn126  1  0.89167240  0.25042230  0.62668965  1
  Mn  Mn127  1  0.64264683  0.91654558  0.24785704  1
  Mn  Mn128  1  0.60858263  0.41696427  0.87244592  1
  Mn  Mn129  1  0.39253747  0.91641008  0.12803039  1
  Mn  Mn130  1  0.39254626  0.24949110  0.87733628  1
  Mn  Mn131  1  0.60746426  0.41703417  0.12282044  1
  Mn  Mn132  1  0.64244041  0.58355498  0.49733102  1
  Mn  Mn133  1  0.89177389  0.91710818  0.12774038  1
  Mn  Mn134  1  0.10744145  0.08247374  0.62247043  1
  Mn  Mn135  1  0.35808174  0.41680346  0.00218219  1
  Mn  Mn136  1  0.60695881  0.41779883  0.37267775  1
  Mn  Mn137  1  0.85793560  0.41562206  0.50197433  1
  Mn  Mn138  1  0.10752142  0.41644075  0.12300145  1
  Mn  Mn139  1  0.10718537  0.75005167  0.87336929  1
  Mn  Mn140  1  0.60854129  0.75003750  0.62249483  1
  Mn  Mn141  1  0.85777420  0.08361068  0.00276591  1
  Mn  Mn142  1  0.35721703  0.74998914  0.50202156  1
  Mn  Mn143  1  0.39225782  0.25046078  0.37797821  1
  Fe  Fe144  1  0.85656387  0.08368559  0.50164791  1
  Fe  Fe145  1  0.39312224  0.24990616  0.62612966  1
  Fe  Fe146  1  0.35791213  0.08397442  0.50193047  1
  Fe  Fe147  1  0.39356823  0.91615568  0.87608489  1
  Fe  Fe148  1  0.64269325  0.91655666  0.74811352  1
  Fe  Fe149  1  0.60728538  0.75001913  0.12360369  1
  Fe  Fe150  1  0.85621222  0.74887896  0.00181500  1
  Fe  Fe151  1  0.35658614  0.41654735  0.50186870  1
  Fe  Fe152  1  0.60656764  0.41617785  0.62308658  1
  Fe  Fe153  1  0.10834729  0.41735198  0.37333788  1
  Fe  Fe154  1  0.35884715  0.75014366  0.00182210  1
  Fe  Fe155  1  0.89113564  0.91613654  0.62709432  1
  Fe  Fe156  1  0.10690813  0.41628585  0.87389520  1
  Fe  Fe157  1  0.89310756  0.58344062  0.62668898  1
  Fe  Fe158  1  0.60739786  0.74929752  0.37295091  1
  Fe  Fe159  1  0.64294217  0.58302011  0.99903123  1
  Fe  Fe160  1  0.14363372  0.25006228  0.49893277  1
  Fe  Fe161  1  0.89173657  0.58277820  0.12764434  1
  Fe  Fe162  1  0.35741157  0.41756485  0.25199731  1
  Fe  Fe163  1  0.85787648  0.41784103  0.00148598  1
  Fe  Fe164  1  0.64308087  0.58316857  0.74762607  1
  Fe  Fe165  1  0.14222293  0.91601352  0.24876221  1
  Fe  Fe166  1  0.64191134  0.24965215  0.49850687  1
  Fe  Fe167  1  0.60709239  0.08334207  0.12335924  1
  Fe  Fe168  1  0.60789092  0.75048715  0.87333070  1
  Fe  Fe169  1  0.64200152  0.25034965  0.74802256  1
  Fe  Fe170  1  0.85672039  0.74945073  0.25186447  1
  Fe  Fe171  1  0.64263618  0.58297613  0.24848588  1
  Fe  Fe172  1  0.89263423  0.91608068  0.37653733  1
  Fe  Fe173  1  0.35742342  0.41737086  0.75180764  1
  Fe  Fe174  1  0.39330177  0.58332465  0.12708183  1
  Fe  Fe175  1  0.14220742  0.58271786  0.49755479  1
  Fe  Fe176  1  0.35833075  0.08303325  0.00214393  1
  Fe  Fe177  1  0.39305417  0.25042809  0.12666709  1
  Fe  Fe178  1  0.10705126  0.74993423  0.37264941  1
  Fe  Fe179  1  0.64300693  0.91674037  0.49813530  1
  Fe  Fe180  1  0.85644331  0.74975945  0.75180379  1
  Fe  Fe181  1  0.89140857  0.91729415  0.87673010  1
  Fe  Fe182  1  0.35737925  0.74964537  0.25228789  1
  Fe  Fe183  1  0.60729076  0.08377540  0.62270046  1
  Fe  Fe184  1  0.89218646  0.25026978  0.12747023  1
  Fe  Fe185  1  0.89383373  0.58341805  0.37614677  1
  Fe  Fe186  1  0.64229132  0.25057034  0.24745492  1
  Fe  Fe187  1  0.89177061  0.25005095  0.87607812  1
  Fe  Fe188  1  0.39377778  0.91681341  0.62633278  1
  Fe  Fe189  1  0.14352841  0.58389429  0.24791414  1
  Fe  Fe190  1  0.14229236  0.58343329  0.74891658  1
  Fe  Fe191  1  0.39249412  0.58403800  0.37660279  1
  P  P192  1  0.05179976  0.25021284  0.10989782  1
  P  P193  1  0.05539616  0.25083712  0.36143301  1
  P  P194  1  0.05389793  0.24973011  0.60896898  1
  P  P195  1  0.05162785  0.25075297  0.86010134  1
  P  P196  1  0.05273392  0.58356202  0.11121601  1
  P  P197  1  0.05489438  0.58326592  0.36025547  1
  P  P198  1  0.05410042  0.58380304  0.61055906  1
  P  P199  1  0.05369520  0.58268076  0.86018251  1
  P  P200  1  0.05447081  0.91631880  0.11071898  1
  P  P201  1  0.05254257  0.91572066  0.35948294  1
  P  P202  1  0.05083022  0.91621583  0.60996311  1
  P  P203  1  0.05126298  0.91652173  0.86014321  1
  P  P204  1  0.55331018  0.25010013  0.11121313  1
  P  P205  1  0.55508689  0.25019025  0.36048673  1
  P  P206  1  0.55398851  0.25040979  0.61047773  1
  P  P207  1  0.55388274  0.25022274  0.85914331  1
  P  P208  1  0.55419458  0.58409418  0.11091163  1
  P  P209  1  0.55263814  0.58404640  0.35929668  1
  P  P210  1  0.55460847  0.58245688  0.61098739  1
  P  P211  1  0.55593549  0.58442981  0.86067827  1
  P  P212  1  0.55384747  0.91620910  0.11057242  1
  P  P213  1  0.55462453  0.91560993  0.36127637  1
  P  P214  1  0.55485493  0.91728221  0.61032525  1
  P  P215  1  0.55311405  0.91550305  0.85931770  1
  P  P216  1  0.44709910  0.08386573  0.13934010  1
  P  P217  1  0.44639846  0.08330361  0.39112820  1
  P  P218  1  0.44687498  0.08372565  0.63811585  1
  P  P219  1  0.44665728  0.08223764  0.89046544  1
  P  P220  1  0.44592792  0.41704020  0.14061602  1
  P  P221  1  0.44433026  0.41827928  0.38972018  1
  P  P222  1  0.44546705  0.41599918  0.63913253  1
  P  P223  1  0.44633738  0.41729410  0.88883830  1
  P  P224  1  0.44622032  0.74914359  0.13986148  1
  P  P225  1  0.44674493  0.74885649  0.38909806  1
  P  P226  1  0.44707764  0.75036868  0.63965688  1
  P  P227  1  0.44819397  0.75055998  0.89044861  1
  P  P228  1  0.94671485  0.08449990  0.14070443  1
  P  P229  1  0.94546332  0.08247714  0.39061220  1
  P  P230  1  0.94442620  0.08279316  0.63859899  1
  P  P231  1  0.94581646  0.08330772  0.88975708  1
  P  P232  1  0.94480213  0.41694882  0.13929540  1
  P  P233  1  0.94846453  0.41781376  0.38997739  1
  P  P234  1  0.94685689  0.41754314  0.63977609  1
  P  P235  1  0.94674258  0.41638961  0.89021071  1
  P  P236  1  0.94382648  0.74866706  0.13952665  1
  P  P237  1  0.94641375  0.74951283  0.38795532  1
  P  P238  1  0.94509429  0.74976161  0.64055475  1
  P  P239  1  0.94374553  0.75053063  0.88960089  1
  P  P240  1  0.19679953  0.08188521  0.23494054  1
  P  P241  1  0.19843080  0.08404523  0.48548466  1
  P  P242  1  0.19688196  0.08305960  0.73492355  1
  P  P243  1  0.19892556  0.08337655  0.98446119  1
  P  P244  1  0.19674318  0.41804366  0.23620990  1
  P  P245  1  0.19731441  0.41647357  0.48446721  1
  P  P246  1  0.19623997  0.41760809  0.73650731  1
  P  P247  1  0.19616012  0.41648306  0.98475700  1
  P  P248  1  0.19625268  0.74990198  0.23629951  1
  P  P249  1  0.19511738  0.74950839  0.48457990  1
  P  P250  1  0.19664685  0.74902855  0.73522717  1
  P  P251  1  0.19861133  0.74993841  0.98506937  1
  P  P252  1  0.69577384  0.08402749  0.23401380  1
  P  P253  1  0.69598744  0.08312104  0.48640719  1
  P  P254  1  0.69509098  0.08326834  0.73458700  1
  P  P255  1  0.69523906  0.08352610  0.98616201  1
  P  P256  1  0.69627091  0.41726689  0.23532110  1
  P  P257  1  0.69507866  0.41594380  0.48595787  1
  P  P258  1  0.69569105  0.41668895  0.73388405  1
  P  P259  1  0.69820620  0.41802028  0.98535567  1
  P  P260  1  0.69572650  0.74877810  0.23584050  1
  P  P261  1  0.69617854  0.75068376  0.48412082  1
  P  P262  1  0.69648910  0.75021675  0.73615464  1
  P  P263  1  0.69563467  0.74860380  0.98599235  1
  P  P264  1  0.30434792  0.24929266  0.01576631  1
  P  P265  1  0.30535897  0.25072501  0.26380827  1
  P  P266  1  0.30318909  0.25039042  0.51546220  1
  P  P267  1  0.30518039  0.25118191  0.76353927  1
  P  P268  1  0.30474841  0.58436303  0.01592931  1
  P  P269  1  0.30474046  0.58388314  0.26424027  1
  P  P270  1  0.30288411  0.58276836  0.51349702  1
  P  P271  1  0.30218101  0.58230192  0.76515336  1
  P  P272  1  0.30580956  0.91624467  0.01356048  1
  P  P273  1  0.30221065  0.91513728  0.26524678  1
  P  P274  1  0.30406620  0.91723468  0.51599421  1
  P  P275  1  0.30594584  0.91630278  0.76438687  1
  P  P276  1  0.80543097  0.25150642  0.01446963  1
  P  P277  1  0.80274845  0.24996375  0.26437186  1
  P  P278  1  0.80151253  0.24923779  0.51487953  1
  P  P279  1  0.80169952  0.25008957  0.76525562  1
  P  P280  1  0.80270706  0.58329781  0.01558011  1
  P  P281  1  0.80376406  0.58401892  0.26504339  1
  P  P282  1  0.80571832  0.58335190  0.51409764  1
  P  P283  1  0.80321278  0.58375112  0.76324509  1
  P  P284  1  0.80412728  0.91566883  0.01395657  1
  P  P285  1  0.80377427  0.91554709  0.26569421  1
  P  P286  1  0.80389543  0.91712786  0.51412180  1
  P  P287  1  0.80308373  0.91599117  0.76442797  1
  O  O288  1  0.05632392  0.25000900  0.18663666  1
  O  O289  1  0.06014086  0.25012335  0.43814548  1
  O  O290  1  0.05680501  0.24978522  0.68580631  1
  O  O291  1  0.05548736  0.25016328  0.93677484  1
  O  O292  1  0.05844928  0.58391125  0.18783276  1
  O  O293  1  0.05898897  0.58310395  0.43707539  1
  O  O294  1  0.05875625  0.58347163  0.68724872  1
  O  O295  1  0.05665831  0.58366796  0.93697981  1
  O  O296  1  0.05909690  0.91601530  0.18747620  1
  O  O297  1  0.05620998  0.91628504  0.43621942  1
  O  O298  1  0.05529257  0.91651490  0.68660560  1
  O  O299  1  0.05570654  0.91622220  0.93687584  1
  O  O300  1  0.55791422  0.25086440  0.18793591  1
  O  O301  1  0.55921658  0.25008801  0.43732620  1
  O  O302  1  0.55824970  0.25032746  0.68718845  1
  O  O303  1  0.55700276  0.25071738  0.93598467  1
  O  O304  1  0.55878089  0.58330538  0.18757468  1
  O  O305  1  0.55645990  0.58314675  0.43602929  1
  O  O306  1  0.55912632  0.58337042  0.68774432  1
  O  O307  1  0.55956231  0.58317217  0.93749375  1
  O  O308  1  0.55673541  0.91618937  0.18735081  1
  O  O309  1  0.55872311  0.91632242  0.43803500  1
  O  O310  1  0.55938819  0.91648512  0.68705742  1
  O  O311  1  0.55649830  0.91590810  0.93607527  1
  O  O312  1  0.44251521  0.08315894  0.06265051  1
  O  O313  1  0.44342669  0.08329413  0.31427074  1
  O  O314  1  0.44208225  0.08394434  0.56145863  1
  O  O315  1  0.44438378  0.08329112  0.81357716  1
  O  O316  1  0.44360794  0.41697315  0.06375795  1
  O  O317  1  0.44050433  0.41749927  0.31294429  1
  O  O318  1  0.44053601  0.41688063  0.56239444  1
  O  O319  1  0.44214373  0.41760820  0.81208473  1
  O  O320  1  0.44202926  0.74969345  0.06314603  1
  O  O321  1  0.44185315  0.74971258  0.31241258  1
  O  O322  1  0.44361093  0.74934539  0.56290656  1
  O  O323  1  0.44451440  0.74952125  0.81371681  1
  O  O324  1  0.94351294  0.08366653  0.06390191  1
  O  O325  1  0.94259334  0.08354599  0.31383237  1
  O  O326  1  0.94015906  0.08351418  0.56183945  1
  O  O327  1  0.94282218  0.08319135  0.81294809  1
  O  O328  1  0.94110562  0.41761382  0.06253340  1
  O  O329  1  0.94436766  0.41689243  0.31325966  1
  O  O330  1  0.94380512  0.41681412  0.56300876  1
  O  O331  1  0.94305518  0.41728311  0.81348263  1
  O  O332  1  0.93963997  0.74892398  0.06273521  1
  O  O333  1  0.94164673  0.74955848  0.31135053  1
  O  O334  1  0.94327208  0.74994981  0.56362687  1
  O  O335  1  0.93967021  0.74955540  0.81280251  1
  O  O336  1  0.19460921  0.08345852  0.06118402  1
  O  O337  1  0.19344857  0.08282463  0.31173579  1
  O  O338  1  0.19439515  0.08309797  0.56216823  1
  O  O339  1  0.19343410  0.08292745  0.81171863  1
  O  O340  1  0.19317869  0.41638134  0.06161501  1
  O  O341  1  0.19210722  0.41742834  0.31287013  1
  O  O342  1  0.19410286  0.41686546  0.56125955  1
  O  O343  1  0.19127529  0.41649283  0.81314036  1
  O  O344  1  0.19414227  0.74998105  0.06177770  1
  O  O345  1  0.19129055  0.75001397  0.31297009  1
  O  O346  1  0.19221833  0.75026182  0.56136767  1
  O  O347  1  0.19346424  0.75014045  0.81198543  1
  O  O348  1  0.69064874  0.08332721  0.06290867  1
  O  O349  1  0.69336185  0.08317377  0.31088398  1
  O  O350  1  0.69142058  0.08316603  0.56310025  1
  O  O351  1  0.69278171  0.08321566  0.81144974  1
  O  O352  1  0.69423830  0.41721561  0.06200995  1
  O  O353  1  0.69305058  0.41745729  0.31208244  1
  O  O354  1  0.69081334  0.41662729  0.56266017  1
  O  O355  1  0.69377136  0.41670618  0.81078803  1
  O  O356  1  0.69113839  0.74969038  0.06271031  1
  O  O357  1  0.69114537  0.74931574  0.31253613  1
  O  O358  1  0.69347583  0.74986766  0.56094162  1
  O  O359  1  0.69240939  0.75042819  0.81286627  1
  O  O360  1  0.30967481  0.25017086  0.18706916  1
  O  O361  1  0.30624641  0.25002999  0.43867893  1
  O  O362  1  0.30948502  0.25030919  0.68680752  1
  O  O363  1  0.30704342  0.25007120  0.93890143  1
  O  O364  1  0.30935417  0.58391163  0.18756436  1
  O  O365  1  0.30780012  0.58384382  0.43689362  1
  O  O366  1  0.30566838  0.58301434  0.68838311  1
  O  O367  1  0.30753023  0.58375845  0.93913099  1
  O  O368  1  0.30622995  0.91562218  0.18851733  1
  O  O369  1  0.30675835  0.91636423  0.43915635  1
  O  O370  1  0.31060668  0.91647362  0.68762920  1
  O  O371  1  0.30992975  0.91599476  0.93681772  1
  O  O372  1  0.80791574  0.25021692  0.18770738  1
  O  O373  1  0.80560027  0.25011457  0.43816458  1
  O  O374  1  0.80567363  0.24999069  0.68856515  1
  O  O375  1  0.80928528  0.25049005  0.93763153  1
  O  O376  1  0.80805863  0.58329038  0.18833140  1
  O  O377  1  0.81032711  0.58321662  0.43734083  1
  O  O378  1  0.80809097  0.58319213  0.68664365  1
  O  O379  1  0.80575598  0.58308775  0.93875118  1
  O  O380  1  0.80625330  0.91623267  0.18884703  1
  O  O381  1  0.80875649  0.91608909  0.43744358  1
  O  O382  1  0.80734520  0.91652023  0.68764639  1
  O  O383  1  0.80768449  0.91694964  0.93715484  1
  O  O384  1  0.23475502  0.25009522  0.04135682  1
  O  O385  1  0.23528780  0.25017444  0.28784541  1
  O  O386  1  0.23320344  0.25079791  0.54049429  1
  O  O387  1  0.23520066  0.25037510  0.78790082  1
  O  O388  1  0.23506159  0.58355569  0.04131541  1
  O  O389  1  0.23431400  0.58375600  0.28788463  1
  O  O390  1  0.23243199  0.58284938  0.53706368  1
  O  O391  1  0.23237408  0.58310230  0.79025200  1
  O  O392  1  0.23585473  0.91597910  0.03808179  1
  O  O393  1  0.23223097  0.91588959  0.28992157  1
  O  O394  1  0.23432800  0.91655859  0.54122360  1
  O  O395  1  0.23578021  0.91637600  0.78819283  1
  O  O396  1  0.73529947  0.25085741  0.03853100  1
  O  O397  1  0.73230789  0.25004373  0.28769548  1
  O  O398  1  0.73142119  0.24936010  0.53924539  1
  O  O399  1  0.73153756  0.25047708  0.78950624  1
  O  O400  1  0.73274771  0.58350272  0.04060806  1
  O  O401  1  0.73339345  0.58343124  0.28884035  1
  O  O402  1  0.73543802  0.58401301  0.53749626  1
  O  O403  1  0.73287638  0.58327899  0.78705707  1
  O  O404  1  0.73426097  0.91517228  0.03865791  1
  O  O405  1  0.73410081  0.91653014  0.29088422  1
  O  O406  1  0.73348281  0.91625479  0.53776254  1
  O  O407  1  0.73272449  0.91682232  0.78836556  1
  O  O408  1  0.26662574  0.08196557  0.21007825  1
  O  O409  1  0.26850711  0.08370990  0.46086170  1
  O  O410  1  0.26679558  0.08349629  0.71044662  1
  O  O411  1  0.26904664  0.08328272  0.96026040  1
  O  O412  1  0.26712728  0.41786340  0.21256407  1
  O  O413  1  0.26738153  0.41638475  0.45973684  1
  O  O414  1  0.26644264  0.41758729  0.71231559  1
  O  O415  1  0.26598551  0.41671910  0.96000278  1
  O  O416  1  0.26665202  0.74946371  0.21262646  1
  O  O417  1  0.26495658  0.74991160  0.45963235  1
  O  O418  1  0.26628689  0.74881716  0.70987399  1
  O  O419  1  0.26879232  0.74995427  0.96096366  1
  O  O420  1  0.76535506  0.08325952  0.20848733  1
  O  O421  1  0.76617718  0.08355718  0.46212539  1
  O  O422  1  0.76472564  0.08294968  0.70915782  1
  O  O423  1  0.76527339  0.08407863  0.96218915  1
  O  O424  1  0.76598707  0.41726820  0.21039910  1
  O  O425  1  0.76505286  0.41624077  0.46146141  1
  O  O426  1  0.76520333  0.41666982  0.70803632  1
  O  O427  1  0.76813572  0.41789932  0.96048921  1
  O  O428  1  0.76612743  0.74926299  0.21225508  1
  O  O429  1  0.76600346  0.74997950  0.45929685  1
  O  O430  1  0.76658470  0.75011239  0.71149030  1
  O  O431  1  0.76595877  0.74909909  0.96216940  1
  O  O432  1  0.01628930  0.08398372  0.16605629  1
  O  O433  1  0.01529057  0.08229387  0.41560373  1
  O  O434  1  0.01438202  0.08318232  0.66301795  1
  O  O435  1  0.01536001  0.08338549  0.91551249  1
  O  O436  1  0.01469939  0.41672833  0.16402434  1
  O  O437  1  0.01852860  0.41789305  0.41437073  1
  O  O438  1  0.01651768  0.41672865  0.66490287  1
  O  O439  1  0.01675727  0.41701387  0.91498884  1
  O  O440  1  0.01399884  0.74977172  0.16335528  1
  O  O441  1  0.01669346  0.74937093  0.41199025  1
  O  O442  1  0.01453611  0.75019142  0.66653020  1
  O  O443  1  0.01377423  0.74961007  0.91402691  1
  O  O444  1  0.51731899  0.08360642  0.16354853  1
  O  O445  1  0.51617332  0.08308811  0.41587676  1
  O  O446  1  0.51725316  0.08366963  0.66190469  1
  O  O447  1  0.51624827  0.08292803  0.91598446  1
  O  O448  1  0.51552923  0.41731843  0.16620145  1
  O  O449  1  0.51438321  0.41734412  0.41385584  1
  O  O450  1  0.51596564  0.41639661  0.66246418  1
  O  O451  1  0.51627760  0.41705311  0.91338712  1
  O  O452  1  0.51664760  0.74984397  0.16353354  1
  O  O453  1  0.51700534  0.74878669  0.41303166  1
  O  O454  1  0.51684883  0.75051869  0.66447333  1
  O  O455  1  0.51824352  0.74977856  0.91504974  1
  O  O456  1  0.48304504  0.25058917  0.08721279  1
  O  O457  1  0.48485689  0.25031647  0.33700748  1
  O  O458  1  0.48363925  0.25036092  0.58639387  1
  O  O459  1  0.48417672  0.24975545  0.83420758  1
  O  O460  1  0.48377944  0.58346572  0.08729753  1
  O  O461  1  0.48253692  0.58402409  0.33498969  1
  O  O462  1  0.48453038  0.58281455  0.58695793  1
  O  O463  1  0.48599187  0.58409350  0.83602525  1
  O  O464  1  0.48421205  0.91568284  0.08537465  1
  O  O465  1  0.48470673  0.91646678  0.33671253  1
  O  O466  1  0.48440545  0.91661085  0.58671305  1
  O  O467  1  0.48317248  0.91654334  0.83449613  1
  O  O468  1  0.98165580  0.25066497  0.08597934  1
  O  O469  1  0.98515992  0.25030077  0.33766068  1
  O  O470  1  0.98413415  0.25036435  0.58395065  1
  O  O471  1  0.98154808  0.25023672  0.83528263  1
  O  O472  1  0.98228086  0.58325541  0.08802158  1
  O  O473  1  0.98450492  0.58356583  0.33631736  1
  O  O474  1  0.98373525  0.58408910  0.58684385  1
  O  O475  1  0.98380645  0.58297441  0.83533589  1
  O  O476  1  0.98422129  0.91626248  0.08730240  1
  O  O477  1  0.98234053  0.91648288  0.33515890  1
  O  O478  1  0.98065679  0.91548149  0.58587415  1
  O  O479  1  0.98105457  0.91675142  0.83609623  1
  O  O480  1  0.08564477  0.31523615  0.07722444  1
  O  O481  1  0.08839909  0.31622693  0.32833255  1
  O  O482  1  0.08868032  0.31459801  0.57680941  1
  O  O483  1  0.08523432  0.31615253  0.82764284  1
  O  O484  1  0.08565727  0.64857962  0.07732767  1
  O  O485  1  0.08848439  0.64831707  0.32709170  1
  O  O486  1  0.08757422  0.64874342  0.57726237  1
  O  O487  1  0.08791198  0.64752944  0.82726243  1
  O  O488  1  0.08774793  0.98148889  0.07756435  1
  O  O489  1  0.08692028  0.98055896  0.32678274  1
  O  O490  1  0.08420173  0.98131647  0.57660863  1
  O  O491  1  0.08509292  0.98150795  0.82733089  1
  O  O492  1  0.58668231  0.31516035  0.07764658  1
  O  O493  1  0.58857222  0.31520935  0.32727595  1
  O  O494  1  0.58731836  0.31548749  0.57714135  1
  O  O495  1  0.58791162  0.31522050  0.82641347  1
  O  O496  1  0.58738562  0.64938671  0.07790959  1
  O  O497  1  0.58686814  0.64894222  0.32673910  1
  O  O498  1  0.58826962  0.64739190  0.57763079  1
  O  O499  1  0.58958988  0.64983707  0.82829761  1
  O  O500  1  0.58761734  0.98138546  0.07802637  1
  O  O501  1  0.58865207  0.98043934  0.32822716  1
  O  O502  1  0.58796234  0.98253140  0.57718802  1
  O  O503  1  0.58766222  0.98020410  0.82657754  1
  O  O504  1  0.41386159  0.01867685  0.17284414  1
  O  O505  1  0.41192681  0.01846976  0.42347402  1
  O  O506  1  0.41381440  0.01850098  0.67135661  1
  O  O507  1  0.41282202  0.01675944  0.92222176  1
  O  O508  1  0.41162511  0.35207101  0.17300340  1
  O  O509  1  0.41029021  0.35355692  0.42312740  1
  O  O510  1  0.41238084  0.35072331  0.67213594  1
  O  O511  1  0.41259385  0.35221991  0.92164033  1
  O  O512  1  0.41303887  0.68391128  0.17298908  1
  O  O513  1  0.41322186  0.68374800  0.42215223  1
  O  O514  1  0.41339301  0.68525489  0.67272661  1
  O  O515  1  0.41381809  0.68591573  0.92360612  1
  O  O516  1  0.91237107  0.01937310  0.17301158  1
  O  O517  1  0.91101999  0.01730693  0.42238986  1
  O  O518  1  0.91093811  0.01743105  0.67125136  1
  O  O519  1  0.91152328  0.01825043  0.92220655  1
  O  O520  1  0.91105484  0.35170984  0.17200834  1
  O  O521  1  0.91460303  0.35277477  0.42303501  1
  O  O522  1  0.91226332  0.35269854  0.67220731  1
  O  O523  1  0.91276378  0.35125002  0.92242969  1
  O  O524  1  0.91072918  0.68343357  0.17284195  1
  O  O525  1  0.91315471  0.68449649  0.42143286  1
  O  O526  1  0.91091148  0.68444109  0.67256878  1
  O  O527  1  0.90958242  0.68565608  0.92279595  1
  O  O528  1  0.16286833  0.01666195  0.20286604  1
  O  O529  1  0.16437354  0.01902361  0.45261701  1
  O  O530  1  0.16322176  0.01780867  0.70223477  1
  O  O531  1  0.16508814  0.01833047  0.95166046  1
  O  O532  1  0.16346015  0.35303086  0.20265916  1
  O  O533  1  0.16336417  0.35134808  0.45207945  1
  O  O534  1  0.16298965  0.35267887  0.70265889  1
  O  O535  1  0.16206277  0.35149659  0.95204869  1
  O  O536  1  0.16291791  0.68468369  0.20297960  1
  O  O537  1  0.16122386  0.68429477  0.45218932  1
  O  O538  1  0.16232827  0.68379336  0.70343643  1
  O  O539  1  0.16479067  0.68475152  0.95260082  1
  O  O540  1  0.66102026  0.01914642  0.20173758  1
  O  O541  1  0.66308745  0.01773782  0.45313042  1
  O  O542  1  0.66062880  0.01828449  0.70231948  1
  O  O543  1  0.66227734  0.01819010  0.95289650  1
  O  O544  1  0.66228878  0.35219608  0.20267638  1
  O  O545  1  0.66142916  0.35080341  0.45335373  1
  O  O546  1  0.66112529  0.35153081  0.70201068  1
  O  O547  1  0.66423003  0.35308864  0.95235629  1
  O  O548  1  0.66244035  0.68362007  0.20265056  1
  O  O549  1  0.66162702  0.68593029  0.45137704  1
  O  O550  1  0.66296616  0.68516660  0.70297072  1
  O  O551  1  0.66253128  0.68327153  0.95318431  1
  O  O552  1  0.33919878  0.31412511  0.04810809  1
  O  O553  1  0.33841628  0.31610839  0.29676845  1
  O  O554  1  0.33746688  0.31552690  0.54768022  1
  O  O555  1  0.33831460  0.31661071  0.79632113  1
  O  O556  1  0.33878382  0.64962940  0.04808208  1
  O  O557  1  0.33796894  0.64898718  0.29784412  1
  O  O558  1  0.33609713  0.64763656  0.54744781  1
  O  O559  1  0.33669306  0.64716752  0.79776145  1
  O  O560  1  0.33917229  0.98161789  0.04658484  1
  O  O561  1  0.33660367  0.97997739  0.29784091  1
  O  O562  1  0.33824075  0.98248516  0.54796458  1
  O  O563  1  0.33975288  0.98122270  0.79753995  1
  O  O564  1  0.83857604  0.31698486  0.04704625  1
  O  O565  1  0.83604689  0.31490822  0.29811563  1
  O  O566  1  0.83520624  0.31429281  0.54792508  1
  O  O567  1  0.83596023  0.31499808  0.79788661  1
  O  O568  1  0.83672606  0.64834480  0.04813625  1
  O  O569  1  0.83713152  0.64924294  0.29801096  1
  O  O570  1  0.83938431  0.64833445  0.54724946  1
  O  O571  1  0.83618410  0.64884532  0.79677635  1
  O  O572  1  0.83752059  0.98072622  0.04738350  1
  O  O573  1  0.83855571  0.98021659  0.29814363  1
  O  O574  1  0.83666956  0.98243414  0.54738188  1
  O  O575  1  0.83688962  0.98086116  0.79777752  1
  O  O576  1  0.41374161  0.14896233  0.17230346  1
  O  O577  1  0.41239334  0.14846887  0.42360932  1
  O  O578  1  0.41374134  0.14880213  0.67161483  1
  O  O579  1  0.41188349  0.14689073  0.92307801  1
  O  O580  1  0.41147664  0.48222211  0.17269421  1
  O  O581  1  0.41119635  0.48374658  0.42242281  1
  O  O582  1  0.41196924  0.48080810  0.67304224  1
  O  O583  1  0.41288923  0.48234581  0.92199994  1
  O  O584  1  0.41236321  0.81380891  0.17356650  1
  O  O585  1  0.41348507  0.81386253  0.42264963  1
  O  O586  1  0.41309711  0.81554802  0.67166874  1
  O  O587  1  0.41468054  0.81597376  0.92280932  1
  O  O588  1  0.91266985  0.14974764  0.17280426  1
  O  O589  1  0.91129233  0.14746155  0.42348426  1
  O  O590  1  0.91071831  0.14777992  0.67183603  1
  O  O591  1  0.91151327  0.14855131  0.92167561  1
  O  O592  1  0.91123140  0.48207079  0.17246280  1
  O  O593  1  0.91449298  0.48294788  0.42215395  1
  O  O594  1  0.91322471  0.48295563  0.67208089  1
  O  O595  1  0.91247600  0.48125961  0.92334968  1
  O  O596  1  0.90960493  0.81340010  0.17268944  1
  O  O597  1  0.91309428  0.81465632  0.42135141  1
  O  O598  1  0.91004505  0.81455524  0.67254987  1
  O  O599  1  0.91027144  0.81581348  0.92216930  1
  O  O600  1  0.08526196  0.18514497  0.07671374  1
  O  O601  1  0.08886088  0.18570952  0.32815418  1
  O  O602  1  0.08797308  0.18465488  0.57649510  1
  O  O603  1  0.08573587  0.18588741  0.82718697  1
  O  O604  1  0.08611080  0.51852777  0.07801836  1
  O  O605  1  0.08833774  0.51821230  0.32701163  1
  O  O606  1  0.08751305  0.51877226  0.57699293  1
  O  O607  1  0.08766824  0.51738544  0.82803203  1
  O  O608  1  0.08767802  0.85126010  0.07724308  1
  O  O609  1  0.08602987  0.85050310  0.32655545  1
  O  O610  1  0.08490466  0.85135673  0.57723124  1
  O  O611  1  0.08468984  0.85128732  0.82718262  1
  O  O612  1  0.58660206  0.18501739  0.07816723  1
  O  O613  1  0.58856280  0.18515025  0.32733185  1
  O  O614  1  0.58760750  0.18538799  0.57719856  1
  O  O615  1  0.58828011  0.18524732  0.82688725  1
  O  O616  1  0.58788322  0.51938873  0.07706402  1
  O  O617  1  0.58644257  0.51909334  0.32608276  1
  O  O618  1  0.58783658  0.51720482  0.57804970  1
  O  O619  1  0.58999947  0.51975932  0.82720003  1
  O  O620  1  0.58811408  0.85099427  0.07836464  1
  O  O621  1  0.58779579  0.85019267  0.32847549  1
  O  O622  1  0.58863441  0.85253180  0.57677783  1
  O  O623  1  0.58676773  0.85016852  0.82681431  1
  O  O624  1  0.33857013  0.18397506  0.04766348  1
  O  O625  1  0.33905164  0.18579058  0.29706368  1
  O  O626  1  0.33732823  0.18544736  0.54824333  1
  O  O627  1  0.33913085  0.18630023  0.79669759  1
  O  O628  1  0.33944538  0.51953630  0.04840612  1
  O  O629  1  0.33823940  0.51894488  0.29761687  1
  O  O630  1  0.33604134  0.51749949  0.54662051  1
  O  O631  1  0.33608110  0.51721173  0.79760191  1
  O  O632  1  0.33951566  0.85119406  0.04672760  1
  O  O633  1  0.33580137  0.84987414  0.29793775  1
  O  O634  1  0.33880881  0.85236310  0.54832611  1
  O  O635  1  0.33957037  0.85124914  0.79757670  1
  O  O636  1  0.83935369  0.18679507  0.04805694  1
  O  O637  1  0.83588064  0.18483809  0.29767055  1
  O  O638  1  0.83519693  0.18419560  0.54752352  1
  O  O639  1  0.83530585  0.18502240  0.79827020  1
  O  O640  1  0.83686856  0.51835338  0.04824988  1
  O  O641  1  0.83771789  0.51936886  0.29863829  1
  O  O642  1  0.83886085  0.51829283  0.54759880  1
  O  O643  1  0.83653103  0.51878621  0.79692272  1
  O  O644  1  0.83804341  0.85047611  0.04614414  1
  O  O645  1  0.83752407  0.85012652  0.29784782  1
  O  O646  1  0.83757116  0.85227137  0.54777061  1
  O  O647  1  0.83636113  0.85081965  0.79738912  1
  O  O648  1  0.16310350  0.14713337  0.20204968  1
  O  O649  1  0.16485402  0.14925694  0.45293001  1
  O  O650  1  0.16270955  0.14806837  0.70258891  1
  O  O651  1  0.16519116  0.14858206  0.95178356  1
  O  O652  1  0.16350981  0.48325670  0.20306822  1
  O  O653  1  0.16325943  0.48145138  0.45162011  1
  O  O654  1  0.16283777  0.48288498  0.70355277  1
  O  O655  1  0.16179424  0.48153049  0.95260488  1
  O  O656  1  0.16319263  0.81500981  0.20284137  1
  O  O657  1  0.16067600  0.81441783  0.45194497  1
  O  O658  1  0.16271248  0.81414001  0.70238792  1
  O  O659  1  0.16477322  0.81474881  0.95183590  1
  O  O660  1  0.66162371  0.14928557  0.20203121  1
  O  O661  1  0.66217994  0.14798335  0.45329518  1
  O  O662  1  0.66095009  0.14849741  0.70231576  1
  O  O663  1  0.66146011  0.14847388  0.95328683  1
  O  O664  1  0.66235166  0.48254821  0.20293046  1
  O  O665  1  0.66156728  0.48104782  0.45263443  1
  O  O666  1  0.66110977  0.48167320  0.70182072  1
  O  O667  1  0.66427668  0.48315615  0.95296939  1
  O  O668  1  0.66221716  0.81365895  0.20215816  1
  O  O669  1  0.66223037  0.81593026  0.45208813  1
  O  O670  1  0.66313737  0.81540345  0.70300549  1
  O  O671  1  0.66194063  0.81325277  0.95199857  1
