# generated using pymatgen
data_Na2MnFe(PO4)2
_symmetry_space_group_name_H-M   'P 1'
_cell_length_a   21.08256506
_cell_length_b   18.93440622
_cell_length_c   20.04145675
_cell_angle_alpha   90.00018575
_cell_angle_beta   90.00061169
_cell_angle_gamma   89.99643017
_symmetry_Int_Tables_number   1
_chemical_formula_structural   Na2MnFe(PO4)2
_chemical_formula_sum   'Na96 Mn48 Fe48 P96 O384'
_cell_volume   8000.26595142
_cell_formula_units_Z   48
loop_
 _symmetry_equiv_pos_site_id
 _symmetry_equiv_pos_as_xyz
  1  'x, y, z'
loop_
 _atom_site_type_symbol
 _atom_site_label
 _atom_site_symmetry_multiplicity
 _atom_site_fract_x
 _atom_site_fract_y
 _atom_site_fract_z
 _atom_site_occupancy
  Na  Na0  1  -0.00015081  0.00002217  -0.00054374  1
  Na  Na1  1  -0.00028532  -0.00013056  0.25137624  1
  Na  Na2  1  0.00256315  0.00117838  0.49953169  1
  Na  Na3  1  0.00042004  -0.00021163  0.74965043  1
  Na  Na4  1  0.00095544  0.33454735  -0.00007886  1
  Na  Na5  1  0.00020244  0.33441748  0.25026299  1
  Na  Na6  1  -0.00086183  0.33395275  0.50002559  1
  Na  Na7  1  -0.00126527  0.33316344  0.74932633  1
  Na  Na8  1  -0.00058513  0.66689309  -0.00046849  1
  Na  Na9  1  -0.00115635  0.66630541  0.25121704  1
  Na  Na10  1  0.00004562  0.66636982  0.50045384  1
  Na  Na11  1  0.00148281  0.66752540  0.74916324  1
  Na  Na12  1  0.50194977  0.00083360  -0.00043374  1
  Na  Na13  1  0.49910415  -0.00050702  0.25061184  1
  Na  Na14  1  0.49843653  -0.00012908  0.50001240  1
  Na  Na15  1  0.49857282  -0.00067723  0.74990822  1
  Na  Na16  1  0.50038607  0.33318069  0.00002841  1
  Na  Na17  1  0.50097906  0.33363908  0.24922213  1
  Na  Na18  1  0.49762087  0.33300932  0.50112915  1
  Na  Na19  1  0.49881735  0.33328820  0.74993703  1
  Na  Na20  1  0.49669778  0.66502959  0.00058132  1
  Na  Na21  1  0.50056262  0.66663399  0.24984539  1
  Na  Na22  1  0.50042593  0.66635617  0.50010259  1
  Na  Na23  1  0.49859364  0.66609095  0.74961619  1
  Na  Na24  1  0.25029493  -0.00027250  0.12369041  1
  Na  Na25  1  0.25216908  0.00089820  0.37572797  1
  Na  Na26  1  0.24767333  -0.00108897  0.62434225  1
  Na  Na27  1  0.24906477  -0.00002802  0.87596455  1
  Na  Na28  1  0.24931840  0.33370921  0.12454240  1
  Na  Na29  1  0.24949752  0.33355954  0.37511923  1
  Na  Na30  1  0.25177973  0.33468567  0.62571514  1
  Na  Na31  1  0.25156746  0.33454466  0.87524346  1
  Na  Na32  1  0.25136343  0.66693825  0.12425962  1
  Na  Na33  1  0.25076114  0.66630451  0.37398546  1
  Na  Na34  1  0.24905269  0.66582113  0.62541360  1
  Na  Na35  1  0.24938509  0.66632539  0.87591772  1
  Na  Na36  1  0.74874540  -0.00061083  0.12398303  1
  Na  Na37  1  0.75088157  0.00090525  0.37490112  1
  Na  Na38  1  0.75072910  -0.00017853  0.62540648  1
  Na  Na39  1  0.75219141  0.00080798  0.87575267  1
  Na  Na40  1  0.74817819  0.33283446  0.12380106  1
  Na  Na41  1  0.75086524  0.33404675  0.37522145  1
  Na  Na42  1  0.75220125  0.33414780  0.62658454  1
  Na  Na43  1  0.74926039  0.33310690  0.87400993  1
  Na  Na44  1  0.75194014  0.66743727  0.12569955  1
  Na  Na45  1  0.74881053  0.66587078  0.37389155  1
  Na  Na46  1  0.75099190  0.66710550  0.62537875  1
  Na  Na47  1  0.75269457  0.66762745  0.87506366  1
  Na  Na48  1  -0.00010186  0.16645945  -0.00059720  1
  Na  Na49  1  -0.00032494  0.16672110  0.25071029  1
  Na  Na50  1  -0.00095159  0.16722682  0.49923504  1
  Na  Na51  1  -0.00083466  0.16703107  0.75036507  1
  Na  Na52  1  0.00035854  0.49968593  -0.00063478  1
  Na  Na53  1  -0.00032890  0.49998555  0.25130928  1
  Na  Na54  1  0.00209238  0.49904810  0.50021757  1
  Na  Na55  1  0.00192494  0.49909686  0.74920168  1
  Na  Na56  1  0.00032610  0.83234252  0.00022743  1
  Na  Na57  1  -0.00055902  0.83288403  0.25088233  1
  Na  Na58  1  -0.00056568  0.83365620  0.50025916  1
  Na  Na59  1  -0.00038245  0.83324066  0.74860149  1
  Na  Na60  1  0.50142140  0.16713177  0.00008189  1
  Na  Na61  1  0.50187250  0.16602675  0.25051621  1
  Na  Na62  1  0.49818622  0.16734967  0.50007833  1
  Na  Na63  1  0.49928666  0.16763614  0.74992467  1
  Na  Na64  1  0.49875350  0.49990109  0.00009596  1
  Na  Na65  1  0.49930114  0.50077841  0.25024121  1
  Na  Na66  1  0.49902174  0.50047200  0.50023223  1
  Na  Na67  1  0.49820502  0.49979205  0.74944679  1
  Na  Na68  1  0.49864796  0.83382331  -0.00013601  1
  Na  Na69  1  0.49954022  0.83295964  0.24892648  1
  Na  Na70  1  0.49887049  0.83289048  0.50090503  1
  Na  Na71  1  0.49895494  0.83308116  0.75004682  1
  Na  Na72  1  0.25015969  0.16696751  0.12345046  1
  Na  Na73  1  0.25215551  0.16551666  0.37586945  1
  Na  Na74  1  0.25116115  0.16640370  0.62547400  1
  Na  Na75  1  0.25110198  0.16669748  0.87526682  1
  Na  Na76  1  0.25076672  0.49962399  0.12506588  1
  Na  Na77  1  0.25027924  0.49958053  0.37455763  1
  Na  Na78  1  0.24878683  0.49992878  0.62445774  1
  Na  Na79  1  0.24942389  0.49950357  0.87577255  1
  Na  Na80  1  0.24935409  0.83350647  0.12420957  1
  Na  Na81  1  0.25066108  0.83301471  0.37432052  1
  Na  Na82  1  0.24921460  0.83346651  0.62551094  1
  Na  Na83  1  0.24986651  0.83254083  0.87608325  1
  Na  Na84  1  0.74794694  0.16753772  0.12366822  1
  Na  Na85  1  0.74902864  0.16742516  0.37522251  1
  Na  Na86  1  0.75208423  0.16659046  0.62533452  1
  Na  Na87  1  0.75081599  0.16704820  0.87537530  1
  Na  Na88  1  0.75114003  0.49977536  0.12448733  1
  Na  Na89  1  0.75020614  0.50037734  0.37433537  1
  Na  Na90  1  0.75031892  0.49946885  0.62621474  1
  Na  Na91  1  0.74971534  0.50031156  0.87492597  1
  Na  Na92  1  0.75003450  0.83302614  0.12528665  1
  Na  Na93  1  0.75033522  0.83243397  0.37459853  1
  Na  Na94  1  0.75213167  0.83234207  0.62548478  1
  Na  Na95  1  0.75207455  0.83298260  0.87481631  1
  Mn  Mn96  1  0.39309023  0.24970914  0.12743465  1
  Mn  Mn97  1  0.14274175  0.91695658  0.24770235  1
  Mn  Mn98  1  0.35779436  0.41580747  0.25242936  1
  Mn  Mn99  1  0.89217700  0.91662457  0.12770061  1
  Mn  Mn100  1  0.60741903  0.41660081  0.62301477  1
  Mn  Mn101  1  0.89172965  0.58313717  0.37780752  1
  Mn  Mn102  1  0.60719436  0.74916689  0.87337474  1
  Mn  Mn103  1  0.60800842  0.75022540  0.12202849  1
  Mn  Mn104  1  0.10803344  0.74951979  0.37303077  1
  Mn  Mn105  1  0.35695146  0.08335720  0.75272910  1
  Mn  Mn106  1  0.60779134  0.08353783  0.87176093  1
  Mn  Mn107  1  0.89188299  0.25043050  0.12737432  1
  Mn  Mn108  1  0.85820114  0.08335748  0.50276082  1
  Mn  Mn109  1  0.14164315  0.91647786  0.99777124  1
  Mn  Mn110  1  0.89318734  0.58340314  0.87686520  1
  Mn  Mn111  1  0.60781753  0.08334869  0.62330458  1
  Mn  Mn112  1  0.89143590  0.25030567  0.37668417  1
  Mn  Mn113  1  0.39216770  0.25036560  0.37718823  1
  Mn  Mn114  1  0.85751144  0.08320388  0.00289275  1
  Mn  Mn115  1  0.64197857  0.91591707  0.49754827  1
  Mn  Mn116  1  0.60823972  0.74999590  0.62308891  1
  Mn  Mn117  1  0.39100845  0.91685482  0.62771343  1
  Mn  Mn118  1  0.14229864  0.58363883  0.24720139  1
  Mn  Mn119  1  0.10708210  0.08330072  0.87223335  1
  Mn  Mn120  1  0.60723567  0.08262387  0.37301413  1
  Mn  Mn121  1  0.14207014  0.24921450  0.24734667  1
  Mn  Mn122  1  0.39128752  0.58284764  0.62711202  1
  Mn  Mn123  1  0.35807643  0.75070866  0.25242351  1
  Mn  Mn124  1  0.64209569  0.58338978  0.74849061  1
  Mn  Mn125  1  0.10803434  0.75008478  0.62181682  1
  Mn  Mn126  1  0.89279863  0.58270254  0.62691507  1
  Mn  Mn127  1  0.14229241  0.25000421  0.74756611  1
  Mn  Mn128  1  0.60801180  0.41716242  0.37345366  1
  Mn  Mn129  1  0.35682315  0.74971035  0.75293562  1
  Mn  Mn130  1  0.89298325  0.91749560  0.62692032  1
  Mn  Mn131  1  0.64230034  0.58389884  0.99741274  1
  Mn  Mn132  1  0.35836596  0.08336302  0.00255800  1
  Mn  Mn133  1  0.60819628  0.41661458  0.12265495  1
  Mn  Mn134  1  0.89191834  0.91671331  0.37746981  1
  Mn  Mn135  1  0.10888449  0.08419718  0.37219954  1
  Mn  Mn136  1  0.85769079  0.41737997  0.00171033  1
  Mn  Mn137  1  0.14255414  0.25006624  0.49828036  1
  Mn  Mn138  1  0.64203277  0.91692403  0.24817049  1
  Mn  Mn139  1  0.64245587  0.25083142  0.49864230  1
  Mn  Mn140  1  0.64290291  0.91707346  0.74839731  1
  Mn  Mn141  1  0.14206552  0.58318561  0.99856955  1
  Mn  Mn142  1  0.14214460  0.25035168  0.99770089  1
  Mn  Mn143  1  0.39278832  0.91690706  0.12700706  1
  Fe  Fe144  1  0.85779195  0.41764593  0.50202724  1
  Fe  Fe145  1  0.35736310  0.41712137  0.00177443  1
  Fe  Fe146  1  0.39182228  0.91647825  0.87690286  1
  Fe  Fe147  1  0.85666761  0.74936918  0.50112225  1
  Fe  Fe148  1  0.85837611  0.08336760  0.75150368  1
  Fe  Fe149  1  0.10724068  0.41650344  0.37352362  1
  Fe  Fe150  1  0.14271581  0.58335083  0.74856828  1
  Fe  Fe151  1  0.64303087  0.58288322  0.24807538  1
  Fe  Fe152  1  0.85718129  0.75003865  0.25199373  1
  Fe  Fe153  1  0.10720078  0.08438900  0.62351365  1
  Fe  Fe154  1  0.39240351  0.91565344  0.37708357  1
  Fe  Fe155  1  0.39318695  0.58387372  0.37691804  1
  Fe  Fe156  1  0.35749796  0.74957052  0.50107297  1
  Fe  Fe157  1  0.35714395  0.08333312  0.50247202  1
  Fe  Fe158  1  0.14365812  0.91603464  0.49795354  1
  Fe  Fe159  1  0.35666996  0.41710690  0.75234171  1
  Fe  Fe160  1  0.89282862  0.58312014  0.12663801  1
  Fe  Fe161  1  0.14190379  0.91625724  0.74874705  1
  Fe  Fe162  1  0.89281417  0.25007586  0.62679246  1
  Fe  Fe163  1  0.64313909  0.91616505  0.99742610  1
  Fe  Fe164  1  0.85740586  0.41646792  0.25130830  1
  Fe  Fe165  1  0.10769159  0.41674960  0.87276970  1
  Fe  Fe166  1  0.60817515  0.08300375  0.12390394  1
  Fe  Fe167  1  0.10710725  0.74980909  0.87325318  1
  Fe  Fe168  1  0.35827163  0.08357077  0.25094305  1
  Fe  Fe169  1  0.89260682  0.25016464  0.87651868  1
  Fe  Fe170  1  0.64248194  0.25006595  0.99687999  1
  Fe  Fe171  1  0.39282435  0.58310956  0.12716275  1
  Fe  Fe172  1  0.10657449  0.74971938  0.12357221  1
  Fe  Fe173  1  0.10689109  0.41688165  0.12373512  1
  Fe  Fe174  1  0.60605978  0.41706072  0.87328219  1
  Fe  Fe175  1  0.39335617  0.25013415  0.87685045  1
  Fe  Fe176  1  0.10766044  0.08338121  0.12407763  1
  Fe  Fe177  1  0.64348075  0.25000282  0.74827461  1
  Fe  Fe178  1  0.39207385  0.24996494  0.62741066  1
  Fe  Fe179  1  0.39133615  0.58292651  0.87669055  1
  Fe  Fe180  1  0.35677016  0.74937532  0.00144958  1
  Fe  Fe181  1  0.14348828  0.58359825  0.49800948  1
  Fe  Fe182  1  0.89305802  0.91673656  0.87641068  1
  Fe  Fe183  1  0.60703401  0.74986163  0.37394664  1
  Fe  Fe184  1  0.35655747  0.41676465  0.50164070  1
  Fe  Fe185  1  0.64281213  0.58314964  0.49850410  1
  Fe  Fe186  1  0.85829002  0.75020607  0.00188307  1
  Fe  Fe187  1  0.64278204  0.25049965  0.24887381  1
  Fe  Fe188  1  0.85776810  0.41671710  0.75238040  1
  Fe  Fe189  1  0.10738385  0.41562269  0.62316099  1
  Fe  Fe190  1  0.85710650  0.08370751  0.25066795  1
  Fe  Fe191  1  0.85832999  0.75005346  0.75200872  1
  P  P192  1  0.05309033  0.25006409  0.11005934  1
  P  P193  1  0.05340460  0.25126236  0.36012664  1
  P  P194  1  0.05216652  0.25009231  0.61011395  1
  P  P195  1  0.05223255  0.25088840  0.85982096  1
  P  P196  1  0.05192002  0.58343664  0.11035837  1
  P  P197  1  0.05488666  0.58258286  0.36154430  1
  P  P198  1  0.05583357  0.58225601  0.61044309  1
  P  P199  1  0.05449437  0.58342048  0.85956911  1
  P  P200  1  0.05324178  0.91663071  0.11050548  1
  P  P201  1  0.05498604  0.91638179  0.36118223  1
  P  P202  1  0.05556209  0.91765704  0.61008147  1
  P  P203  1  0.05251740  0.91551305  0.85941440  1
  P  P204  1  0.55609324  0.24919979  0.11053693  1
  P  P205  1  0.55387991  0.25050867  0.35977699  1
  P  P206  1  0.55292989  0.25007113  0.61133995  1
  P  P207  1  0.55415380  0.25117448  0.86009711  1
  P  P208  1  0.55362111  0.58308354  0.11084556  1
  P  P209  1  0.55436648  0.58402930  0.36074506  1
  P  P210  1  0.55382547  0.58303702  0.60943398  1
  P  P211  1  0.55104405  0.58254679  0.86018889  1
  P  P212  1  0.55465786  0.91743245  0.10916713  1
  P  P213  1  0.55154955  0.91521569  0.36033299  1
  P  P214  1  0.55295671  0.91669814  0.61014150  1
  P  P215  1  0.55276371  0.91597960  0.86087484  1
  P  P216  1  0.44832951  0.08348401  0.14058909  1
  P  P217  1  0.44453640  0.08251126  0.38959969  1
  P  P218  1  0.44496130  0.08401005  0.63943860  1
  P  P219  1  0.44646405  0.08372046  0.88978576  1
  P  P220  1  0.44572976  0.41714358  0.13896221  1
  P  P221  1  0.44608939  0.41763225  0.39076616  1
  P  P222  1  0.44390575  0.41603294  0.63968134  1
  P  P223  1  0.44531442  0.41644341  0.88920876  1
  P  P224  1  0.44548254  0.74917464  0.13867180  1
  P  P225  1  0.44715560  0.74952060  0.39039596  1
  P  P226  1  0.44498438  0.74952813  0.63929766  1
  P  P227  1  0.44521999  0.74954990  0.89059265  1
  P  P228  1  0.94759837  0.08342862  0.14074547  1
  P  P229  1  0.94560487  0.08358347  0.38890311  1
  P  P230  1  0.94761188  0.08415192  0.64034522  1
  P  P231  1  0.94491236  0.08330750  0.88867213  1
  P  P232  1  0.94709377  0.41763079  0.14031325  1
  P  P233  1  0.94565757  0.41682015  0.38981544  1
  P  P234  1  0.94603474  0.41635515  0.63931253  1
  P  P235  1  0.94696299  0.41616096  0.88853425  1
  P  P236  1  0.94602824  0.74909635  0.13983312  1
  P  P237  1  0.94486543  0.74973515  0.39014670  1
  P  P238  1  0.94504273  0.74973492  0.63891717  1
  P  P239  1  0.94632189  0.75079505  0.88910362  1
  P  P240  1  0.19847702  0.08313756  0.23389629  1
  P  P241  1  0.19665791  0.08311852  0.48652593  1
  P  P242  1  0.19564517  0.08262140  0.73459304  1
  P  P243  1  0.19525495  0.08359388  0.98579878  1
  P  P244  1  0.19498615  0.41666958  0.23524475  1
  P  P245  1  0.19585211  0.41703442  0.48575130  1
  P  P246  1  0.19575223  0.41727372  0.73571673  1
  P  P247  1  0.19564192  0.41700548  0.98571673  1
  P  P248  1  0.19632755  0.74991083  0.23378108  1
  P  P249  1  0.19816139  0.74970383  0.48483040  1
  P  P250  1  0.19479523  0.74981200  0.73660341  1
  P  P251  1  0.19527280  0.74942056  0.98585275  1
  P  P252  1  0.69720082  0.08407457  0.23455006  1
  P  P253  1  0.69682728  0.08354895  0.48527951  1
  P  P254  1  0.69848827  0.08438112  0.73541094  1
  P  P255  1  0.69506957  0.08305579  0.98588743  1
  P  P256  1  0.69780099  0.41702877  0.23508605  1
  P  P257  1  0.69826366  0.41754230  0.48565096  1
  P  P258  1  0.69622762  0.41592675  0.73679785  1
  P  P259  1  0.69568000  0.41656740  0.98373579  1
  P  P260  1  0.69619071  0.74924824  0.23625403  1
  P  P261  1  0.69703330  0.74881627  0.48453522  1
  P  P262  1  0.69828224  0.75010366  0.73563171  1
  P  P263  1  0.69834244  0.75051504  0.98487092  1
  P  P264  1  0.30509250  0.25122397  0.01374394  1
  P  P265  1  0.30318827  0.24904805  0.26488348  1
  P  P266  1  0.30409415  0.25041183  0.51573357  1
  P  P267  1  0.30480944  0.25107961  0.76492173  1
  P  P268  1  0.30517973  0.58296931  0.01444519  1
  P  P269  1  0.30532120  0.58318683  0.26454564  1
  P  P270  1  0.30352432  0.58334356  0.51337231  1
  P  P271  1  0.30209366  0.58233381  0.76571418  1
  P  P272  1  0.30454182  0.91569449  0.01381980  1
  P  P273  1  0.30440084  0.91778552  0.26534516  1
  P  P274  1  0.30375187  0.91599941  0.51375505  1
  P  P275  1  0.30162200  0.91671157  0.76607783  1
  P  P276  1  0.80320338  0.25061292  0.01347135  1
  P  P277  1  0.80203241  0.25004806  0.26415345  1
  P  P278  1  0.80433441  0.25132549  0.51604025  1
  P  P279  1  0.80503017  0.25002569  0.76444587  1
  P  P280  1  0.80451049  0.58431168  0.01549823  1
  P  P281  1  0.80406035  0.58309235  0.26341190  1
  P  P282  1  0.80222758  0.58348084  0.51515275  1
  P  P283  1  0.80404852  0.58306690  0.76499526  1
  P  P284  1  0.80387031  0.91570336  0.01393460  1
  P  P285  1  0.80336846  0.91702053  0.26469406  1
  P  P286  1  0.80322309  0.91554063  0.51522437  1
  P  P287  1  0.80488586  0.91705755  0.76519626  1
  O  O288  1  0.05573706  0.24998277  0.18685502  1
  O  O289  1  0.05663801  0.25051897  0.43687049  1
  O  O290  1  0.05584341  0.25010175  0.68678370  1
  O  O291  1  0.05613353  0.25062085  0.93649171  1
  O  O292  1  0.05522845  0.58355608  0.18713489  1
  O  O293  1  0.05951991  0.58353409  0.43825189  1
  O  O294  1  0.05954617  0.58323688  0.68723643  1
  O  O295  1  0.05675106  0.58335023  0.93617102  1
  O  O296  1  0.05591181  0.91657610  0.18730359  1
  O  O297  1  0.05988535  0.91621524  0.43793273  1
  O  O298  1  0.05905376  0.91640733  0.68704248  1
  O  O299  1  0.05602014  0.91597801  0.93614065  1
  O  O300  1  0.56027190  0.25027548  0.18736899  1
  O  O301  1  0.55665579  0.25078573  0.43663100  1
  O  O302  1  0.55854978  0.25015573  0.68796136  1
  O  O303  1  0.55885590  0.25039557  0.93686867  1
  O  O304  1  0.55904473  0.58312633  0.18753275  1
  O  O305  1  0.55919650  0.58301242  0.43744250  1
  O  O306  1  0.55717171  0.58289989  0.68624117  1
  O  O307  1  0.55519112  0.58318254  0.93686664  1
  O  O308  1  0.55744113  0.91640201  0.18603451  1
  O  O309  1  0.55524360  0.91588901  0.43703081  1
  O  O310  1  0.55675785  0.91665321  0.68695438  1
  O  O311  1  0.55837337  0.91598645  0.93749466  1
  O  O312  1  0.44438365  0.08388996  0.06386473  1
  O  O313  1  0.44122906  0.08342753  0.31279529  1
  O  O314  1  0.44069994  0.08334373  0.56262554  1
  O  O315  1  0.44329358  0.08349158  0.81301934  1
  O  O316  1  0.44172355  0.41646699  0.06218597  1
  O  O317  1  0.44354528  0.41666030  0.31394667  1
  O  O318  1  0.43963763  0.41707300  0.56293517  1
  O  O319  1  0.44100526  0.41685103  0.81247900  1
  O  O320  1  0.44100290  0.74968019  0.06199948  1
  O  O321  1  0.44400441  0.74969134  0.31363907  1
  O  O322  1  0.44045269  0.74935073  0.56256088  1
  O  O323  1  0.44268947  0.74966226  0.81371473  1
  O  O324  1  0.94358082  0.08335134  0.06397400  1
  O  O325  1  0.94046168  0.08351843  0.31219327  1
  O  O326  1  0.94427267  0.08340741  0.56353743  1
  O  O327  1  0.94147622  0.08334763  0.81187937  1
  O  O328  1  0.94343503  0.41697524  0.06361512  1
  O  O329  1  0.94040082  0.41700030  0.31313690  1
  O  O330  1  0.94139427  0.41764894  0.56259798  1
  O  O331  1  0.94208849  0.41666461  0.81182295  1
  O  O332  1  0.94177781  0.74992720  0.06305220  1
  O  O333  1  0.94025746  0.74963294  0.31333356  1
  O  O334  1  0.94046955  0.74936674  0.56217995  1
  O  O335  1  0.94185350  0.75009774  0.81233469  1
  O  O336  1  0.19061720  0.08356495  0.06252901  1
  O  O337  1  0.19491488  0.08337351  0.31067971  1
  O  O338  1  0.19141731  0.08421381  0.56316884  1
  O  O339  1  0.19281991  0.08389527  0.81142595  1
  O  O340  1  0.19030156  0.41696330  0.06240847  1
  O  O341  1  0.19084213  0.41674245  0.31199949  1
  O  O342  1  0.19131382  0.41599691  0.56251161  1
  O  O343  1  0.19115827  0.41611814  0.81246036  1
  O  O344  1  0.19019932  0.74951414  0.06254617  1
  O  O345  1  0.19311095  0.74946874  0.31054037  1
  O  O346  1  0.19458210  0.74968924  0.56160042  1
  O  O347  1  0.19120311  0.74998530  0.81332887  1
  O  O348  1  0.69139801  0.08306882  0.06260154  1
  O  O349  1  0.69351637  0.08326979  0.31133148  1
  O  O350  1  0.69373978  0.08333049  0.56201076  1
  O  O351  1  0.69444656  0.08383116  0.81216591  1
  O  O352  1  0.69306498  0.41726630  0.06044993  1
  O  O353  1  0.69428434  0.41730230  0.31184028  1
  O  O354  1  0.69438653  0.41677157  0.56232481  1
  O  O355  1  0.69064615  0.41686619  0.81339856  1
  O  O356  1  0.69438298  0.74990509  0.06158530  1
  O  O357  1  0.69099998  0.74975688  0.31290055  1
  O  O358  1  0.69392925  0.74974957  0.56123532  1
  O  O359  1  0.69381092  0.74991221  0.81230765  1
  O  O360  1  0.30635150  0.25010932  0.18807085  1
  O  O361  1  0.30667125  0.25040773  0.43899444  1
  O  O362  1  0.30843401  0.25021384  0.68812208  1
  O  O363  1  0.30927214  0.25046187  0.93701032  1
  O  O364  1  0.30941066  0.58321224  0.18771468  1
  O  O365  1  0.30819146  0.58338926  0.43674990  1
  O  O366  1  0.30554211  0.58285514  0.68894286  1
  O  O367  1  0.30851873  0.58273966  0.93757738  1
  O  O368  1  0.30720054  0.91660627  0.18850955  1
  O  O369  1  0.30832364  0.91588229  0.43710379  1
  O  O370  1  0.30527631  0.91673012  0.68928594  1
  O  O371  1  0.30858058  0.91661889  0.93707213  1
  O  O372  1  0.80515186  0.25015144  0.18743215  1
  O  O373  1  0.80671255  0.25051595  0.43917488  1
  O  O374  1  0.80962894  0.25001716  0.68774362  1
  O  O375  1  0.80865510  0.25067358  0.93682379  1
  O  O376  1  0.80882255  0.58311905  0.18681077  1
  O  O377  1  0.80537515  0.58316534  0.43822977  1
  O  O378  1  0.80694077  0.58272359  0.68823997  1
  O  O379  1  0.80780634  0.58337871  0.93872686  1
  O  O380  1  0.80596493  0.91678949  0.18790128  1
  O  O381  1  0.80590316  0.91648656  0.43825481  1
  O  O382  1  0.80760045  0.91713003  0.68895627  1
  O  O383  1  0.80903764  0.91632798  0.93722772  1
  O  O384  1  0.23507865  0.25081100  0.03792608  1
  O  O385  1  0.23367808  0.24924352  0.29046971  1
  O  O386  1  0.23440413  0.25048274  0.54122756  1
  O  O387  1  0.23479599  0.25046930  0.78930535  1
  O  O388  1  0.23524795  0.58303707  0.03903909  1
  O  O389  1  0.23517251  0.58306295  0.28823042  1
  O  O390  1  0.23329053  0.58308392  0.53765712  1
  O  O391  1  0.23207652  0.58268255  0.79031462  1
  O  O392  1  0.23451955  0.91615967  0.03798144  1
  O  O393  1  0.23476707  0.91692667  0.29064155  1
  O  O394  1  0.23344152  0.91616660  0.53785952  1
  O  O395  1  0.23151839  0.91650044  0.79048679  1
  O  O396  1  0.73266440  0.25034619  0.03633825  1
  O  O397  1  0.73222847  0.25056747  0.28965251  1
  O  O398  1  0.73477534  0.25059129  0.54164044  1
  O  O399  1  0.73461065  0.25026924  0.78822196  1
  O  O400  1  0.73473706  0.58374753  0.04038941  1
  O  O401  1  0.73375029  0.58319558  0.28734699  1
  O  O402  1  0.73250291  0.58342459  0.54049373  1
  O  O403  1  0.73443868  0.58357809  0.79049637  1
  O  O404  1  0.73356292  0.91589262  0.03755919  1
  O  O405  1  0.73378049  0.91674482  0.29035923  1
  O  O406  1  0.73371647  0.91573821  0.54086286  1
  O  O407  1  0.73509458  0.91710092  0.79098254  1
  O  O408  1  0.26838320  0.08321597  0.20896641  1
  O  O409  1  0.26716326  0.08332844  0.46329887  1
  O  O410  1  0.26533802  0.08276511  0.70953766  1
  O  O411  1  0.26538744  0.08338607  0.96209517  1
  O  O412  1  0.26508581  0.41675510  0.21131520  1
  O  O413  1  0.26629311  0.41659349  0.46210452  1
  O  O414  1  0.26617868  0.41720267  0.71221613  1
  O  O415  1  0.26621452  0.41734557  0.96277839  1
  O  O416  1  0.26618516  0.75021877  0.20923441  1
  O  O417  1  0.26807899  0.74963308  0.45983792  1
  O  O418  1  0.26461547  0.74967001  0.71166104  1
  O  O419  1  0.26577340  0.74916893  0.96265154  1
  O  O420  1  0.76716625  0.08346192  0.20948540  1
  O  O421  1  0.76654040  0.08400627  0.46020245  1
  O  O422  1  0.76860863  0.08371555  0.71113572  1
  O  O423  1  0.76510395  0.08368299  0.96154677  1
  O  O424  1  0.76777052  0.41658514  0.21000486  1
  O  O425  1  0.76824234  0.41736322  0.46083392  1
  O  O426  1  0.76683488  0.41617817  0.71381886  1
  O  O427  1  0.76548092  0.41688383  0.95869951  1
  O  O428  1  0.76671998  0.74984194  0.21287444  1
  O  O429  1  0.76697567  0.74916156  0.45950182  1
  O  O430  1  0.76855071  0.74995213  0.71177453  1
  O  O431  1  0.76847904  0.75013061  0.96061431  1
  O  O432  1  0.01769595  0.08335694  0.16516730  1
  O  O433  1  0.01580769  0.08403452  0.41241512  1
  O  O434  1  0.01766771  0.08365446  0.66505753  1
  O  O435  1  0.01480703  0.08320255  0.91337411  1
  O  O436  1  0.01722027  0.41716776  0.16478484  1
  O  O437  1  0.01605537  0.41669326  0.41314069  1
  O  O438  1  0.01653765  0.41631225  0.66270733  1
  O  O439  1  0.01732081  0.41690642  0.91220421  1
  O  O440  1  0.01632328  0.74971329  0.16393354  1
  O  O441  1  0.01499180  0.74969676  0.41385514  1
  O  O442  1  0.01542505  0.74997203  0.66222725  1
  O  O443  1  0.01667910  0.74970902  0.91282924  1
  O  O444  1  0.51838213  0.08283924  0.16496064  1
  O  O445  1  0.51450378  0.08350875  0.41431222  1
  O  O446  1  0.51484585  0.08360735  0.66400069  1
  O  O447  1  0.51621710  0.08404908  0.91475222  1
  O  O448  1  0.51563724  0.41700326  0.16340974  1
  O  O449  1  0.51572629  0.41690142  0.41622659  1
  O  O450  1  0.51406759  0.41678140  0.66352754  1
  O  O451  1  0.51564736  0.41634842  0.91331114  1
  O  O452  1  0.51552607  0.74979510  0.16281655  1
  O  O453  1  0.51713768  0.74938869  0.41535381  1
  O  O454  1  0.51500774  0.74939345  0.66341053  1
  O  O455  1  0.51482389  0.74932877  0.91623918  1
  O  O456  1  0.48595564  0.25012531  0.08656621  1
  O  O457  1  0.48421248  0.25027543  0.33463263  1
  O  O458  1  0.48250360  0.25032589  0.58803668  1
  O  O459  1  0.48364568  0.25055615  0.83689370  1
  O  O460  1  0.48317483  0.58276319  0.08762810  1
  O  O461  1  0.48391193  0.58374350  0.33724912  1
  O  O462  1  0.48388328  0.58310644  0.58510639  1
  O  O463  1  0.48089629  0.58286835  0.83577682  1
  O  O464  1  0.48486185  0.91717245  0.08430482  1
  O  O465  1  0.48161094  0.91556235  0.33546833  1
  O  O466  1  0.48309251  0.91665330  0.58566916  1
  O  O467  1  0.48226031  0.91602036  0.83762666  1
  O  O468  1  0.98354196  0.25033451  0.08429819  1
  O  O469  1  0.98373263  0.25089726  0.33497835  1
  O  O470  1  0.98219995  0.25054106  0.58526838  1
  O  O471  1  0.98218252  0.25021292  0.83533811  1
  O  O472  1  0.98208547  0.58319430  0.08504916  1
  O  O473  1  0.98465515  0.58297453  0.33779467  1
  O  O474  1  0.98576754  0.58265613  0.58617014  1
  O  O475  1  0.98492137  0.58332793  0.83365465  1
  O  O476  1  0.98370151  0.91657073  0.08478167  1
  O  O477  1  0.98486056  0.91623090  0.33750690  1
  O  O478  1  0.98575420  0.91733972  0.58569323  1
  O  O479  1  0.98252228  0.91637618  0.83470180  1
  O  O480  1  0.08737726  0.31532234  0.07801628  1
  O  O481  1  0.08730839  0.31649856  0.32803308  1
  O  O482  1  0.08630621  0.31510421  0.57754408  1
  O  O483  1  0.08583103  0.31593563  0.82693431  1
  O  O484  1  0.08578184  0.64853855  0.07772963  1
  O  O485  1  0.08828510  0.64739565  0.32784209  1
  O  O486  1  0.08972684  0.64710744  0.57700178  1
  O  O487  1  0.08873662  0.64857787  0.82727610  1
  O  O488  1  0.08742662  0.98179582  0.07826095  1
  O  O489  1  0.08828642  0.98159212  0.32807594  1
  O  O490  1  0.08932440  0.98299782  0.57791989  1
  O  O491  1  0.08695510  0.98031215  0.82669247  1
  O  O492  1  0.59007229  0.31380984  0.07691286  1
  O  O493  1  0.58805647  0.31553756  0.32721833  1
  O  O494  1  0.58605287  0.31517856  0.57775934  1
  O  O495  1  0.58712179  0.31644665  0.82694057  1
  O  O496  1  0.58644834  0.64821715  0.07710821  1
  O  O497  1  0.58762335  0.64926343  0.32766707  1
  O  O498  1  0.58801404  0.64796621  0.57690333  1
  O  O499  1  0.58496348  0.64754711  0.82729245  1
  O  O500  1  0.58871557  0.98267592  0.07727107  1
  O  O501  1  0.58556453  0.98032216  0.32764671  1
  O  O502  1  0.58678482  0.98175054  0.57749504  1
  O  O503  1  0.58588023  0.98114231  0.82735732  1
  O  O504  1  0.41387647  0.01866061  0.17303452  1
  O  O505  1  0.41124850  0.01695868  0.42211875  1
  O  O506  1  0.41111792  0.01907001  0.67255924  1
  O  O507  1  0.41261867  0.01853051  0.92230752  1
  O  O508  1  0.41223311  0.35207793  0.17223893  1
  O  O509  1  0.41119421  0.35302135  0.42329021  1
  O  O510  1  0.41065788  0.35084098  0.67270920  1
  O  O511  1  0.41196398  0.35123127  0.92233342  1
  O  O512  1  0.41229125  0.68401301  0.17183648  1
  O  O513  1  0.41306185  0.68439963  0.42299057  1
  O  O514  1  0.41129166  0.68451001  0.67235230  1
  O  O515  1  0.41066647  0.68442247  0.92251845  1
  O  O516  1  0.91350668  0.01854720  0.17351436  1
  O  O517  1  0.91266735  0.01847538  0.42253568  1
  O  O518  1  0.91338672  0.01944998  0.67315011  1
  O  O519  1  0.91137726  0.01802837  0.92147385  1
  O  O520  1  0.91298718  0.35271019  0.17331126  1
  O  O521  1  0.91208518  0.35197475  0.42307879  1
  O  O522  1  0.91252776  0.35125837  0.67220256  1
  O  O523  1  0.91388513  0.35105763  0.92187007  1
  O  O524  1  0.91274542  0.68380302  0.17271641  1
  O  O525  1  0.91130816  0.68462451  0.42335716  1
  O  O526  1  0.91200950  0.68459983  0.67251709  1
  O  O527  1  0.91240652  0.68610777  0.92261585  1
  O  O528  1  0.16432293  0.01808703  0.20142344  1
  O  O529  1  0.16370639  0.01799368  0.45316928  1
  O  O530  1  0.16144697  0.01737448  0.70289406  1
  O  O531  1  0.16161175  0.01857071  0.95274709  1
  O  O532  1  0.16139472  0.35170545  0.20201923  1
  O  O533  1  0.16223703  0.35224498  0.45216140  1
  O  O534  1  0.16243575  0.35235643  0.70179597  1
  O  O535  1  0.16264549  0.35205222  0.95175564  1
  O  O536  1  0.16234320  0.68492177  0.20092725  1
  O  O537  1  0.16420351  0.68464266  0.45225443  1
  O  O538  1  0.16116042  0.68463625  0.70372378  1
  O  O539  1  0.16192368  0.68449505  0.95249425  1
  O  O540  1  0.66279355  0.01920441  0.20183759  1
  O  O541  1  0.66300056  0.01834439  0.45260143  1
  O  O542  1  0.66433185  0.01948225  0.70277879  1
  O  O543  1  0.66204082  0.01758940  0.95285883  1
  O  O544  1  0.66357576  0.35203607  0.20279991  1
  O  O545  1  0.66435200  0.35259673  0.45269911  1
  O  O546  1  0.66345673  0.35059021  0.70332594  1
  O  O547  1  0.66145600  0.35148289  0.95151009  1
  O  O548  1  0.66342396  0.68403035  0.20272074  1
  O  O549  1  0.66311717  0.68353173  0.45228625  1
  O  O550  1  0.66452095  0.68512373  0.70271112  1
  O  O551  1  0.66452008  0.68539124  0.95200316  1
  O  O552  1  0.33838027  0.31653895  0.04657796  1
  O  O553  1  0.33734474  0.31398728  0.29767780  1
  O  O554  1  0.33832118  0.31554701  0.54797297  1
  O  O555  1  0.33828894  0.31645013  0.79744380  1
  O  O556  1  0.33898848  0.64814727  0.04709687  1
  O  O557  1  0.33888771  0.64826890  0.29767615  1
  O  O558  1  0.33664531  0.64844223  0.54685647  1
  O  O559  1  0.33619621  0.64717368  0.79859913  1
  O  O560  1  0.33830887  0.98056205  0.04712174  1
  O  O561  1  0.33825247  0.98317537  0.29713365  1
  O  O562  1  0.33691333  0.98119644  0.54709546  1
  O  O563  1  0.33559674  0.98169512  0.79876927  1
  O  O564  1  0.83603402  0.31577024  0.04700532  1
  O  O565  1  0.83640635  0.31501067  0.29657470  1
  O  O566  1  0.83835588  0.31668281  0.54794144  1
  O  O567  1  0.83859517  0.31509158  0.79775829  1
  O  O568  1  0.83854882  0.64952179  0.04768157  1
  O  O569  1  0.83741747  0.64810541  0.29689581  1
  O  O570  1  0.83644958  0.64859248  0.54717842  1
  O  O571  1  0.83860309  0.64810068  0.79696208  1
  O  O572  1  0.83702670  0.98076851  0.04753051  1
  O  O573  1  0.83736390  0.98237533  0.29664783  1
  O  O574  1  0.83763800  0.98049046  0.54756424  1
  O  O575  1  0.83911962  0.98217519  0.79791135  1
  O  O576  1  0.41470311  0.14851265  0.17368924  1
  O  O577  1  0.41015625  0.14714795  0.42276086  1
  O  O578  1  0.41142051  0.14925018  0.67211316  1
  O  O579  1  0.41252453  0.14899810  0.92211738  1
  O  O580  1  0.41201014  0.48218767  0.17173912  1
  O  O581  1  0.41211581  0.48309041  0.42266872  1
  O  O582  1  0.40992092  0.48079364  0.67319360  1
  O  O583  1  0.41171862  0.48135389  0.92261957  1
  O  O584  1  0.41192756  0.81423134  0.17188272  1
  O  O585  1  0.41291199  0.81441072  0.42310497  1
  O  O586  1  0.41142965  0.81458968  0.67240409  1
  O  O587  1  0.41078493  0.81458175  0.92279478  1
  O  O588  1  0.91351247  0.14849184  0.17331444  1
  O  O589  1  0.91204884  0.14862535  0.42198283  1
  O  O590  1  0.91376240  0.14941118  0.67266388  1
  O  O591  1  0.91134927  0.14852518  0.92150052  1
  O  O592  1  0.91337881  0.48273537  0.17305191  1
  O  O593  1  0.91252718  0.48189677  0.42363397  1
  O  O594  1  0.91280465  0.48120786  0.67327229  1
  O  O595  1  0.91352676  0.48113392  0.92193582  1
  O  O596  1  0.91212389  0.81384623  0.17330035  1
  O  O597  1  0.91114456  0.81455670  0.42328492  1
  O  O598  1  0.91169116  0.81462664  0.67217709  1
  O  O599  1  0.91341339  0.81612419  0.92238224  1
  O  O600  1  0.08724086  0.18484533  0.07791163  1
  O  O601  1  0.08764015  0.18630133  0.32743007  1
  O  O602  1  0.08580439  0.18486483  0.57739751  1
  O  O603  1  0.08623938  0.18589430  0.82708436  1
  O  O604  1  0.08614863  0.51843027  0.07791727  1
  O  O605  1  0.08800677  0.51724563  0.32869756  1
  O  O606  1  0.08936456  0.51693140  0.57801789  1
  O  O607  1  0.08898493  0.51840920  0.82720883  1
  O  O608  1  0.08734193  0.85137737  0.07822196  1
  O  O609  1  0.08834057  0.85139505  0.32787278  1
  O  O610  1  0.08960151  0.85273802  0.57677823  1
  O  O611  1  0.08617586  0.85031286  0.82681202  1
  O  O612  1  0.58902521  0.18363672  0.07784298  1
  O  O613  1  0.58839806  0.18554259  0.32757519  1
  O  O614  1  0.58593662  0.18504950  0.57776918  1
  O  O615  1  0.58787887  0.18644942  0.82637222  1
  O  O616  1  0.58690644  0.51823600  0.07732477  1
  O  O617  1  0.58784823  0.51912903  0.32694875  1
  O  O618  1  0.58778024  0.51801363  0.57667664  1
  O  O619  1  0.58467538  0.51739205  0.82746114  1
  O  O620  1  0.58897993  0.85259170  0.07624901  1
  O  O621  1  0.58540123  0.85012543  0.32781453  1
  O  O622  1  0.58675434  0.85148682  0.57761377  1
  O  O623  1  0.58589740  0.85089736  0.82745964  1
  O  O624  1  0.33885253  0.18631915  0.04706240  1
  O  O625  1  0.33742635  0.18381698  0.29662168  1
  O  O626  1  0.33838460  0.18534262  0.54813591  1
  O  O627  1  0.33899138  0.18638597  0.79814157  1
  O  O628  1  0.33902402  0.51793379  0.04737963  1
  O  O629  1  0.33908783  0.51839877  0.29780389  1
  O  O630  1  0.33675535  0.51819031  0.54675082  1
  O  O631  1  0.33604536  0.51729845  0.79835670  1
  O  O632  1  0.33777091  0.85032044  0.04649421  1
  O  O633  1  0.33909940  0.85304970  0.29819536  1
  O  O634  1  0.33678412  0.85078290  0.54706017  1
  O  O635  1  0.33583573  0.85180419  0.79861485  1
  O  O636  1  0.83637927  0.18572459  0.04717650  1
  O  O637  1  0.83573090  0.18476499  0.29660126  1
  O  O638  1  0.83932163  0.18663104  0.54847731  1
  O  O639  1  0.83827512  0.18490919  0.79777524  1
  O  O640  1  0.83895880  0.51940416  0.04814825  1
  O  O641  1  0.83724448  0.51789681  0.29677625  1
  O  O642  1  0.83656188  0.51856721  0.54763615  1
  O  O643  1  0.83790492  0.51783069  0.79751577  1
  O  O644  1  0.83722756  0.85060043  0.04706307  1
  O  O645  1  0.83777771  0.85195644  0.29684819  1
  O  O646  1  0.83746682  0.85030254  0.54676854  1
  O  O647  1  0.83918512  0.85186632  0.79781158  1
  O  O648  1  0.16403903  0.14793256  0.20120176  1
  O  O649  1  0.16371866  0.14817603  0.45262543  1
  O  O650  1  0.16142237  0.14758583  0.70168136  1
  O  O651  1  0.16201709  0.14866814  0.95243440  1
  O  O652  1  0.16134916  0.48162513  0.20188454  1
  O  O653  1  0.16267394  0.48220485  0.45263374  1
  O  O654  1  0.16230979  0.48235195  0.70280495  1
  O  O655  1  0.16222662  0.48190299  0.95231100  1
  O  O656  1  0.16200573  0.81488879  0.20147166  1
  O  O657  1  0.16423575  0.81476851  0.45230095  1
  O  O658  1  0.16117895  0.81495767  0.70358312  1
  O  O659  1  0.16198275  0.81434673  0.95217756  1
  O  O660  1  0.66337091  0.14930122  0.20227397  1
  O  O661  1  0.66247228  0.14857095  0.45311629  1
  O  O662  1  0.66493880  0.14968584  0.70285468  1
  O  O663  1  0.66126320  0.14809170  0.95288118  1
  O  O664  1  0.66412646  0.48216763  0.20223800  1
  O  O665  1  0.66446598  0.48268496  0.45301710  1
  O  O666  1  0.66303197  0.48078740  0.70298830  1
  O  O667  1  0.66123883  0.48157229  0.95121996  1
  O  O668  1  0.66286871  0.81423594  0.20276115  1
  O  O669  1  0.66265190  0.81355676  0.45144907  1
  O  O670  1  0.66486345  0.81523842  0.70265296  1
  O  O671  1  0.66453737  0.81551288  0.95213985  1
