# generated using pymatgen
data_Na2MnFe(PO4)2
_symmetry_space_group_name_H-M   'P 1'
_cell_length_a   21.08200187
_cell_length_b   18.93405672
_cell_length_c   20.04153496
_cell_angle_alpha   89.99980484
_cell_angle_beta   90.00119083
_cell_angle_gamma   90.00017827
_symmetry_Int_Tables_number   1
_chemical_formula_structural   Na2MnFe(PO4)2
_chemical_formula_sum   'Na96 Mn48 Fe48 P96 O384'
_cell_volume   7999.93579728
_cell_formula_units_Z   48
loop_
 _symmetry_equiv_pos_site_id
 _symmetry_equiv_pos_as_xyz
  1  'x, y, z'
loop_
 _atom_site_type_symbol
 _atom_site_label
 _atom_site_symmetry_multiplicity
 _atom_site_fract_x
 _atom_site_fract_y
 _atom_site_fract_z
 _atom_site_occupancy
  Na  Na0  1  -0.00162971  0.00041171  -0.00023141  1
  Na  Na1  1  -0.00147906  -0.00031304  0.25010962  1
  Na  Na2  1  -0.00035867  0.00025296  0.49977472  1
  Na  Na3  1  -0.00185130  -0.00008800  0.74871493  1
  Na  Na4  1  0.00019346  0.33310991  0.00039281  1
  Na  Na5  1  0.00095858  0.33363272  0.25092440  1
  Na  Na6  1  0.00093384  0.33320303  0.50040492  1
  Na  Na7  1  0.00248955  0.33445572  0.74922227  1
  Na  Na8  1  -0.00012394  0.66695988  -0.00063026  1
  Na  Na9  1  -0.00037657  0.66587998  0.25079693  1
  Na  Na10  1  0.00216729  0.66709273  0.50051899  1
  Na  Na11  1  0.00031132  0.66684730  0.74947383  1
  Na  Na12  1  0.49959412  -0.00034101  0.00030830  1
  Na  Na13  1  0.50209659  0.00028481  0.24968569  1
  Na  Na14  1  0.50386272  0.00069145  0.50098657  1
  Na  Na15  1  0.50157524  -0.00018380  0.75030092  1
  Na  Na16  1  0.49895555  0.33339969  0.00024715  1
  Na  Na17  1  0.50015556  0.33337467  0.25103773  1
  Na  Na18  1  0.50082065  0.33347873  0.49905200  1
  Na  Na19  1  0.50148461  0.33433502  0.74901763  1
  Na  Na20  1  0.49926724  0.66645385  -0.00022368  1
  Na  Na21  1  0.49836617  0.66609069  0.25104544  1
  Na  Na22  1  0.50167536  0.66767519  0.49983162  1
  Na  Na23  1  0.50046802  0.66651437  0.74940894  1
  Na  Na24  1  0.25057187  0.00017865  0.12460409  1
  Na  Na25  1  0.24891787  -0.00020695  0.37596541  1
  Na  Na26  1  0.24798491  -0.00049945  0.62577669  1
  Na  Na27  1  0.25096440  0.00085702  0.87434973  1
  Na  Na28  1  0.25255574  0.33417241  0.12565964  1
  Na  Na29  1  0.24940885  0.33314474  0.37542088  1
  Na  Na30  1  0.24733357  0.33298939  0.62543445  1
  Na  Na31  1  0.24822245  0.33269942  0.87427952  1
  Na  Na32  1  0.25218441  0.66679214  0.12398515  1
  Na  Na33  1  0.25184773  0.66755063  0.37600344  1
  Na  Na34  1  0.24789644  0.66590257  0.62408336  1
  Na  Na35  1  0.24937043  0.66603987  0.87478035  1
  Na  Na36  1  0.74951102  -0.00048815  0.12533417  1
  Na  Na37  1  0.74920394  0.00027776  0.37500909  1
  Na  Na38  1  0.75001611  -0.00046574  0.62510093  1
  Na  Na39  1  0.75171712  -0.00000324  0.87405957  1
  Na  Na40  1  0.74937998  0.33348138  0.12399249  1
  Na  Na41  1  0.74812909  0.33273928  0.37486475  1
  Na  Na42  1  0.74999466  0.33379981  0.62601825  1
  Na  Na43  1  0.74852788  0.33294221  0.87453121  1
  Na  Na44  1  0.74821753  0.66576717  0.12514505  1
  Na  Na45  1  0.74770762  0.66596067  0.37565406  1
  Na  Na46  1  0.74971369  0.66631928  0.62508049  1
  Na  Na47  1  0.75214402  0.66740986  0.87507730  1
  Na  Na48  1  -0.00105781  0.16702108  -0.00011085  1
  Na  Na49  1  0.00024368  0.16681595  0.25010436  1
  Na  Na50  1  -0.00041261  0.16724667  0.50009338  1
  Na  Na51  1  0.00053021  0.16575221  0.74934120  1
  Na  Na52  1  0.00067151  0.49994587  0.00042906  1
  Na  Na53  1  0.00019837  0.49979211  0.25072088  1
  Na  Na54  1  0.00230491  0.49941251  0.50067514  1
  Na  Na55  1  0.00191701  0.49960216  0.74833057  1
  Na  Na56  1  -0.00248905  0.83395713  -0.00100410  1
  Na  Na57  1  -0.00102103  0.83369758  0.25101604  1
  Na  Na58  1  -0.00001627  0.83350230  0.49958393  1
  Na  Na59  1  -0.00148937  0.83370560  0.74995374  1
  Na  Na60  1  0.49690566  0.16798687  0.00050473  1
  Na  Na61  1  0.50137864  0.16634139  0.25026523  1
  Na  Na62  1  0.50414906  0.16574194  0.49966424  1
  Na  Na63  1  0.50144364  0.16616484  0.75018878  1
  Na  Na64  1  0.49989516  0.49909035  0.00004967  1
  Na  Na65  1  0.49804599  0.50019070  0.25065510  1
  Na  Na66  1  0.49905959  0.49960389  0.49980134  1
  Na  Na67  1  0.50076679  0.49913731  0.74916783  1
  Na  Na68  1  0.50060480  0.83420843  -0.00016812  1
  Na  Na69  1  0.50167622  0.83319158  0.25105393  1
  Na  Na70  1  0.50252912  0.83321261  0.50019345  1
  Na  Na71  1  0.50182545  0.83357936  0.74941392  1
  Na  Na72  1  0.25146114  0.16613800  0.12479953  1
  Na  Na73  1  0.24784897  0.16739358  0.37556592  1
  Na  Na74  1  0.24660919  0.16700510  0.62510075  1
  Na  Na75  1  0.24801275  0.16690339  0.87416608  1
  Na  Na76  1  0.25160384  0.49959712  0.12538904  1
  Na  Na77  1  0.25124684  0.49911581  0.37573897  1
  Na  Na78  1  0.24717219  0.50087784  0.62473039  1
  Na  Na79  1  0.25048885  0.49922392  0.87440951  1
  Na  Na80  1  0.25239105  0.83334195  0.12411656  1
  Na  Na81  1  0.25133890  0.83288597  0.37604288  1
  Na  Na82  1  0.24909738  0.83373623  0.62540511  1
  Na  Na83  1  0.25101581  0.83338500  0.87471906  1
  Na  Na84  1  0.75154184  0.16623784  0.12551170  1
  Na  Na85  1  0.74895569  0.16765917  0.37528238  1
  Na  Na86  1  0.75187448  0.16609183  0.62519086  1
  Na  Na87  1  0.75258061  0.16618758  0.87430061  1
  Na  Na88  1  0.74694840  0.50037904  0.12376622  1
  Na  Na89  1  0.74997813  0.49863322  0.37532161  1
  Na  Na90  1  0.74877976  0.50017207  0.62627240  1
  Na  Na91  1  0.74880442  0.50004086  0.87505379  1
  Na  Na92  1  0.74950768  0.83340116  0.12493692  1
  Na  Na93  1  0.74628091  0.83436333  0.37518311  1
  Na  Na94  1  0.74927478  0.83372703  0.62459194  1
  Na  Na95  1  0.75040122  0.83422638  0.87462756  1
  Mn  Mn96  1  0.10815306  0.75052989  0.12335707  1
  Mn  Mn97  1  0.35810854  0.08312937  0.25330855  1
  Mn  Mn98  1  0.39127219  0.24984624  0.87653784  1
  Mn  Mn99  1  0.14246293  0.24984020  0.99861503  1
  Mn  Mn100  1  0.64253211  0.24916450  0.74750120  1
  Mn  Mn101  1  0.64202751  0.24935966  0.99764642  1
  Mn  Mn102  1  0.60819905  0.08405529  0.87338727  1
  Mn  Mn103  1  0.85686970  0.08358264  0.25237280  1
  Mn  Mn104  1  0.85680639  0.74945502  0.50218510  1
  Mn  Mn105  1  0.35850231  0.75028368  0.00172668  1
  Mn  Mn106  1  0.35788342  0.74996095  0.75132219  1
  Mn  Mn107  1  0.39274844  0.91719703  0.12749282  1
  Mn  Mn108  1  0.39268494  0.24925527  0.37801166  1
  Mn  Mn109  1  0.14243393  0.91655162  0.24706496  1
  Mn  Mn110  1  0.14359419  0.58352800  0.24785069  1
  Mn  Mn111  1  0.89210370  0.25084519  0.37724193  1
  Mn  Mn112  1  0.60737965  0.41680076  0.37290298  1
  Mn  Mn113  1  0.10738823  0.08372609  0.37294193  1
  Mn  Mn114  1  0.85750618  0.74995064  0.00274556  1
  Mn  Mn115  1  0.85825978  0.41722729  0.75247675  1
  Mn  Mn116  1  0.64221067  0.58410037  0.74805120  1
  Mn  Mn117  1  0.10712095  0.75033582  0.87242030  1
  Mn  Mn118  1  0.14245899  0.58318407  0.99763070  1
  Mn  Mn119  1  0.85711471  0.41677478  0.25192615  1
  Mn  Mn120  1  0.39337337  0.91710641  0.37793033  1
  Mn  Mn121  1  0.39244036  0.58308484  0.12730924  1
  Mn  Mn122  1  0.10855204  0.41686636  0.12302484  1
  Mn  Mn123  1  0.60814535  0.74953616  0.87231416  1
  Mn  Mn124  1  0.10718289  0.08278408  0.12270274  1
  Mn  Mn125  1  0.89292905  0.58344032  0.62671214  1
  Mn  Mn126  1  0.60745989  0.74916345  0.12252995  1
  Mn  Mn127  1  0.85745399  0.41641842  0.00179742  1
  Mn  Mn128  1  0.89131688  0.58315646  0.12727999  1
  Mn  Mn129  1  0.35685754  0.41651565  0.75131120  1
  Mn  Mn130  1  0.89143598  0.91622716  0.37756698  1
  Mn  Mn131  1  0.39253030  0.58337585  0.62699064  1
  Mn  Mn132  1  0.89211734  0.58287613  0.37789872  1
  Mn  Mn133  1  0.35758874  0.08350756  0.75140242  1
  Mn  Mn134  1  0.39258203  0.24935079  0.62647787  1
  Mn  Mn135  1  0.85685553  0.74943785  0.25253550  1
  Mn  Mn136  1  0.39343631  0.91729139  0.62677568  1
  Mn  Mn137  1  0.64087038  0.58264716  0.24783548  1
  Mn  Mn138  1  0.14129293  0.91625131  0.74786522  1
  Mn  Mn139  1  0.35805660  0.08338256  0.50286745  1
  Mn  Mn140  1  0.60786212  0.08425791  0.12158573  1
  Mn  Mn141  1  0.14179281  0.91696002  0.99756453  1
  Mn  Mn142  1  0.10884302  0.74981571  0.37222783  1
  Mn  Mn143  1  0.89313544  0.25086341  0.87702931  1
  Fe  Fe144  1  0.85790407  0.08294874  0.75132247  1
  Fe  Fe145  1  0.64351070  0.91680844  0.99796374  1
  Fe  Fe146  1  0.60944879  0.08380392  0.62329538  1
  Fe  Fe147  1  0.14343960  0.58357126  0.49768448  1
  Fe  Fe148  1  0.14193989  0.58337264  0.74865187  1
  Fe  Fe149  1  0.89175937  0.91662275  0.12701136  1
  Fe  Fe150  1  0.39218184  0.58337199  0.87609619  1
  Fe  Fe151  1  0.60867110  0.08313056  0.37326415  1
  Fe  Fe152  1  0.39246852  0.58374131  0.37766616  1
  Fe  Fe153  1  0.60864846  0.74960225  0.62282085  1
  Fe  Fe154  1  0.60638824  0.41658397  0.87386612  1
  Fe  Fe155  1  0.35748265  0.75030293  0.50247813  1
  Fe  Fe156  1  0.64178037  0.58358051  0.99710281  1
  Fe  Fe157  1  0.64236408  0.58263802  0.49839913  1
  Fe  Fe158  1  0.60650833  0.74991664  0.37338116  1
  Fe  Fe159  1  0.39338644  0.91663421  0.87635901  1
  Fe  Fe160  1  0.89212915  0.91661159  0.62580065  1
  Fe  Fe161  1  0.10593372  0.08251491  0.62286608  1
  Fe  Fe162  1  0.14125995  0.24997720  0.74790986  1
  Fe  Fe163  1  0.64226981  0.25006362  0.24736521  1
  Fe  Fe164  1  0.35842731  0.75028911  0.25248632  1
  Fe  Fe165  1  0.85736418  0.41643013  0.50173779  1
  Fe  Fe166  1  0.14223473  0.91641937  0.49863161  1
  Fe  Fe167  1  0.10818515  0.41681005  0.87366801  1
  Fe  Fe168  1  0.60781925  0.41649444  0.62235805  1
  Fe  Fe169  1  0.35711492  0.08384436  0.00110331  1
  Fe  Fe170  1  0.35608562  0.41623022  0.50206414  1
  Fe  Fe171  1  0.85791413  0.08349964  0.00154265  1
  Fe  Fe172  1  0.64265753  0.91705710  0.24780941  1
  Fe  Fe173  1  0.64378766  0.25022560  0.49899437  1
  Fe  Fe174  1  0.64333852  0.91691880  0.49852847  1
  Fe  Fe175  1  0.14198911  0.24985124  0.49819256  1
  Fe  Fe176  1  0.39259179  0.25001931  0.12760396  1
  Fe  Fe177  1  0.60607067  0.41633391  0.12320175  1
  Fe  Fe178  1  0.89208654  0.91634508  0.87674642  1
  Fe  Fe179  1  0.10669743  0.08323095  0.87324899  1
  Fe  Fe180  1  0.89307642  0.25008857  0.62614895  1
  Fe  Fe181  1  0.89248205  0.25034950  0.12715767  1
  Fe  Fe182  1  0.89315232  0.58290785  0.87642766  1
  Fe  Fe183  1  0.35752358  0.41668357  0.25251732  1
  Fe  Fe184  1  0.10771471  0.41677945  0.37328990  1
  Fe  Fe185  1  0.35776545  0.41582404  0.00135167  1
  Fe  Fe186  1  0.10702963  0.75083784  0.62323534  1
  Fe  Fe187  1  0.14327458  0.24996944  0.24789391  1
  Fe  Fe188  1  0.10722198  0.41656340  0.62233382  1
  Fe  Fe189  1  0.85675019  0.08390367  0.50167224  1
  Fe  Fe190  1  0.85776854  0.75010209  0.75059166  1
  Fe  Fe191  1  0.64369880  0.91682048  0.74852443  1
  P  P192  1  0.05317834  0.24987045  0.11124628  1
  P  P193  1  0.05532572  0.25097562  0.36053021  1
  P  P194  1  0.05394114  0.24950792  0.61060935  1
  P  P195  1  0.05424169  0.24989518  0.85970128  1
  P  P196  1  0.05327186  0.58365081  0.11009913  1
  P  P197  1  0.05516040  0.58235420  0.36125258  1
  P  P198  1  0.05579726  0.58393227  0.61052182  1
  P  P199  1  0.05287039  0.58275149  0.85929470  1
  P  P200  1  0.05126620  0.91652440  0.10963089  1
  P  P201  1  0.05419484  0.91685414  0.36077460  1
  P  P202  1  0.05211191  0.91654774  0.60964595  1
  P  P203  1  0.05120562  0.91768536  0.85985640  1
  P  P204  1  0.55276441  0.25101515  0.11096591  1
  P  P205  1  0.55592591  0.24934860  0.36080355  1
  P  P206  1  0.55468487  0.24998697  0.60922881  1
  P  P207  1  0.55289178  0.25077192  0.85994442  1
  P  P208  1  0.55350471  0.58215222  0.10932116  1
  P  P209  1  0.55281634  0.58360667  0.36171089  1
  P  P210  1  0.55439454  0.58309397  0.60923309  1
  P  P211  1  0.55270606  0.58243939  0.86076367  1
  P  P212  1  0.55548111  0.91677738  0.11008125  1
  P  P213  1  0.55624769  0.91679534  0.36113197  1
  P  P214  1  0.55683754  0.91682217  0.61101766  1
  P  P215  1  0.55491877  0.91706517  0.86050147  1
  P  P216  1  0.44554711  0.08424060  0.13919855  1
  P  P217  1  0.44917092  0.08302548  0.39073033  1
  P  P218  1  0.44934449  0.08351644  0.63995236  1
  P  P219  1  0.44617961  0.08250839  0.89029396  1
  P  P220  1  0.44555676  0.41563387  0.13985273  1
  P  P221  1  0.44427748  0.41699119  0.38995705  1
  P  P222  1  0.44654979  0.41618724  0.63821935  1
  P  P223  1  0.44641178  0.41717948  0.88975626  1
  P  P224  1  0.44638975  0.75035325  0.14104580  1
  P  P225  1  0.44594747  0.74989800  0.39023794  1
  P  P226  1  0.44765429  0.75033313  0.63851986  1
  P  P227  1  0.44688373  0.75030819  0.88914282  1
  P  P228  1  0.94462759  0.08347965  0.13896235  1
  P  P229  1  0.94527510  0.08380280  0.39084349  1
  P  P230  1  0.94502764  0.08353348  0.63833692  1
  P  P231  1  0.94571528  0.08284312  0.88892160  1
  P  P232  1  0.94673039  0.41590135  0.14028152  1
  P  P233  1  0.94741566  0.41661867  0.39116854  1
  P  P234  1  0.94662824  0.41601151  0.63826954  1
  P  P235  1  0.94860563  0.41776993  0.88967102  1
  P  P236  1  0.94633559  0.75069662  0.14053661  1
  P  P237  1  0.94678778  0.74944106  0.39061276  1
  P  P238  1  0.94701852  0.75069414  0.63977965  1
  P  P239  1  0.94462233  0.74955025  0.88815379  1
  P  P240  1  0.19661666  0.08416416  0.23494527  1
  P  P241  1  0.19478542  0.08291483  0.48670094  1
  P  P242  1  0.19374961  0.08360806  0.73535654  1
  P  P243  1  0.19695077  0.08342320  0.98423655  1
  P  P244  1  0.19731275  0.41602897  0.23651152  1
  P  P245  1  0.19528821  0.41653015  0.48588645  1
  P  P246  1  0.19382459  0.41694344  0.73537988  1
  P  P247  1  0.19790909  0.41629749  0.98460929  1
  P  P248  1  0.19942329  0.74985863  0.23464170  1
  P  P249  1  0.19638667  0.75050162  0.48657987  1
  P  P250  1  0.19572893  0.74920428  0.73426169  1
  P  P251  1  0.19689128  0.75029185  0.98451324  1
  P  P252  1  0.69483432  0.08365105  0.23594847  1
  P  P253  1  0.69662623  0.08378934  0.48609050  1
  P  P254  1  0.69798810  0.08256125  0.73482761  1
  P  P255  1  0.69870517  0.08288428  0.98466987  1
  P  P256  1  0.69519579  0.41575658  0.23394187  1
  P  P257  1  0.69660268  0.41645089  0.48642471  1
  P  P258  1  0.69469553  0.41679098  0.73590742  1
  P  P259  1  0.69418411  0.41693285  0.98517334  1
  P  P260  1  0.69466299  0.75037379  0.23617045  1
  P  P261  1  0.69433485  0.74953221  0.48574343  1
  P  P262  1  0.69769724  0.75082498  0.73466107  1
  P  P263  1  0.69636917  0.75012531  0.98482672  1
  P  P264  1  0.30422620  0.24997220  0.01522698  1
  P  P265  1  0.30376654  0.25037847  0.26470480  1
  P  P266  1  0.30161847  0.25039730  0.51524391  1
  P  P267  1  0.30115823  0.24990790  0.76405834  1
  P  P268  1  0.30506888  0.58210543  0.01341094  1
  P  P269  1  0.30497871  0.58339672  0.26603207  1
  P  P270  1  0.30378303  0.58324586  0.51393464  1
  P  P271  1  0.30235402  0.58325407  0.76470388  1
  P  P272  1  0.30480957  0.91798249  0.01340143  1
  P  P273  1  0.30372938  0.91624575  0.26576406  1
  P  P274  1  0.30243188  0.91637271  0.51550924  1
  P  P275  1  0.30396692  0.91677962  0.76515961  1
  P  P276  1  0.80418379  0.24946265  0.01523804  1
  P  P277  1  0.80268049  0.25038068  0.26411622  1
  P  P278  1  0.80318779  0.25056672  0.51548700  1
  P  P279  1  0.80522689  0.24957863  0.76355685  1
  P  P280  1  0.80254096  0.58280340  0.01368756  1
  P  P281  1  0.80215587  0.58281762  0.26559394  1
  P  P282  1  0.80175162  0.58210532  0.51521961  1
  P  P283  1  0.80433364  0.58411713  0.76543926  1
  P  P284  1  0.80414162  0.91753389  0.01434678  1
  P  P285  1  0.80262297  0.91657143  0.26431888  1
  P  P286  1  0.80248289  0.91715632  0.51515355  1
  P  P287  1  0.80487243  0.91644314  0.76345295  1
  O  O288  1  0.05843707  0.25001333  0.18790306  1
  O  O289  1  0.05922161  0.25012875  0.43738321  1
  O  O290  1  0.05786675  0.24974923  0.68735070  1
  O  O291  1  0.05672736  0.24972912  0.93653033  1
  O  O292  1  0.05701678  0.58343315  0.18688523  1
  O  O293  1  0.05980553  0.58329313  0.43803899  1
  O  O294  1  0.05891837  0.58382795  0.68732045  1
  O  O295  1  0.05638293  0.58335202  0.93605437  1
  O  O296  1  0.05562950  0.91651154  0.18636402  1
  O  O297  1  0.05883806  0.91659566  0.43752582  1
  O  O298  1  0.05536735  0.91646642  0.68633437  1
  O  O299  1  0.05503128  0.91727130  0.93652197  1
  O  O300  1  0.55754582  0.25009635  0.18763194  1
  O  O301  1  0.56056367  0.25020535  0.43753468  1
  O  O302  1  0.55698531  0.24998631  0.68603880  1
  O  O303  1  0.55578888  0.24976934  0.93672310  1
  O  O304  1  0.55582381  0.58307908  0.18619518  1
  O  O305  1  0.55798388  0.58257994  0.43829258  1
  O  O306  1  0.55691200  0.58323753  0.68612929  1
  O  O307  1  0.55730961  0.58343439  0.93741718  1
  O  O308  1  0.55949397  0.91688499  0.18690908  1
  O  O309  1  0.56019290  0.91717800  0.43797815  1
  O  O310  1  0.56052285  0.91676627  0.68785065  1
  O  O311  1  0.55979480  0.91722636  0.93722727  1
  O  O312  1  0.44105202  0.08364232  0.06250556  1
  O  O313  1  0.44467401  0.08302909  0.31405160  1
  O  O314  1  0.44494837  0.08354200  0.56327657  1
  O  O315  1  0.44347276  0.08324874  0.81347301  1
  O  O316  1  0.44134666  0.41607354  0.06313192  1
  O  O317  1  0.44045794  0.41620394  0.31312151  1
  O  O318  1  0.44065178  0.41596048  0.56163801  1
  O  O319  1  0.44294489  0.41664794  0.81297141  1
  O  O320  1  0.44333003  0.75063916  0.06421780  1
  O  O321  1  0.44157657  0.75048658  0.31348900  1
  O  O322  1  0.44204150  0.75046380  0.56188499  1
  O  O323  1  0.44434546  0.75027015  0.81232724  1
  O  O324  1  0.94125866  0.08363443  0.06212665  1
  O  O325  1  0.94206590  0.08377411  0.31401769  1
  O  O326  1  0.94033724  0.08367480  0.56163930  1
  O  O327  1  0.94141434  0.08320423  0.81214607  1
  O  O328  1  0.94339185  0.41637214  0.06349861  1
  O  O329  1  0.94296808  0.41659913  0.31449385  1
  O  O330  1  0.94135020  0.41653671  0.56167170  1
  O  O331  1  0.94496176  0.41727458  0.81295774  1
  O  O332  1  0.94322546  0.75003798  0.06366262  1
  O  O333  1  0.94280744  0.74934070  0.31387877  1
  O  O334  1  0.94317507  0.74992618  0.56308897  1
  O  O335  1  0.94111244  0.74981351  0.81139863  1
  O  O336  1  0.19306470  0.08305619  0.06097639  1
  O  O337  1  0.19320688  0.08345900  0.31171928  1
  O  O338  1  0.19023465  0.08270112  0.56345182  1
  O  O339  1  0.18982510  0.08272639  0.81214099  1
  O  O340  1  0.19442812  0.41667879  0.06138763  1
  O  O341  1  0.19251992  0.41649857  0.31313047  1
  O  O342  1  0.19071596  0.41644656  0.56267151  1
  O  O343  1  0.19057132  0.41689760  0.81222389  1
  O  O344  1  0.19392819  0.75051497  0.06130024  1
  O  O345  1  0.19532866  0.75001316  0.31138990  1
  O  O346  1  0.19125389  0.75077047  0.56320155  1
  O  O347  1  0.19277031  0.75016835  0.81105991  1
  O  O348  1  0.69462688  0.08369211  0.06136806  1
  O  O349  1  0.69175571  0.08384832  0.31280196  1
  O  O350  1  0.69291839  0.08371450  0.56284798  1
  O  O351  1  0.69422712  0.08347271  0.81148897  1
  O  O352  1  0.68996201  0.41623653  0.06188810  1
  O  O353  1  0.69255818  0.41656553  0.31083505  1
  O  O354  1  0.69230349  0.41675909  0.56313370  1
  O  O355  1  0.69003156  0.41667952  0.81262349  1
  O  O356  1  0.69336965  0.74963948  0.06159382  1
  O  O357  1  0.69057941  0.74949572  0.31296330  1
  O  O358  1  0.69156152  0.74932168  0.56264570  1
  O  O359  1  0.69415508  0.75013108  0.81137806  1
  O  O360  1  0.30857419  0.24983407  0.18802124  1
  O  O361  1  0.30596180  0.24959307  0.43856871  1
  O  O362  1  0.30559948  0.24968571  0.68743353  1
  O  O363  1  0.30621848  0.24998746  0.93835890  1
  O  O364  1  0.30743650  0.58325343  0.18915191  1
  O  O365  1  0.30849376  0.58351007  0.43727498  1
  O  O366  1  0.30623481  0.58327610  0.68794854  1
  O  O367  1  0.30886172  0.58281014  0.93661907  1
  O  O368  1  0.30701355  0.91712533  0.18896663  1
  O  O369  1  0.30681735  0.91704212  0.43886069  1
  O  O370  1  0.30748401  0.91687442  0.68837515  1
  O  O371  1  0.30895329  0.91719086  0.93667623  1
  O  O372  1  0.80791180  0.25050173  0.18749711  1
  O  O373  1  0.80614838  0.25087596  0.43872845  1
  O  O374  1  0.80941132  0.25053913  0.68682273  1
  O  O375  1  0.80750220  0.25056137  0.93839531  1
  O  O376  1  0.80534154  0.58294295  0.18876854  1
  O  O377  1  0.80544346  0.58245634  0.43851932  1
  O  O378  1  0.80754416  0.58298829  0.68866543  1
  O  O379  1  0.80835385  0.58247106  0.93710520  1
  O  O380  1  0.80748166  0.91632574  0.18763218  1
  O  O381  1  0.80559888  0.91658021  0.43841729  1
  O  O382  1  0.80915426  0.91628715  0.68671503  1
  O  O383  1  0.80877746  0.91690938  0.93755665  1
  O  O384  1  0.23471492  0.25016962  0.04114341  1
  O  O385  1  0.23348827  0.25016454  0.28856253  1
  O  O386  1  0.23134586  0.25022866  0.53916273  1
  O  O387  1  0.23098395  0.24995422  0.78811512  1
  O  O388  1  0.23527875  0.58298342  0.03833469  1
  O  O389  1  0.23539368  0.58320747  0.29160039  1
  O  O390  1  0.23329570  0.58321930  0.53739045  1
  O  O391  1  0.23220607  0.58287176  0.78892299  1
  O  O392  1  0.23487853  0.91710539  0.03803389  1
  O  O393  1  0.23403811  0.91652806  0.29085967  1
  O  O394  1  0.23223043  0.91651051  0.53967434  1
  O  O395  1  0.23399227  0.91675441  0.78955421  1
  O  O396  1  0.73430976  0.24973872  0.03989804  1
  O  O397  1  0.73237372  0.25014589  0.28767486  1
  O  O398  1  0.73316622  0.25021756  0.54039376  1
  O  O399  1  0.73524817  0.24955669  0.78794382  1
  O  O400  1  0.73202127  0.58303646  0.03677672  1
  O  O401  1  0.73242125  0.58224445  0.29052259  1
  O  O402  1  0.73175293  0.58287132  0.53989583  1
  O  O403  1  0.73442188  0.58370354  0.79010796  1
  O  O404  1  0.73374434  0.91666161  0.03797294  1
  O  O405  1  0.73234250  0.91736806  0.28802695  1
  O  O406  1  0.73234429  0.91673834  0.53958168  1
  O  O407  1  0.73446875  0.91697877  0.78742913  1
  O  O408  1  0.26635433  0.08357779  0.21012269  1
  O  O409  1  0.26481074  0.08336494  0.46233389  1
  O  O410  1  0.26385185  0.08317325  0.71106979  1
  O  O411  1  0.26704564  0.08416144  0.95988618  1
  O  O412  1  0.26768598  0.41678085  0.21279034  1
  O  O413  1  0.26575625  0.41643078  0.46234258  1
  O  O414  1  0.26377176  0.41704616  0.71057442  1
  O  O415  1  0.26786480  0.41560802  0.95985458  1
  O  O416  1  0.26945481  0.74982594  0.21022040  1
  O  O417  1  0.26688516  0.75020692  0.46312461  1
  O  O418  1  0.26544462  0.74989542  0.70906167  1
  O  O419  1  0.26656145  0.74993004  0.95936547  1
  O  O420  1  0.76460842  0.08330420  0.21106370  1
  O  O421  1  0.76691087  0.08394542  0.46170279  1
  O  O422  1  0.76815137  0.08254976  0.71052423  1
  O  O423  1  0.76868707  0.08330586  0.96006034  1
  O  O424  1  0.76479154  0.41675469  0.20861289  1
  O  O425  1  0.76676894  0.41594338  0.46199487  1
  O  O426  1  0.76499881  0.41720381  0.71249952  1
  O  O427  1  0.76431333  0.41626765  0.96100998  1
  O  O428  1  0.76445141  0.74971764  0.21133788  1
  O  O429  1  0.76417922  0.74995612  0.46071375  1
  O  O430  1  0.76773886  0.75020199  0.70996718  1
  O  O431  1  0.76604717  0.75049004  0.95967560  1
  O  O432  1  0.01440171  0.08317949  0.16406046  1
  O  O433  1  0.01508489  0.08393658  0.41542873  1
  O  O434  1  0.01552646  0.08303192  0.66186380  1
  O  O435  1  0.01603502  0.08370455  0.91293027  1
  O  O436  1  0.01644081  0.41631288  0.16541178  1
  O  O437  1  0.01768051  0.41635352  0.41496751  1
  O  O438  1  0.01728763  0.41664783  0.66110405  1
  O  O439  1  0.01859487  0.41688118  0.91453111  1
  O  O440  1  0.01586328  0.75024632  0.16615987  1
  O  O441  1  0.01668239  0.74981777  0.41492912  1
  O  O442  1  0.01715757  0.75039891  0.66414730  1
  O  O443  1  0.01446523  0.74994717  0.91307394  1
  O  O444  1  0.51564979  0.08371841  0.16311516  1
  O  O445  1  0.51948060  0.08300331  0.41434372  1
  O  O446  1  0.51952719  0.08343399  0.66402853  1
  O  O447  1  0.51580213  0.08376216  0.91585529  1
  O  O448  1  0.51576564  0.41661232  0.16410925  1
  O  O449  1  0.51453856  0.41648533  0.41363251  1
  O  O450  1  0.51712841  0.41645961  0.66097640  1
  O  O451  1  0.51638546  0.41644641  0.91460567  1
  O  O452  1  0.51611023  0.74963864  0.16594545  1
  O  O453  1  0.51644439  0.75045283  0.41360730  1
  O  O454  1  0.51817740  0.74999479  0.66167286  1
  O  O455  1  0.51636825  0.75030394  0.91499594  1
  O  O456  1  0.48252587  0.25070646  0.08711133  1
  O  O457  1  0.48567493  0.24992978  0.33721087  1
  O  O458  1  0.48514890  0.24976513  0.58334938  1
  O  O459  1  0.48331398  0.25032966  0.83436511  1
  O  O460  1  0.48382351  0.58288228  0.08417681  1
  O  O461  1  0.48246786  0.58334132  0.33808824  1
  O  O462  1  0.48471483  0.58334925  0.58394787  1
  O  O463  1  0.48257543  0.58285121  0.83627936  1
  O  O464  1  0.48538598  0.91705396  0.08628221  1
  O  O465  1  0.48620690  0.91682411  0.33682395  1
  O  O466  1  0.48685866  0.91690915  0.58636787  1
  O  O467  1  0.48456869  0.91682508  0.83684818  1
  O  O468  1  0.98292196  0.24993514  0.08744215  1
  O  O469  1  0.98519452  0.25019857  0.33657474  1
  O  O470  1  0.98359717  0.24978620  0.58650167  1
  O  O471  1  0.98465166  0.25021320  0.83403873  1
  O  O472  1  0.98352937  0.58343063  0.08519147  1
  O  O473  1  0.98508849  0.58255196  0.33734464  1
  O  O474  1  0.98578364  0.58346287  0.58583924  1
  O  O475  1  0.98295518  0.58319851  0.83430268  1
  O  O476  1  0.98118134  0.91710289  0.08536551  1
  O  O477  1  0.98400361  0.91689475  0.33712524  1
  O  O478  1  0.98191815  0.91690579  0.58501422  1
  O  O479  1  0.98115931  0.91687548  0.83521732  1
  O  O480  1  0.08672536  0.31484123  0.07793910  1
  O  O481  1  0.08867954  0.31637694  0.32788695  1
  O  O482  1  0.08775138  0.31437747  0.57734672  1
  O  O483  1  0.08876288  0.31491686  0.82759728  1
  O  O484  1  0.08716234  0.64874964  0.07754714  1
  O  O485  1  0.08875178  0.64724531  0.32779013  1
  O  O486  1  0.08928063  0.64927307  0.57781492  1
  O  O487  1  0.08720384  0.64761275  0.82647211  1
  O  O488  1  0.08526190  0.98150238  0.07681338  1
  O  O489  1  0.08731149  0.98209160  0.32764320  1
  O  O490  1  0.08620729  0.98149065  0.57695970  1
  O  O491  1  0.08459793  0.98285895  0.82710539  1
  O  O492  1  0.58591825  0.31627904  0.07804212  1
  O  O493  1  0.58944791  0.31430490  0.32727644  1
  O  O494  1  0.58905296  0.31505395  0.57690475  1
  O  O495  1  0.58695003  0.31594884  0.82795076  1
  O  O496  1  0.58821008  0.64680185  0.07655162  1
  O  O497  1  0.58587959  0.64885729  0.32861513  1
  O  O498  1  0.58895174  0.64803350  0.57713058  1
  O  O499  1  0.58647625  0.64731338  0.82727412  1
  O  O500  1  0.58937207  0.98158423  0.07674588  1
  O  O501  1  0.59001781  0.98172133  0.32795386  1
  O  O502  1  0.59068848  0.98194949  0.57821778  1
  O  O503  1  0.58839207  0.98212052  0.82724173  1
  O  O504  1  0.41213317  0.01926895  0.17271905  1
  O  O505  1  0.41567360  0.01808942  0.42394484  1
  O  O506  1  0.41553268  0.01852094  0.67272908  1
  O  O507  1  0.41261951  0.01698096  0.92240219  1
  O  O508  1  0.41229485  0.35047457  0.17311931  1
  O  O509  1  0.41059347  0.35208941  0.42334473  1
  O  O510  1  0.41365248  0.35119451  0.67210332  1
  O  O511  1  0.41212499  0.35229678  0.92256610  1
  O  O512  1  0.41188781  0.68539526  0.17323659  1
  O  O513  1  0.41275372  0.68472882  0.42345690  1
  O  O514  1  0.41431116  0.68527454  0.67184658  1
  O  O515  1  0.41260204  0.68513462  0.92120190  1
  O  O516  1  0.91062505  0.01829118  0.17146749  1
  O  O517  1  0.91104159  0.01887282  0.42341270  1
  O  O518  1  0.91159684  0.01850127  0.67163957  1
  O  O519  1  0.91239681  0.01763694  0.92194022  1
  O  O520  1  0.91285151  0.35064591  0.17270504  1
  O  O521  1  0.91352584  0.35159577  0.42408631  1
  O  O522  1  0.91402459  0.35086188  0.67194535  1
  O  O523  1  0.91434456  0.35287690  0.92234214  1
  O  O524  1  0.91186606  0.68565861  0.17279276  1
  O  O525  1  0.91311968  0.68434575  0.42351763  1
  O  O526  1  0.91297359  0.68581718  0.67279511  1
  O  O527  1  0.91124831  0.68416964  0.92097978  1
  O  O528  1  0.16238667  0.01924673  0.20214551  1
  O  O529  1  0.16148977  0.01767098  0.45364914  1
  O  O530  1  0.15978446  0.01870703  0.70214073  1
  O  O531  1  0.16321040  0.01843247  0.95111964  1
  O  O532  1  0.16434716  0.35077221  0.20311641  1
  O  O533  1  0.16187411  0.35151957  0.45266725  1
  O  O534  1  0.15995904  0.35180605  0.70255288  1
  O  O535  1  0.16333908  0.35145729  0.95230773  1
  O  O536  1  0.16571193  0.68467040  0.20208848  1
  O  O537  1  0.16333879  0.68532380  0.45307253  1
  O  O538  1  0.16185593  0.68389423  0.70226892  1
  O  O539  1  0.16256269  0.68524744  0.95233163  1
  O  O540  1  0.66093041  0.01861945  0.20335674  1
  O  O541  1  0.66319889  0.01862767  0.45300071  1
  O  O542  1  0.66403698  0.01760285  0.70226277  1
  O  O543  1  0.66506802  0.01772531  0.95214409  1
  O  O544  1  0.66133966  0.35034322  0.20185981  1
  O  O545  1  0.66289722  0.35139559  0.45353744  1
  O  O546  1  0.66152326  0.35173802  0.70237565  1
  O  O547  1  0.66029938  0.35207048  0.95185807  1
  O  O548  1  0.66067407  0.68545820  0.20313703  1
  O  O549  1  0.66044943  0.68441980  0.45302175  1
  O  O550  1  0.66327026  0.68599756  0.70190262  1
  O  O551  1  0.66240752  0.68502557  0.95209111  1
  O  O552  1  0.33879530  0.31503511  0.04731962  1
  O  O553  1  0.33708065  0.31549504  0.29777889  1
  O  O554  1  0.33506653  0.31562014  0.54793745  1
  O  O555  1  0.33472870  0.31505217  0.79688537  1
  O  O556  1  0.33940285  0.64683684  0.04636345  1
  O  O557  1  0.33925307  0.64857043  0.29826718  1
  O  O558  1  0.33694949  0.64832553  0.54740942  1
  O  O559  1  0.33617892  0.64832493  0.79742304  1
  O  O560  1  0.33788581  0.98352838  0.04620762  1
  O  O561  1  0.33791366  0.98116345  0.29869204  1
  O  O562  1  0.33611904  0.98145951  0.54855953  1
  O  O563  1  0.33811527  0.98177731  0.79762404  1
  O  O564  1  0.83842151  0.31432427  0.04814708  1
  O  O565  1  0.83578384  0.31544084  0.29773280  1
  O  O566  1  0.83724759  0.31546656  0.54839802  1
  O  O567  1  0.83861420  0.31455180  0.79708582  1
  O  O568  1  0.83557069  0.64790335  0.04730003  1
  O  O569  1  0.83590854  0.64792651  0.29828191  1
  O  O570  1  0.83590722  0.64716419  0.54777035  1
  O  O571  1  0.83812140  0.64954151  0.79726442  1
  O  O572  1  0.83710732  0.98284144  0.04741410  1
  O  O573  1  0.83630364  0.98150574  0.29744925  1
  O  O574  1  0.83628358  0.98221209  0.54773478  1
  O  O575  1  0.83851583  0.98145853  0.79661383  1
  O  O576  1  0.41239556  0.14955166  0.17233762  1
  O  O577  1  0.41558229  0.14811213  0.42370904  1
  O  O578  1  0.41543695  0.14852501  0.67276579  1
  O  O579  1  0.41098894  0.14713731  0.92258216  1
  O  O580  1  0.41157914  0.48049244  0.17303618  1
  O  O581  1  0.41090994  0.48217462  0.42281709  1
  O  O582  1  0.41350683  0.48129180  0.67178934  1
  O  O583  1  0.41277795  0.48234661  0.92238746  1
  O  O584  1  0.41267169  0.81545683  0.17384292  1
  O  O585  1  0.41254647  0.81479729  0.42391182  1
  O  O586  1  0.41473688  0.81536468  0.67212925  1
  O  O587  1  0.41280419  0.81555237  0.92138557  1
  O  O588  1  0.91100103  0.14874213  0.17178445  1
  O  O589  1  0.91112830  0.14884922  0.42329101  1
  O  O590  1  0.91217942  0.14870101  0.67197970  1
  O  O591  1  0.91190362  0.14766822  0.92228156  1
  O  O592  1  0.91257464  0.48096613  0.17280061  1
  O  O593  1  0.91365607  0.48150999  0.42441671  1
  O  O594  1  0.91351190  0.48099563  0.67199464  1
  O  O595  1  0.91485364  0.48291081  0.92228143  1
  O  O596  1  0.91222604  0.81611084  0.17238000  1
  O  O597  1  0.91259430  0.81446396  0.42306048  1
  O  O598  1  0.91309633  0.81582717  0.67223208  1
  O  O599  1  0.91072326  0.81464204  0.92094298  1
  O  O600  1  0.08630682  0.18478747  0.07773357  1
  O  O601  1  0.08935164  0.18630100  0.32715283  1
  O  O602  1  0.08714531  0.18427485  0.57752791  1
  O  O603  1  0.08819644  0.18469383  0.82724577  1
  O  O604  1  0.08747493  0.51854439  0.07764067  1
  O  O605  1  0.08846915  0.51691959  0.32859857  1
  O  O606  1  0.08992456  0.51900929  0.57770391  1
  O  O607  1  0.08693981  0.51763036  0.82698752  1
  O  O608  1  0.08478087  0.85138690  0.07673729  1
  O  O609  1  0.08761477  0.85183566  0.32744706  1
  O  O610  1  0.08602548  0.85146855  0.57691869  1
  O  O611  1  0.08536787  0.85279350  0.82706165  1
  O  O612  1  0.58627015  0.18625416  0.07703840  1
  O  O613  1  0.58916280  0.18411459  0.32781234  1
  O  O614  1  0.58950282  0.18495077  0.57740565  1
  O  O615  1  0.58749761  0.18584223  0.82755614  1
  O  O616  1  0.58729651  0.51677112  0.07738706  1
  O  O617  1  0.58594271  0.51861654  0.32792735  1
  O  O618  1  0.58850957  0.51791926  0.57685589  1
  O  O619  1  0.58609918  0.51722652  0.82801941  1
  O  O620  1  0.58888558  0.85163571  0.07705437  1
  O  O621  1  0.58965845  0.85140945  0.32843105  1
  O  O622  1  0.59049613  0.85175510  0.57799977  1
  O  O623  1  0.58860376  0.85220307  0.82706682  1
  O  O624  1  0.33858139  0.18481607  0.04731772  1
  O  O625  1  0.33710918  0.18539165  0.29840399  1
  O  O626  1  0.33531406  0.18538074  0.54836238  1
  O  O627  1  0.33490261  0.18497363  0.79704374  1
  O  O628  1  0.33821040  0.51654733  0.04603359  1
  O  O629  1  0.33942130  0.51838290  0.29826730  1
  O  O630  1  0.33664660  0.51794164  0.54724402  1
  O  O631  1  0.33657438  0.51836385  0.79732950  1
  O  O632  1  0.33907162  0.85328437  0.04659660  1
  O  O633  1  0.33776706  0.85095670  0.29781171  1
  O  O634  1  0.33623105  0.85124101  0.54814715  1
  O  O635  1  0.33809963  0.85172794  0.79761498  1
  O  O636  1  0.83812617  0.18420486  0.04734494  1
  O  O637  1  0.83607282  0.18544275  0.29758474  1
  O  O638  1  0.83742281  0.18549660  0.54782564  1
  O  O639  1  0.83876794  0.18417042  0.79583729  1
  O  O640  1  0.83543650  0.51774058  0.04746753  1
  O  O641  1  0.83655899  0.51785535  0.29788198  1
  O  O642  1  0.83548015  0.51705403  0.54796111  1
  O  O643  1  0.83862004  0.51935601  0.79856225  1
  O  O644  1  0.83784225  0.85275434  0.04794797  1
  O  O645  1  0.83539388  0.85142445  0.29799349  1
  O  O646  1  0.83651656  0.85223796  0.54806007  1
  O  O647  1  0.83779763  0.85122741  0.79686707  1
  O  O648  1  0.16289569  0.14955493  0.20267401  1
  O  O649  1  0.16111456  0.14813872  0.45388430  1
  O  O650  1  0.16008668  0.14877930  0.70265939  1
  O  O651  1  0.16258243  0.14838739  0.95191291  1
  O  O652  1  0.16396839  0.48095106  0.20287784  1
  O  O653  1  0.16224477  0.48173466  0.45258053  1
  O  O654  1  0.15999300  0.48200969  0.70258472  1
  O  O655  1  0.16404612  0.48129144  0.95167000  1
  O  O656  1  0.16547323  0.81485994  0.20182710  1
  O  O657  1  0.16336613  0.81561656  0.45301768  1
  O  O658  1  0.16099515  0.81403810  0.70169118  1
  O  O659  1  0.16285274  0.81535982  0.95194524  1
  O  O660  1  0.66128881  0.14886031  0.20295575  1
  O  O661  1  0.66308041  0.14887587  0.45313168  1
  O  O662  1  0.66420062  0.14746225  0.70152013  1
  O  O663  1  0.66475308  0.14788737  0.95176214  1
  O  O664  1  0.66007864  0.48031102  0.20160373  1
  O  O665  1  0.66313851  0.48147594  0.45299517  1
  O  O666  1  0.66102437  0.48171733  0.70267333  1
  O  O667  1  0.66068370  0.48215082  0.95218520  1
  O  O668  1  0.66146025  0.81585265  0.20359076  1
  O  O669  1  0.66019946  0.81467483  0.45345412  1
  O  O670  1  0.66391232  0.81596519  0.70226945  1
  O  O671  1  0.66241899  0.81540922  0.95266236  1
