# generated using pymatgen
data_Na2MnFe(PO4)2
_symmetry_space_group_name_H-M   'P 1'
_cell_length_a   21.08081206
_cell_length_b   18.93234883
_cell_length_c   20.03996502
_cell_angle_alpha   89.99967241
_cell_angle_beta   90.00409109
_cell_angle_gamma   89.99791164
_symmetry_Int_Tables_number   1
_chemical_formula_structural   Na2MnFe(PO4)2
_chemical_formula_sum   'Na96 Mn48 Fe48 P96 O384'
_cell_volume   7998.13613533
_cell_formula_units_Z   48
loop_
 _symmetry_equiv_pos_site_id
 _symmetry_equiv_pos_as_xyz
  1  'x, y, z'
loop_
 _atom_site_type_symbol
 _atom_site_label
 _atom_site_symmetry_multiplicity
 _atom_site_fract_x
 _atom_site_fract_y
 _atom_site_fract_z
 _atom_site_occupancy
  Na  Na0  1  0.00068648  0.00059136  -0.00097267  1
  Na  Na1  1  -0.00288323  -0.00110652  0.25074594  1
  Na  Na2  1  0.00054003  0.00036780  0.50065514  1
  Na  Na3  1  0.00089768  -0.00000462  0.74908922  1
  Na  Na4  1  0.00125140  0.33350770  -0.00046463  1
  Na  Na5  1  -0.00217458  0.33214977  0.25009961  1
  Na  Na6  1  -0.00343220  0.33249882  0.50042958  1
  Na  Na7  1  0.00055222  0.33367817  0.75013299  1
  Na  Na8  1  -0.00080903  0.66617279  0.00096086  1
  Na  Na9  1  -0.00049964  0.66693588  0.24903913  1
  Na  Na10  1  -0.00228234  0.66591579  0.49982574  1
  Na  Na11  1  -0.00073390  0.66621280  0.75015000  1
  Na  Na12  1  0.49963622  0.00058335  -0.00097630  1
  Na  Na13  1  0.49880173  -0.00006371  0.24982257  1
  Na  Na14  1  0.49959622  0.00045878  0.49998413  1
  Na  Na15  1  0.49961073  -0.00002879  0.75101983  1
  Na  Na16  1  0.50081068  0.33328466  0.00012811  1
  Na  Na17  1  0.49935666  0.33278013  0.24972102  1
  Na  Na18  1  0.49941749  0.33261430  0.50068525  1
  Na  Na19  1  0.50117404  0.33324286  0.74941832  1
  Na  Na20  1  0.50157825  0.66719418  0.00006666  1
  Na  Na21  1  0.50032546  0.66665480  0.25105841  1
  Na  Na22  1  0.49906320  0.66610785  0.50030469  1
  Na  Na23  1  0.50055105  0.66663295  0.74864783  1
  Na  Na24  1  0.25240721  0.00155005  0.12598910  1
  Na  Na25  1  0.24868684  -0.00045562  0.37353938  1
  Na  Na26  1  0.24809291  -0.00021711  0.62533935  1
  Na  Na27  1  0.25012830  0.00026320  0.87539517  1
  Na  Na28  1  0.24837325  0.33230110  0.12449751  1
  Na  Na29  1  0.25000116  0.33331100  0.37559737  1
  Na  Na30  1  0.24885986  0.33305939  0.62528066  1
  Na  Na31  1  0.24749443  0.33244649  0.87489690  1
  Na  Na32  1  0.24913863  0.66532755  0.12426738  1
  Na  Na33  1  0.25172035  0.66715904  0.37520512  1
  Na  Na34  1  0.25197794  0.66718184  0.62462407  1
  Na  Na35  1  0.25080960  0.66654974  0.87571556  1
  Na  Na36  1  0.74991335  -0.00003965  0.12489025  1
  Na  Na37  1  0.75272172  0.00076046  0.37412424  1
  Na  Na38  1  0.75155611  0.00067093  0.62408106  1
  Na  Na39  1  0.74793216  -0.00056207  0.87606461  1
  Na  Na40  1  0.75217182  0.33360902  0.12517380  1
  Na  Na41  1  0.75461240  0.33432474  0.37473444  1
  Na  Na42  1  0.75284514  0.33402796  0.62530678  1
  Na  Na43  1  0.74930915  0.33238376  0.87466848  1
  Na  Na44  1  0.74950905  0.66697530  0.12364675  1
  Na  Na45  1  0.75014171  0.66670867  0.37502552  1
  Na  Na46  1  0.74981073  0.66659463  0.62669343  1
  Na  Na47  1  0.75030209  0.66697460  0.87552752  1
  Na  Na48  1  0.00077311  0.16658410  -0.00037888  1
  Na  Na49  1  -0.00105264  0.16669501  0.24968001  1
  Na  Na50  1  -0.00247289  0.16741410  0.50058674  1
  Na  Na51  1  0.00083205  0.16628364  0.75051490  1
  Na  Na52  1  0.00196685  0.49985292  -0.00006031  1
  Na  Na53  1  0.00061689  0.49986025  0.24949764  1
  Na  Na54  1  -0.00150242  0.50009550  0.50003057  1
  Na  Na55  1  -0.00094931  0.50080811  0.74965511  1
  Na  Na56  1  -0.00250491  0.83404375  -0.00007892  1
  Na  Na57  1  -0.00361409  0.83397101  0.25077201  1
  Na  Na58  1  -0.00157744  0.83375833  0.50022665  1
  Na  Na59  1  0.00147080  0.83241737  0.74937119  1
  Na  Na60  1  0.49897594  0.16645589  -0.00066378  1
  Na  Na61  1  0.49933093  0.16601781  0.24949126  1
  Na  Na62  1  0.49876939  0.16703944  0.50043229  1
  Na  Na63  1  0.49862884  0.16732559  0.75000405  1
  Na  Na64  1  0.50081106  0.50049481  0.00083237  1
  Na  Na65  1  0.50042790  0.50065173  0.25045247  1
  Na  Na66  1  0.50075408  0.50057960  0.50025856  1
  Na  Na67  1  0.50181862  0.49977748  0.74935520  1
  Na  Na68  1  0.50171072  0.83265082  -0.00123112  1
  Na  Na69  1  0.49931842  0.83354720  0.25075766  1
  Na  Na70  1  0.49888566  0.83335634  0.50035587  1
  Na  Na71  1  0.50114243  0.83298083  0.74977444  1
  Na  Na72  1  0.24900369  0.16686188  0.12486880  1
  Na  Na73  1  0.24894932  0.16677870  0.37546648  1
  Na  Na74  1  0.25059854  0.16609834  0.62492677  1
  Na  Na75  1  0.25039159  0.16655927  0.87544514  1
  Na  Na76  1  0.24878639  0.50043220  0.12444412  1
  Na  Na77  1  0.24962055  0.50044894  0.37534662  1
  Na  Na78  1  0.24919264  0.50063953  0.62507194  1
  Na  Na79  1  0.24864065  0.50091327  0.87520796  1
  Na  Na80  1  0.25265404  0.83245447  0.12522323  1
  Na  Na81  1  0.25139102  0.83308574  0.37348135  1
  Na  Na82  1  0.24925482  0.83325238  0.62529291  1
  Na  Na83  1  0.24925592  0.83352473  0.87550545  1
  Na  Na84  1  0.75127305  0.16611157  0.12485464  1
  Na  Na85  1  0.75328260  0.16628129  0.37437511  1
  Na  Na86  1  0.75156096  0.16678166  0.62426251  1
  Na  Na87  1  0.75031174  0.16623681  0.87574985  1
  Na  Na88  1  0.75014500  0.50039609  0.12361702  1
  Na  Na89  1  0.75065158  0.50048823  0.37513184  1
  Na  Na90  1  0.75131149  0.49968125  0.62668077  1
  Na  Na91  1  0.74961147  0.50021094  0.87466928  1
  Na  Na92  1  0.75029265  0.83299826  0.12528028  1
  Na  Na93  1  0.75291187  0.83239028  0.37436541  1
  Na  Na94  1  0.75039864  0.83341061  0.62544917  1
  Na  Na95  1  0.74798982  0.83394650  0.87541188  1
  Mn  Mn96  1  0.10741733  0.08369958  0.62293749  1
  Mn  Mn97  1  0.10735749  0.75028298  0.37236777  1
  Mn  Mn98  1  0.14206953  0.91624637  0.24704986  1
  Mn  Mn99  1  0.39197937  0.25012763  0.62761746  1
  Mn  Mn100  1  0.35748709  0.41687734  0.75310338  1
  Mn  Mn101  1  0.60912593  0.41634984  0.62254039  1
  Mn  Mn102  1  0.60872773  0.41598209  0.37304981  1
  Mn  Mn103  1  0.64217912  0.24965973  0.99803540  1
  Mn  Mn104  1  0.35777031  0.41696800  0.50220370  1
  Mn  Mn105  1  0.39152553  0.91673476  0.37767763  1
  Mn  Mn106  1  0.85832203  0.41673912  0.00152847  1
  Mn  Mn107  1  0.10762427  0.74998019  0.87301197  1
  Mn  Mn108  1  0.10633317  0.41684911  0.62319921  1
  Mn  Mn109  1  0.85715683  0.75071167  0.75319429  1
  Mn  Mn110  1  0.14211361  0.91655326  0.99869816  1
  Mn  Mn111  1  0.35766602  0.41654042  0.25254006  1
  Mn  Mn112  1  0.35745952  0.41619204  0.00141205  1
  Mn  Mn113  1  0.10683488  0.41619730  0.37265676  1
  Mn  Mn114  1  0.64330712  0.91661057  0.49737086  1
  Mn  Mn115  1  0.60713128  0.08394735  0.87207623  1
  Mn  Mn116  1  0.10796974  0.74921905  0.62264702  1
  Mn  Mn117  1  0.60867109  0.41616645  0.12320314  1
  Mn  Mn118  1  0.39229079  0.91629353  0.87734141  1
  Mn  Mn119  1  0.60780918  0.75027992  0.37332242  1
  Mn  Mn120  1  0.89135563  0.58340497  0.37713512  1
  Mn  Mn121  1  0.39252061  0.58401751  0.12743158  1
  Mn  Mn122  1  0.10736673  0.08255428  0.12344678  1
  Mn  Mn123  1  0.39256738  0.58288866  0.62756829  1
  Mn  Mn124  1  0.39146774  0.24972534  0.12749368  1
  Mn  Mn125  1  0.60811549  0.08336693  0.62309614  1
  Mn  Mn126  1  0.64220838  0.58355594  0.99705285  1
  Mn  Mn127  1  0.89237820  0.58320756  0.12744635  1
  Mn  Mn128  1  0.10735167  0.75088687  0.12336734  1
  Mn  Mn129  1  0.10782748  0.41641696  0.12320000  1
  Mn  Mn130  1  0.89241161  0.91664964  0.62795345  1
  Mn  Mn131  1  0.85797916  0.08238526  0.00213543  1
  Mn  Mn132  1  0.64326575  0.25023910  0.24820886  1
  Mn  Mn133  1  0.60780217  0.75037684  0.62250627  1
  Mn  Mn134  1  0.64384088  0.25028615  0.49705367  1
  Mn  Mn135  1  0.39127854  0.91706868  0.62738584  1
  Mn  Mn136  1  0.35870999  0.75033254  0.00246121  1
  Mn  Mn137  1  0.89206795  0.91628316  0.87683600  1
  Mn  Mn138  1  0.64283187  0.91666100  0.24770511  1
  Mn  Mn139  1  0.14175929  0.58421112  0.49752290  1
  Mn  Mn140  1  0.89316944  0.25027239  0.87697478  1
  Mn  Mn141  1  0.14112689  0.24949381  0.49756807  1
  Mn  Mn142  1  0.60830739  0.08381240  0.37284723  1
  Mn  Mn143  1  0.35679914  0.08254129  0.50192577  1
  Fe  Fe144  1  0.85711566  0.08343445  0.75201810  1
  Fe  Fe145  1  0.35810539  0.74968954  0.25146896  1
  Fe  Fe146  1  0.85835624  0.08307985  0.50210698  1
  Fe  Fe147  1  0.10747405  0.41692999  0.87259403  1
  Fe  Fe148  1  0.85789394  0.41727430  0.25149445  1
  Fe  Fe149  1  0.35697367  0.75046528  0.50155208  1
  Fe  Fe150  1  0.14304562  0.58329670  0.24910772  1
  Fe  Fe151  1  0.60739136  0.74916189  0.87280172  1
  Fe  Fe152  1  0.14265906  0.58383097  0.74836345  1
  Fe  Fe153  1  0.60708293  0.08281775  0.12371630  1
  Fe  Fe154  1  0.60777071  0.75096907  0.12386786  1
  Fe  Fe155  1  0.39231435  0.25128814  0.87627013  1
  Fe  Fe156  1  0.14298315  0.91629836  0.74879879  1
  Fe  Fe157  1  0.85646627  0.75043245  0.00151852  1
  Fe  Fe158  1  0.64380090  0.58333948  0.49868377  1
  Fe  Fe159  1  0.14258739  0.58328116  0.99739115  1
  Fe  Fe160  1  0.14210744  0.91608410  0.49780436  1
  Fe  Fe161  1  0.85769365  0.41759362  0.50245605  1
  Fe  Fe162  1  0.85776272  0.08332409  0.25164402  1
  Fe  Fe163  1  0.64208831  0.91676638  0.99918364  1
  Fe  Fe164  1  0.64279540  0.58334872  0.24904686  1
  Fe  Fe165  1  0.35721823  0.08386317  0.25199110  1
  Fe  Fe166  1  0.89289664  0.91706078  0.37734702  1
  Fe  Fe167  1  0.14297066  0.25007329  0.74833579  1
  Fe  Fe168  1  0.39291124  0.58250547  0.37670804  1
  Fe  Fe169  1  0.64300852  0.24950987  0.74846064  1
  Fe  Fe170  1  0.64323509  0.58307586  0.74872564  1
  Fe  Fe171  1  0.39328931  0.58262122  0.87581820  1
  Fe  Fe172  1  0.89314598  0.24949634  0.12646904  1
  Fe  Fe173  1  0.10602950  0.08333451  0.37325107  1
  Fe  Fe174  1  0.89307879  0.58338441  0.87645291  1
  Fe  Fe175  1  0.35716194  0.75013506  0.75184213  1
  Fe  Fe176  1  0.89111851  0.91720151  0.12668245  1
  Fe  Fe177  1  0.64249531  0.91757532  0.74793858  1
  Fe  Fe178  1  0.89222538  0.25015827  0.62819681  1
  Fe  Fe179  1  0.85736017  0.74941204  0.50216586  1
  Fe  Fe180  1  0.39358163  0.91650759  0.12596204  1
  Fe  Fe181  1  0.14199458  0.25026833  0.24891740  1
  Fe  Fe182  1  0.89171068  0.58318419  0.62763143  1
  Fe  Fe183  1  0.14225355  0.24982803  0.99784356  1
  Fe  Fe184  1  0.60747101  0.41669344  0.87325269  1
  Fe  Fe185  1  0.85689756  0.41636173  0.75289957  1
  Fe  Fe186  1  0.85673422  0.74954843  0.25150516  1
  Fe  Fe187  1  0.10821247  0.08325651  0.87277238  1
  Fe  Fe188  1  0.35689159  0.08363161  0.00164262  1
  Fe  Fe189  1  0.39192162  0.25051732  0.37639211  1
  Fe  Fe190  1  0.89293300  0.24927254  0.37651394  1
  Fe  Fe191  1  0.35655275  0.08310200  0.75175915  1
  P  P192  1  0.05398733  0.24962623  0.11063186  1
  P  P193  1  0.05198758  0.24897604  0.35975221  1
  P  P194  1  0.05256465  0.25024791  0.61138798  1
  P  P195  1  0.05580565  0.24992229  0.86042483  1
  P  P196  1  0.05554178  0.58365906  0.11065217  1
  P  P197  1  0.05295197  0.58359560  0.35892441  1
  P  P198  1  0.05244800  0.58323903  0.61091075  1
  P  P199  1  0.05399082  0.58302493  0.86033919  1
  P  P200  1  0.05085133  0.91663903  0.11012335  1
  P  P201  1  0.05300939  0.91719904  0.36105965  1
  P  P202  1  0.05546498  0.91628094  0.61044677  1
  P  P203  1  0.05400099  0.91716063  0.85924191  1
  P  P204  1  0.55326790  0.24866080  0.11017710  1
  P  P205  1  0.55214261  0.24999860  0.35983794  1
  P  P206  1  0.55510593  0.24962094  0.61060363  1
  P  P207  1  0.55267870  0.25064423  0.85938591  1
  P  P208  1  0.55534551  0.58445873  0.11155049  1
  P  P209  1  0.55454874  0.58324569  0.36108710  1
  P  P210  1  0.55591692  0.58333956  0.61023482  1
  P  P211  1  0.55323316  0.58315852  0.85927893  1
  P  P212  1  0.55296434  0.91676271  0.10971806  1
  P  P213  1  0.55328253  0.91688001  0.35997311  1
  P  P214  1  0.55420362  0.91717761  0.61052250  1
  P  P215  1  0.55518918  0.91605939  0.86054497  1
  P  P216  1  0.44568843  0.08231667  0.13895081  1
  P  P217  1  0.44528890  0.08444920  0.38911383  1
  P  P218  1  0.44567293  0.08313892  0.64113458  1
  P  P219  1  0.44398092  0.08446263  0.88908708  1
  P  P220  1  0.44688373  0.41690294  0.14008976  1
  P  P221  1  0.44694821  0.41662202  0.39010431  1
  P  P222  1  0.44709506  0.41667634  0.64053051  1
  P  P223  1  0.44817420  0.41693874  0.88969922  1
  P  P224  1  0.44798929  0.75095017  0.14042681  1
  P  P225  1  0.44471679  0.74887689  0.38980034  1
  P  P226  1  0.44460828  0.75031391  0.63972664  1
  P  P227  1  0.44684623  0.74873089  0.88829857  1
  P  P228  1  0.94587437  0.08317693  0.14018673  1
  P  P229  1  0.94575827  0.08317716  0.38944152  1
  P  P230  1  0.94477139  0.08400461  0.64015793  1
  P  P231  1  0.94714499  0.08327609  0.88853687  1
  P  P232  1  0.94626186  0.41588304  0.14018701  1
  P  P233  1  0.94437991  0.41626892  0.38942208  1
  P  P234  1  0.94366072  0.41695932  0.64008115  1
  P  P235  1  0.94715084  0.41742359  0.88862232  1
  P  P236  1  0.94424699  0.75096325  0.13936454  1
  P  P237  1  0.94436622  0.75033738  0.38951198  1
  P  P238  1  0.94521349  0.74906027  0.63939289  1
  P  P239  1  0.94576508  0.74909772  0.89076174  1
  P  P240  1  0.19602472  0.08423215  0.23648366  1
  P  P241  1  0.19495224  0.08225522  0.48410918  1
  P  P242  1  0.19623165  0.08361553  0.73643277  1
  P  P243  1  0.19664465  0.08353662  0.98499070  1
  P  P244  1  0.19645213  0.41646441  0.23539489  1
  P  P245  1  0.19585528  0.41678006  0.48514372  1
  P  P246  1  0.19500239  0.41715342  0.73621514  1
  P  P247  1  0.19531928  0.41655552  0.98442910  1
  P  P248  1  0.19815640  0.74916440  0.23493764  1
  P  P249  1  0.19754138  0.75084130  0.48457225  1
  P  P250  1  0.19750816  0.74936253  0.73547339  1
  P  P251  1  0.19680983  0.74968279  0.98540532  1
  P  P252  1  0.69784298  0.08354506  0.23455449  1
  P  P253  1  0.69907724  0.08354335  0.48461307  1
  P  P254  1  0.69785418  0.08365314  0.73507901  1
  P  P255  1  0.69502022  0.08251552  0.98637020  1
  P  P256  1  0.69873621  0.41719730  0.23524746  1
  P  P257  1  0.69905554  0.41740947  0.48526913  1
  P  P258  1  0.69648249  0.41627655  0.73675152  1
  P  P259  1  0.69634141  0.41637419  0.98393996  1
  P  P260  1  0.69715533  0.74945141  0.23480455  1
  P  P261  1  0.69825521  0.74931999  0.48533856  1
  P  P262  1  0.69490746  0.75007129  0.73671261  1
  P  P263  1  0.69529114  0.75116964  0.98566708  1
  P  P264  1  0.30296788  0.24960983  0.01351377  1
  P  P265  1  0.30212566  0.24929080  0.26554231  1
  P  P266  1  0.30371482  0.24991338  0.51429517  1
  P  P267  1  0.30252655  0.24962046  0.76557320  1
  P  P268  1  0.30378908  0.58276961  0.01355122  1
  P  P269  1  0.30318584  0.58377854  0.26527068  1
  P  P270  1  0.30456300  0.58404610  0.51395165  1
  P  P271  1  0.30280994  0.58396818  0.76562043  1
  P  P272  1  0.30412179  0.91769681  0.01577458  1
  P  P273  1  0.30517994  0.91676677  0.26305729  1
  P  P274  1  0.30144777  0.91617338  0.51490875  1
  P  P275  1  0.30212277  0.91642258  0.76509418  1
  P  P276  1  0.80447946  0.24978698  0.01537960  1
  P  P277  1  0.80609629  0.24976536  0.26386783  1
  P  P278  1  0.80645682  0.25002540  0.51432505  1
  P  P279  1  0.80358621  0.24962756  0.76430545  1
  P  P280  1  0.80483109  0.58407637  0.01324246  1
  P  P281  1  0.80231435  0.58368797  0.26458309  1
  P  P282  1  0.80310063  0.58369896  0.51564845  1
  P  P283  1  0.80399324  0.58278538  0.76521687  1
  P  P284  1  0.80233946  0.91573426  0.01522147  1
  P  P285  1  0.80548757  0.91672828  0.26413987  1
  P  P286  1  0.80544817  0.91643344  0.51376408  1
  P  P287  1  0.80180119  0.91786777  0.76535494  1
  O  O288  1  0.05857326  0.24974772  0.18735442  1
  O  O289  1  0.05519077  0.24983027  0.43652851  1
  O  O290  1  0.05830267  0.25001386  0.68799224  1
  O  O291  1  0.05923092  0.24967126  0.93733693  1
  O  O292  1  0.06007526  0.58381676  0.18741324  1
  O  O293  1  0.05598053  0.58373391  0.43594686  1
  O  O294  1  0.05805581  0.58388553  0.68751688  1
  O  O295  1  0.05863088  0.58369502  0.93709221  1
  O  O296  1  0.05517533  0.91621879  0.18684239  1
  O  O297  1  0.05772189  0.91615270  0.43774178  1
  O  O298  1  0.06032728  0.91598331  0.68721057  1
  O  O299  1  0.05669400  0.91666910  0.93605744  1
  O  O300  1  0.55688063  0.24916830  0.18692572  1
  O  O301  1  0.55661924  0.24997668  0.43655679  1
  O  O302  1  0.56002815  0.24956541  0.68736140  1
  O  O303  1  0.55646984  0.24962255  0.93609121  1
  O  O304  1  0.55951885  0.58367475  0.18836233  1
  O  O305  1  0.55974287  0.58339618  0.43776305  1
  O  O306  1  0.56054407  0.58315381  0.68696397  1
  O  O307  1  0.55640489  0.58347949  0.93608044  1
  O  O308  1  0.55622873  0.91691156  0.18647627  1
  O  O309  1  0.55699773  0.91681065  0.43676632  1
  O  O310  1  0.55890846  0.91743097  0.68732579  1
  O  O311  1  0.55894041  0.91691134  0.93731372  1
  O  O312  1  0.44104931  0.08359040  0.06222628  1
  O  O313  1  0.44101261  0.08368107  0.31230374  1
  O  O314  1  0.44226143  0.08285288  0.56432480  1
  O  O315  1  0.43955616  0.08349218  0.81232359  1
  O  O316  1  0.44344357  0.41692344  0.06330497  1
  O  O317  1  0.44403136  0.41686688  0.31329616  1
  O  O318  1  0.44331155  0.41686419  0.56379575  1
  O  O319  1  0.44450830  0.41674406  0.81300211  1
  O  O320  1  0.44460184  0.74996008  0.06361969  1
  O  O321  1  0.44088578  0.74971532  0.31297021  1
  O  O322  1  0.44015836  0.75060525  0.56294745  1
  O  O323  1  0.44163784  0.74975494  0.81164232  1
  O  O324  1  0.94377414  0.08312953  0.06332042  1
  O  O325  1  0.94165219  0.08302832  0.31272213  1
  O  O326  1  0.94116104  0.08317665  0.56331680  1
  O  O327  1  0.94172368  0.08302815  0.81190461  1
  O  O328  1  0.94382461  0.41699363  0.06335066  1
  O  O329  1  0.94079483  0.41759267  0.31255072  1
  O  O330  1  0.94016675  0.41728146  0.56316490  1
  O  O331  1  0.94186375  0.41672276  0.81196113  1
  O  O332  1  0.94030130  0.75019827  0.06260366  1
  O  O333  1  0.94024592  0.74926131  0.31267230  1
  O  O334  1  0.94106350  0.74947823  0.56261707  1
  O  O335  1  0.94292048  0.74991646  0.81391184  1
  O  O336  1  0.19308896  0.08307708  0.06174529  1
  O  O337  1  0.19061645  0.08334608  0.31306761  1
  O  O338  1  0.19244428  0.08364067  0.56097089  1
  O  O339  1  0.19226020  0.08361979  0.81316130  1
  O  O340  1  0.19288961  0.41637979  0.06114626  1
  O  O341  1  0.19356657  0.41642420  0.31220531  1
  O  O342  1  0.19228438  0.41672958  0.56192671  1
  O  O343  1  0.19128611  0.41727957  0.81302688  1
  O  O344  1  0.19350449  0.75018712  0.06214141  1
  O  O345  1  0.19409015  0.75014899  0.31161707  1
  O  O346  1  0.19385266  0.74987322  0.56127802  1
  O  O347  1  0.19389489  0.74918806  0.81214254  1
  O  O348  1  0.69082999  0.08320723  0.06310643  1
  O  O349  1  0.69420117  0.08366117  0.31129036  1
  O  O350  1  0.69457100  0.08359263  0.56127249  1
  O  O351  1  0.69396034  0.08378747  0.81179367  1
  O  O352  1  0.69350320  0.41640803  0.06077845  1
  O  O353  1  0.69520540  0.41638327  0.31194380  1
  O  O354  1  0.69542053  0.41643206  0.56202005  1
  O  O355  1  0.69147815  0.41622893  0.81339067  1
  O  O356  1  0.69105343  0.75057528  0.06242589  1
  O  O357  1  0.69358729  0.75022673  0.31148335  1
  O  O358  1  0.69441200  0.75033101  0.56207471  1
  O  O359  1  0.69120371  0.74957251  0.81350723  1
  O  O360  1  0.30559357  0.24959642  0.18875188  1
  O  O361  1  0.30817687  0.25026014  0.43755091  1
  O  O362  1  0.30604722  0.25043587  0.68882471  1
  O  O363  1  0.30812661  0.25079545  0.93690415  1
  O  O364  1  0.30649230  0.58303617  0.18849480  1
  O  O365  1  0.30875429  0.58282693  0.43722087  1
  O  O366  1  0.30663949  0.58296585  0.68888903  1
  O  O367  1  0.30938274  0.58285211  0.93695810  1
  O  O368  1  0.30962903  0.91673918  0.18639176  1
  O  O369  1  0.30526384  0.91694858  0.43816116  1
  O  O370  1  0.30522283  0.91658310  0.68841565  1
  O  O371  1  0.30672766  0.91648807  0.93892556  1
  O  O372  1  0.80935226  0.24955844  0.18705440  1
  O  O373  1  0.81007611  0.24970917  0.43746530  1
  O  O374  1  0.80783586  0.24988718  0.68755656  1
  O  O375  1  0.80765271  0.24965387  0.93856533  1
  O  O376  1  0.80560223  0.58362890  0.18753069  1
  O  O377  1  0.80605033  0.58364171  0.43958016  1
  O  O378  1  0.80820237  0.58348560  0.68840717  1
  O  O379  1  0.80902223  0.58313674  0.93648959  1
  O  O380  1  0.80826002  0.91701972  0.18725526  1
  O  O381  1  0.80901071  0.91676559  0.43695987  1
  O  O382  1  0.80602699  0.91702390  0.68865560  1
  O  O383  1  0.80600933  0.91659133  0.93853489  1
  O  O384  1  0.23250860  0.24965562  0.03703922  1
  O  O385  1  0.23203768  0.24997980  0.29016114  1
  O  O386  1  0.23363469  0.24945293  0.53836998  1
  O  O387  1  0.23236912  0.24987936  0.78984139  1
  O  O388  1  0.23324299  0.58278817  0.03656769  1
  O  O389  1  0.23308602  0.58360200  0.29001595  1
  O  O390  1  0.23455687  0.58395378  0.53837529  1
  O  O391  1  0.23261847  0.58371680  0.78982053  1
  O  O392  1  0.23454405  0.91699466  0.04135708  1
  O  O393  1  0.23505326  0.91659944  0.28718111  1
  O  O394  1  0.23154390  0.91650467  0.53971285  1
  O  O395  1  0.23215879  0.91653832  0.79019542  1
  O  O396  1  0.73473117  0.24998480  0.04024175  1
  O  O397  1  0.73629756  0.25014556  0.28907827  1
  O  O398  1  0.73645281  0.25042212  0.53880873  1
  O  O399  1  0.73339165  0.24962522  0.78859709  1
  O  O400  1  0.73481962  0.58373438  0.03729398  1
  O  O401  1  0.73242257  0.58374007  0.28964373  1
  O  O402  1  0.73311801  0.58340380  0.54132595  1
  O  O403  1  0.73357277  0.58330730  0.78884332  1
  O  O404  1  0.73230069  0.91633421  0.03984678  1
  O  O405  1  0.73563402  0.91663390  0.28914491  1
  O  O406  1  0.73565964  0.91651900  0.53873669  1
  O  O407  1  0.73173599  0.91715583  0.78965844  1
  O  O408  1  0.26645533  0.08408275  0.21295512  1
  O  O409  1  0.26459708  0.08279837  0.45887422  1
  O  O410  1  0.26641071  0.08334787  0.71194641  1
  O  O411  1  0.26675851  0.08329187  0.96056218  1
  O  O412  1  0.26593312  0.41628968  0.20951331  1
  O  O413  1  0.26559481  0.41697810  0.46036722  1
  O  O414  1  0.26488985  0.41699788  0.71151739  1
  O  O415  1  0.26498170  0.41661298  0.95887680  1
  O  O416  1  0.26828878  0.74924683  0.21048173  1
  O  O417  1  0.26750009  0.75045081  0.45986704  1
  O  O418  1  0.26752132  0.74965787  0.71065265  1
  O  O419  1  0.26660278  0.75011630  0.96050540  1
  O  O420  1  0.76806982  0.08303885  0.21048071  1
  O  O421  1  0.76934168  0.08349938  0.46079735  1
  O  O422  1  0.76783218  0.08363466  0.71026963  1
  O  O423  1  0.76508704  0.08269036  0.96210555  1
  O  O424  1  0.76870843  0.41703937  0.21028940  1
  O  O425  1  0.76913447  0.41743574  0.46088541  1
  O  O426  1  0.76693363  0.41653829  0.71320820  1
  O  O427  1  0.76609134  0.41629774  0.95897965  1
  O  O428  1  0.76725164  0.75003033  0.21028619  1
  O  O429  1  0.76823030  0.74947467  0.46075834  1
  O  O430  1  0.76491748  0.75027100  0.71229263  1
  O  O431  1  0.76561651  0.75049799  0.96171343  1
  O  O432  1  0.01534425  0.08262523  0.16610840  1
  O  O433  1  0.01594522  0.08358092  0.41389469  1
  O  O434  1  0.01485961  0.08332536  0.66415602  1
  O  O435  1  0.01755747  0.08362376  0.91193926  1
  O  O436  1  0.01582248  0.41613766  0.16561036  1
  O  O437  1  0.01436834  0.41655936  0.41412922  1
  O  O438  1  0.01365588  0.41699558  0.66437840  1
  O  O439  1  0.01750199  0.41675637  0.91219166  1
  O  O440  1  0.01422078  0.75044234  0.16391307  1
  O  O441  1  0.01451906  0.74987450  0.41369996  1
  O  O442  1  0.01519190  0.74947341  0.66364210  1
  O  O443  1  0.01542821  0.74996971  0.91592314  1
  O  O444  1  0.51609349  0.08262091  0.16278987  1
  O  O445  1  0.51522944  0.08386230  0.41365938  1
  O  O446  1  0.51549456  0.08349887  0.66587345  1
  O  O447  1  0.51425481  0.08376774  0.91259521  1
  O  O448  1  0.51661550  0.41665691  0.16511723  1
  O  O449  1  0.51649460  0.41655590  0.41586119  1
  O  O450  1  0.51703413  0.41657150  0.66476157  1
  O  O451  1  0.51815089  0.41682465  0.91466165  1
  O  O452  1  0.51798978  0.75059052  0.16527490  1
  O  O453  1  0.51475498  0.74980984  0.41418456  1
  O  O454  1  0.51484884  0.75001372  0.66317710  1
  O  O455  1  0.51727181  0.74919981  0.91185842  1
  O  O456  1  0.48349045  0.24935719  0.08523923  1
  O  O457  1  0.48207672  0.25001529  0.33541650  1
  O  O458  1  0.48486646  0.24971915  0.58725712  1
  O  O459  1  0.48244279  0.25032605  0.83513089  1
  O  O460  1  0.48537062  0.58412848  0.08708574  1
  O  O461  1  0.48408197  0.58332227  0.33769348  1
  O  O462  1  0.48565441  0.58336779  0.58691128  1
  O  O463  1  0.48326663  0.58316139  0.83420151  1
  O  O464  1  0.48308430  0.91665671  0.08441727  1
  O  O465  1  0.48343671  0.91670460  0.33553368  1
  O  O466  1  0.48411195  0.91692920  0.58669078  1
  O  O467  1  0.48499534  0.91658832  0.83642678  1
  O  O468  1  0.98364468  0.24977851  0.08678865  1
  O  O469  1  0.98188554  0.24916084  0.33526562  1
  O  O470  1  0.98207492  0.25030036  0.58840980  1
  O  O471  1  0.98578685  0.25002661  0.83599466  1
  O  O472  1  0.98519507  0.58306115  0.08717290  1
  O  O473  1  0.98338228  0.58351560  0.33414021  1
  O  O474  1  0.98197995  0.58276558  0.58769447  1
  O  O475  1  0.98356213  0.58359401  0.83670545  1
  O  O476  1  0.98083464  0.91733550  0.08570462  1
  O  O477  1  0.98258055  0.91678848  0.33756628  1
  O  O478  1  0.98515918  0.91678990  0.58726288  1
  O  O479  1  0.98431436  0.91622025  0.83383013  1
  O  O480  1  0.08762470  0.31447331  0.07727897  1
  O  O481  1  0.08585499  0.31391561  0.32666314  1
  O  O482  1  0.08545880  0.31526373  0.57765539  1
  O  O483  1  0.08945651  0.31507430  0.82761640  1
  O  O484  1  0.08855815  0.64878497  0.07716221  1
  O  O485  1  0.08732315  0.64855110  0.32647664  1
  O  O486  1  0.08541477  0.64824346  0.57695244  1
  O  O487  1  0.08752927  0.64795132  0.82676140  1
  O  O488  1  0.08512190  0.98153759  0.07762557  1
  O  O489  1  0.08592537  0.98252765  0.32792024  1
  O  O490  1  0.08897098  0.98130178  0.57732852  1
  O  O491  1  0.08793579  0.98241842  0.82699250  1
  O  O492  1  0.58761846  0.31365129  0.07772649  1
  O  O493  1  0.58605565  0.31511557  0.32712802  1
  O  O494  1  0.58847788  0.31473794  0.57733102  1
  O  O495  1  0.58662537  0.31574576  0.82695315  1
  O  O496  1  0.58864355  0.64984369  0.07882275  1
  O  O497  1  0.58790782  0.64824219  0.32754451  1
  O  O498  1  0.58923114  0.64841296  0.57684417  1
  O  O499  1  0.58751487  0.64801623  0.82657707  1
  O  O500  1  0.58709717  0.98173141  0.07699901  1
  O  O501  1  0.58713884  0.98188348  0.32723301  1
  O  O502  1  0.58764346  0.98219456  0.57727084  1
  O  O503  1  0.58893730  0.98101521  0.82712363  1
  O  O504  1  0.41254666  0.01696332  0.17177900  1
  O  O505  1  0.41150776  0.01938399  0.42230048  1
  O  O506  1  0.41161567  0.01812817  0.67388863  1
  O  O507  1  0.41028771  0.01961898  0.92262668  1
  O  O508  1  0.41260540  0.35183808  0.17234762  1
  O  O509  1  0.41258728  0.35138070  0.42203805  1
  O  O510  1  0.41309906  0.35170516  0.67320360  1
  O  O511  1  0.41409340  0.35183133  0.92234065  1
  O  O512  1  0.41369825  0.68617467  0.17344034  1
  O  O513  1  0.41150407  0.68341375  0.42234198  1
  O  O514  1  0.41105380  0.68529220  0.67291236  1
  O  O515  1  0.41397212  0.68346116  0.92156233  1
  O  O516  1  0.91089132  0.01846977  0.17232570  1
  O  O517  1  0.91244651  0.01806397  0.42286162  1
  O  O518  1  0.91082432  0.01918025  0.67343915  1
  O  O519  1  0.91401882  0.01816706  0.92207059  1
  O  O520  1  0.91205743  0.35066343  0.17191784  1
  O  O521  1  0.91095003  0.35075018  0.42160347  1
  O  O522  1  0.91007132  0.35173017  0.67298708  1
  O  O523  1  0.91377869  0.35248144  0.92214929  1
  O  O524  1  0.91037848  0.68597565  0.17271604  1
  O  O525  1  0.91046664  0.68567260  0.42285894  1
  O  O526  1  0.91166293  0.68395248  0.67231420  1
  O  O527  1  0.91188148  0.68380060  0.92284419  1
  O  O528  1  0.16296110  0.01919652  0.20253345  1
  O  O529  1  0.16095653  0.01684017  0.45227283  1
  O  O530  1  0.16252489  0.01857559  0.70361370  1
  O  O531  1  0.16265881  0.01849608  0.95218334  1
  O  O532  1  0.16207653  0.35127483  0.20332877  1
  O  O533  1  0.16194916  0.35159709  0.45260218  1
  O  O534  1  0.16121553  0.35186569  0.70362324  1
  O  O535  1  0.16091343  0.35151089  0.95217543  1
  O  O536  1  0.16426172  0.68402304  0.20271075  1
  O  O537  1  0.16345317  0.68594066  0.45169548  1
  O  O538  1  0.16382472  0.68417854  0.70245134  1
  O  O539  1  0.16295891  0.68456669  0.95280156  1
  O  O540  1  0.66360223  0.01861130  0.20192109  1
  O  O541  1  0.66549708  0.01850293  0.45162589  1
  O  O542  1  0.66404546  0.01845216  0.70241423  1
  O  O543  1  0.66143799  0.01735872  0.95369300  1
  O  O544  1  0.66491731  0.35209081  0.20238832  1
  O  O545  1  0.66551186  0.35244557  0.45192534  1
  O  O546  1  0.66367799  0.35110675  0.70309475  1
  O  O547  1  0.66193997  0.35144770  0.95162054  1
  O  O548  1  0.66341144  0.68436631  0.20222037  1
  O  O549  1  0.66450429  0.68398162  0.45314900  1
  O  O550  1  0.66164591  0.68481238  0.70373001  1
  O  O551  1  0.66158512  0.68630126  0.95208098  1
  O  O552  1  0.33608551  0.31448793  0.04742061  1
  O  O553  1  0.33651215  0.31417948  0.29821731  1
  O  O554  1  0.33704529  0.31497862  0.54767077  1
  O  O555  1  0.33641665  0.31457031  0.79883869  1
  O  O556  1  0.33689466  0.64787581  0.04719225  1
  O  O557  1  0.33741929  0.64882059  0.29744829  1
  O  O558  1  0.33809799  0.64948334  0.54629183  1
  O  O559  1  0.33677357  0.64908582  0.79805692  1
  O  O560  1  0.33808219  0.98319443  0.04739683  1
  O  O561  1  0.33833026  0.98202611  0.29638017  1
  O  O562  1  0.33532620  0.98116849  0.54785946  1
  O  O563  1  0.33614726  0.98139865  0.79767879  1
  O  O564  1  0.83893561  0.31471780  0.04762401  1
  O  O565  1  0.84036675  0.31465135  0.29646788  1
  O  O566  1  0.84025614  0.31516498  0.54710747  1
  O  O567  1  0.83718008  0.31468570  0.79749893  1
  O  O568  1  0.83802614  0.64940563  0.04607190  1
  O  O569  1  0.83614876  0.64876914  0.29697652  1
  O  O570  1  0.83709742  0.64887350  0.54869774  1
  O  O571  1  0.83770264  0.64759488  0.79856650  1
  O  O572  1  0.83671690  0.98048429  0.04819368  1
  O  O573  1  0.83953378  0.98180405  0.29685305  1
  O  O574  1  0.83929449  0.98150241  0.54661085  1
  O  O575  1  0.83530307  0.98307447  0.79805306  1
  O  O576  1  0.41186232  0.14696678  0.17281215  1
  O  O577  1  0.41181441  0.14974042  0.42170508  1
  O  O578  1  0.41115217  0.14801875  0.67352238  1
  O  O579  1  0.41091079  0.14987480  0.92200343  1
  O  O580  1  0.41302760  0.48202162  0.17263595  1
  O  O581  1  0.41285144  0.48192527  0.42234362  1
  O  O582  1  0.41334739  0.48173733  0.67336411  1
  O  O583  1  0.41441866  0.48219105  0.92219783  1
  O  O584  1  0.41399072  0.81618091  0.17249296  1
  O  O585  1  0.41043298  0.81359586  0.42309351  1
  O  O586  1  0.41120579  0.81524411  0.67328362  1
  O  O587  1  0.41362677  0.81373324  0.92208774  1
  O  O588  1  0.91191511  0.14854301  0.17230517  1
  O  O589  1  0.91201360  0.14821149  0.42240104  1
  O  O590  1  0.91142329  0.14923572  0.67303945  1
  O  O591  1  0.91373438  0.14817737  0.92196573  1
  O  O592  1  0.91177449  0.48076223  0.17299927  1
  O  O593  1  0.91046294  0.48095220  0.42280894  1
  O  O594  1  0.90986206  0.48194285  0.67308805  1
  O  O595  1  0.91421882  0.48265736  0.92190489  1
  O  O596  1  0.91064175  0.81612641  0.17201358  1
  O  O597  1  0.91105656  0.81574661  0.42220348  1
  O  O598  1  0.91159562  0.81413935  0.67259710  1
  O  O599  1  0.91083882  0.81387667  0.92307935  1
  O  O600  1  0.08734765  0.18450759  0.07739079  1
  O  O601  1  0.08587349  0.18393502  0.32720677  1
  O  O602  1  0.08552412  0.18516653  0.57770736  1
  O  O603  1  0.08948387  0.18486371  0.82744414  1
  O  O604  1  0.08916317  0.51875172  0.07741874  1
  O  O605  1  0.08742209  0.51856264  0.32677819  1
  O  O606  1  0.08572612  0.51822276  0.57757455  1
  O  O607  1  0.08714601  0.51791811  0.82701614  1
  O  O608  1  0.08444585  0.85163232  0.07707706  1
  O  O609  1  0.08630554  0.85237098  0.32710573  1
  O  O610  1  0.08851079  0.85122247  0.57675149  1
  O  O611  1  0.08872930  0.85229244  0.82684162  1
  O  O612  1  0.58677861  0.18331391  0.07764654  1
  O  O613  1  0.58604956  0.18505978  0.32697167  1
  O  O614  1  0.58829482  0.18456736  0.57718126  1
  O  O615  1  0.58666039  0.18576056  0.82610273  1
  O  O616  1  0.58916127  0.51958004  0.07828584  1
  O  O617  1  0.58793143  0.51825683  0.32755820  1
  O  O618  1  0.58955321  0.51843818  0.57684382  1
  O  O619  1  0.58744481  0.51801246  0.82700203  1
  O  O620  1  0.58715665  0.85160669  0.07735948  1
  O  O621  1  0.58721678  0.85173940  0.32745550  1
  O  O622  1  0.58776550  0.85203879  0.57749647  1
  O  O623  1  0.58853504  0.85086584  0.82774686  1
  O  O624  1  0.33601593  0.18427179  0.04663393  1
  O  O625  1  0.33602030  0.18424520  0.29817775  1
  O  O626  1  0.33735478  0.18478026  0.54713283  1
  O  O627  1  0.33641095  0.18455902  0.79799028  1
  O  O628  1  0.33677422  0.51774938  0.04719784  1
  O  O629  1  0.33722003  0.51886058  0.29831313  1
  O  O630  1  0.33815515  0.51924992  0.54766003  1
  O  O631  1  0.33675541  0.51909065  0.79893632  1
  O  O632  1  0.33928016  0.85308990  0.04814626  1
  O  O633  1  0.33863680  0.85156711  0.29610215  1
  O  O634  1  0.33540545  0.85105117  0.54725355  1
  O  O635  1  0.33603510  0.85123925  0.79769344  1
  O  O636  1  0.83868053  0.18475069  0.04779255  1
  O  O637  1  0.83972108  0.18440779  0.29669096  1
  O  O638  1  0.83999375  0.18486714  0.54738296  1
  O  O639  1  0.83710117  0.18449381  0.79726788  1
  O  O640  1  0.83852312  0.51921968  0.04664372  1
  O  O641  1  0.83634977  0.51876858  0.29698632  1
  O  O642  1  0.83741484  0.51870422  0.54866515  1
  O  O643  1  0.83737654  0.51760357  0.79819482  1
  O  O644  1  0.83610446  0.85052959  0.04766402  1
  O  O645  1  0.83949785  0.85156825  0.29652289  1
  O  O646  1  0.83903065  0.85116431  0.54652642  1
  O  O647  1  0.83574123  0.85292575  0.79835641  1
  O  O648  1  0.16284139  0.14945533  0.20341328  1
  O  O649  1  0.16012689  0.14693595  0.45146666  1
  O  O650  1  0.16292693  0.14882120  0.70314085  1
  O  O651  1  0.16268064  0.14850901  0.95227262  1
  O  O652  1  0.16239402  0.48175242  0.20330134  1
  O  O653  1  0.16167021  0.48175125  0.45265037  1
  O  O654  1  0.16133210  0.48243426  0.70350775  1
  O  O655  1  0.16089364  0.48164218  0.95211603  1
  O  O656  1  0.16430710  0.81420879  0.20181480  1
  O  O657  1  0.16381808  0.81607810  0.45201790  1
  O  O658  1  0.16345979  0.81443386  0.70301330  1
  O  O659  1  0.16262990  0.81474841  0.95299082  1
  O  O660  1  0.66411385  0.14856224  0.20171594  1
  O  O661  1  0.66568188  0.14867047  0.45150426  1
  O  O662  1  0.66415747  0.14879771  0.70229000  1
  O  O663  1  0.66160307  0.14747600  0.95279235  1
  O  O664  1  0.66478058  0.48231154  0.20293690  1
  O  O665  1  0.66513639  0.48260889  0.45312622  1
  O  O666  1  0.66344173  0.48155936  0.70347810  1
  O  O667  1  0.66210440  0.48141748  0.95154026  1
  O  O668  1  0.66308125  0.81440823  0.20175593  1
  O  O669  1  0.66443041  0.81412974  0.45200610  1
  O  O670  1  0.66131884  0.81529211  0.70393649  1
  O  O671  1  0.66188010  0.81633398  0.95289418  1
