# generated using pymatgen
data_Na2MnFe(PO4)2
_symmetry_space_group_name_H-M   'P 1'
_cell_length_a   21.08205633
_cell_length_b   18.93410069
_cell_length_c   20.04103502
_cell_angle_alpha   89.99969359
_cell_angle_beta   90.00042184
_cell_angle_gamma   89.99726875
_symmetry_Int_Tables_number   1
_chemical_formula_structural   Na2MnFe(PO4)2
_chemical_formula_sum   'Na96 Mn48 Fe48 P96 O384'
_cell_volume   7999.77547795
_cell_formula_units_Z   48
loop_
 _symmetry_equiv_pos_site_id
 _symmetry_equiv_pos_as_xyz
  1  'x, y, z'
loop_
 _atom_site_type_symbol
 _atom_site_label
 _atom_site_symmetry_multiplicity
 _atom_site_fract_x
 _atom_site_fract_y
 _atom_site_fract_z
 _atom_site_occupancy
  Na  Na0  1  -0.00288428  -0.00211000  0.00086546  1
  Na  Na1  1  0.00152722  0.00034990  0.24873317  1
  Na  Na2  1  0.00247435  -0.00009100  0.50030998  1
  Na  Na3  1  0.00169257  0.00031378  0.75010562  1
  Na  Na4  1  0.00265546  0.33388904  -0.00022835  1
  Na  Na5  1  0.00060164  0.33299090  0.25092378  1
  Na  Na6  1  0.00103273  0.33304132  0.49962934  1
  Na  Na7  1  0.00166654  0.33307135  0.75074159  1
  Na  Na8  1  -0.00120518  0.66743111  0.00100425  1
  Na  Na9  1  -0.00223856  0.66686629  0.25025145  1
  Na  Na10  1  -0.00090982  0.66680230  0.49878453  1
  Na  Na11  1  -0.00007877  0.66765555  0.74927312  1
  Na  Na12  1  0.49755420  -0.00134767  -0.00011517  1
  Na  Na13  1  0.49983591  0.00027398  0.24886477  1
  Na  Na14  1  0.49922649  -0.00034187  0.49994975  1
  Na  Na15  1  0.49875587  -0.00058215  0.75160429  1
  Na  Na16  1  0.50199191  0.33451307  -0.00112436  1
  Na  Na17  1  0.49741770  0.33277962  0.25034841  1
  Na  Na18  1  0.49673573  0.33248575  0.49990601  1
  Na  Na19  1  0.49963347  0.33353927  0.74993227  1
  Na  Na20  1  0.49944263  0.66673145  -0.00005281  1
  Na  Na21  1  0.49896660  0.66664276  0.25053121  1
  Na  Na22  1  0.50258466  0.66749899  0.49973833  1
  Na  Na23  1  0.50366126  0.66823038  0.74984728  1
  Na  Na24  1  0.25386132  0.00011043  0.12510290  1
  Na  Na25  1  0.25105472  -0.00070296  0.37577400  1
  Na  Na26  1  0.25040928  -0.00056956  0.62420656  1
  Na  Na27  1  0.25270758  -0.00013257  0.87488361  1
  Na  Na28  1  0.25005427  0.33347118  0.12501283  1
  Na  Na29  1  0.25184094  0.33429579  0.37558931  1
  Na  Na30  1  0.24849230  0.33302603  0.62381917  1
  Na  Na31  1  0.24766973  0.33285515  0.87554689  1
  Na  Na32  1  0.25280742  0.66809308  0.12520867  1
  Na  Na33  1  0.25112352  0.66688989  0.37411966  1
  Na  Na34  1  0.24841903  0.66609817  0.62541421  1
  Na  Na35  1  0.25035863  0.66727563  0.87449779  1
  Na  Na36  1  0.75029960  0.00018985  0.12535693  1
  Na  Na37  1  0.74745694  -0.00057117  0.37472792  1
  Na  Na38  1  0.74793874  -0.00072511  0.62414598  1
  Na  Na39  1  0.74991160  -0.00050863  0.87532244  1
  Na  Na40  1  0.74933127  0.33299902  0.12455101  1
  Na  Na41  1  0.75165988  0.33405560  0.37566425  1
  Na  Na42  1  0.75122119  0.33357436  0.62592698  1
  Na  Na43  1  0.74848466  0.33213146  0.87364153  1
  Na  Na44  1  0.74965479  0.66767801  0.12547495  1
  Na  Na45  1  0.74946489  0.66732268  0.37512844  1
  Na  Na46  1  0.74828944  0.66678644  0.62615231  1
  Na  Na47  1  0.74828697  0.66742346  0.87454551  1
  Na  Na48  1  0.00067379  0.16598602  0.00005062  1
  Na  Na49  1  0.00015510  0.16643305  0.24935036  1
  Na  Na50  1  0.00290511  0.16593825  0.50060975  1
  Na  Na51  1  0.00131834  0.16694493  0.75083440  1
  Na  Na52  1  0.00071780  0.49991041  0.00035485  1
  Na  Na53  1  0.00023777  0.50023807  0.25085184  1
  Na  Na54  1  0.00142006  0.49958292  0.49837949  1
  Na  Na55  1  0.00038263  0.50068254  0.75025502  1
  Na  Na56  1  -0.00179630  0.83387841  0.00132212  1
  Na  Na57  1  -0.00097112  0.83340831  0.24947227  1
  Na  Na58  1  -0.00106367  0.83370652  0.50008771  1
  Na  Na59  1  0.00016481  0.83296816  0.74869292  1
  Na  Na60  1  0.49930051  0.16617924  -0.00084196  1
  Na  Na61  1  0.49813645  0.16682224  0.24881231  1
  Na  Na62  1  0.50108309  0.16507111  0.49937551  1
  Na  Na63  1  0.49981172  0.16635262  0.75119798  1
  Na  Na64  1  0.49953610  0.50001804  -0.00063408  1
  Na  Na65  1  0.49680287  0.50118692  0.25160437  1
  Na  Na66  1  0.49903980  0.49983099  0.50061138  1
  Na  Na67  1  0.50020380  0.49960863  0.74893352  1
  Na  Na68  1  0.50134870  0.83307434  0.00048040  1
  Na  Na69  1  0.50041643  0.83333936  0.24902578  1
  Na  Na70  1  0.50003158  0.83382040  0.50010973  1
  Na  Na71  1  0.50108558  0.83390534  0.75081384  1
  Na  Na72  1  0.25090447  0.16574371  0.12627025  1
  Na  Na73  1  0.24958329  0.16605057  0.37534234  1
  Na  Na74  1  0.24751724  0.16732763  0.62401197  1
  Na  Na75  1  0.24966521  0.16604239  0.87456263  1
  Na  Na76  1  0.25234233  0.50015127  0.12507202  1
  Na  Na77  1  0.25252663  0.50000965  0.37498670  1
  Na  Na78  1  0.25027415  0.49973391  0.62438169  1
  Na  Na79  1  0.25071029  0.49965160  0.87609979  1
  Na  Na80  1  0.25281230  0.83307347  0.12419981  1
  Na  Na81  1  0.25188036  0.83356354  0.37516699  1
  Na  Na82  1  0.25018433  0.83375293  0.62511759  1
  Na  Na83  1  0.25053104  0.83386264  0.87417879  1
  Na  Na84  1  0.74911066  0.16651151  0.12616450  1
  Na  Na85  1  0.74880093  0.16676917  0.37557325  1
  Na  Na86  1  0.74991285  0.16622928  0.62491705  1
  Na  Na87  1  0.75042651  0.16608288  0.87354806  1
  Na  Na88  1  0.75071750  0.49921378  0.12423865  1
  Na  Na89  1  0.75028209  0.50024598  0.37513436  1
  Na  Na90  1  0.74888733  0.50052891  0.62552040  1
  Na  Na91  1  0.74769921  0.50084436  0.87413841  1
  Na  Na92  1  0.74946583  0.83324478  0.12477620  1
  Na  Na93  1  0.74908676  0.83285014  0.37492071  1
  Na  Na94  1  0.74930310  0.83286034  0.62555491  1
  Na  Na95  1  0.74849930  0.83398309  0.87589767  1
  Mn  Mn96  1  0.89206554  0.91747780  0.37653220  1
  Mn  Mn97  1  0.14282306  0.91594620  0.49735573  1
  Mn  Mn98  1  0.39152288  0.25004962  0.87723628  1
  Mn  Mn99  1  0.35789119  0.08379466  0.50260363  1
  Mn  Mn100  1  0.85730614  0.08332486  0.25306206  1
  Mn  Mn101  1  0.64201296  0.25100285  0.49788949  1
  Mn  Mn102  1  0.89169741  0.58296851  0.12728346  1
  Mn  Mn103  1  0.39185504  0.25035776  0.12683926  1
  Mn  Mn104  1  0.14168015  0.58320464  0.74737716  1
  Mn  Mn105  1  0.10774738  0.75094499  0.37232183  1
  Mn  Mn106  1  0.60702308  0.08331010  0.12206994  1
  Mn  Mn107  1  0.85798946  0.08291033  0.50226509  1
  Mn  Mn108  1  0.64157085  0.58288436  0.24784082  1
  Mn  Mn109  1  0.64119280  0.91635266  0.49737683  1
  Mn  Mn110  1  0.64203352  0.24929688  0.74685940  1
  Mn  Mn111  1  0.60745763  0.08317972  0.87297989  1
  Mn  Mn112  1  0.85826610  0.08249639  0.75152097  1
  Mn  Mn113  1  0.39258148  0.58435319  0.62742796  1
  Mn  Mn114  1  0.89146181  0.58428265  0.87746258  1
  Mn  Mn115  1  0.10848533  0.41794555  0.87246296  1
  Mn  Mn116  1  0.85805042  0.41693196  0.75197902  1
  Mn  Mn117  1  0.14282811  0.58427543  0.99841301  1
  Mn  Mn118  1  0.89213137  0.25023657  0.12661708  1
  Mn  Mn119  1  0.14340198  0.24965393  0.24754141  1
  Mn  Mn120  1  0.64131825  0.25045910  0.24813904  1
  Mn  Mn121  1  0.89266459  0.24894497  0.37747428  1
  Mn  Mn122  1  0.85836477  0.41732905  0.50348202  1
  Mn  Mn123  1  0.10791596  0.74985202  0.12309574  1
  Mn  Mn124  1  0.10856855  0.41653491  0.37197099  1
  Mn  Mn125  1  0.39110635  0.24883511  0.62783684  1
  Mn  Mn126  1  0.35815984  0.41651680  0.00237009  1
  Mn  Mn127  1  0.10747195  0.74932397  0.62223379  1
  Mn  Mn128  1  0.60664947  0.41616575  0.37277376  1
  Mn  Mn129  1  0.89218228  0.91734507  0.62737235  1
  Mn  Mn130  1  0.60699126  0.41599386  0.62215483  1
  Mn  Mn131  1  0.14291498  0.91653902  0.99789855  1
  Mn  Mn132  1  0.39282339  0.58414615  0.87633533  1
  Mn  Mn133  1  0.85745145  0.41622702  0.00217644  1
  Mn  Mn134  1  0.10832827  0.08143827  0.87328606  1
  Mn  Mn135  1  0.60760924  0.41716242  0.12336604  1
  Mn  Mn136  1  0.35824106  0.74969908  0.75234800  1
  Mn  Mn137  1  0.64143867  0.58303839  0.99777631  1
  Mn  Mn138  1  0.85686300  0.75047999  0.75234440  1
  Mn  Mn139  1  0.35869387  0.74928758  0.50259137  1
  Mn  Mn140  1  0.89288794  0.24952325  0.87776907  1
  Mn  Mn141  1  0.10826753  0.08307439  0.12253589  1
  Mn  Mn142  1  0.14379599  0.58440544  0.24749504  1
  Mn  Mn143  1  0.89172639  0.58345243  0.37751525  1
  Fe  Fe144  1  0.60748658  0.75093813  0.62294573  1
  Fe  Fe145  1  0.35756620  0.08306497  0.25248929  1
  Fe  Fe146  1  0.89170656  0.91663957  0.12751353  1
  Fe  Fe147  1  0.89209692  0.91637682  0.87642864  1
  Fe  Fe148  1  0.14276526  0.25051632  0.49778106  1
  Fe  Fe149  1  0.14297486  0.24941795  0.99914111  1
  Fe  Fe150  1  0.85651617  0.75074886  0.00149544  1
  Fe  Fe151  1  0.35629952  0.41691758  0.50188388  1
  Fe  Fe152  1  0.39297865  0.91589185  0.87660713  1
  Fe  Fe153  1  0.64228718  0.24940322  0.99822777  1
  Fe  Fe154  1  0.60636374  0.08318470  0.37327782  1
  Fe  Fe155  1  0.64277255  0.58285388  0.49848965  1
  Fe  Fe156  1  0.85694446  0.08321956  0.00132728  1
  Fe  Fe157  1  0.64299330  0.91755476  0.99859590  1
  Fe  Fe158  1  0.60662270  0.08313906  0.62371752  1
  Fe  Fe159  1  0.10726996  0.75061402  0.87433330  1
  Fe  Fe160  1  0.64185159  0.91694262  0.74858621  1
  Fe  Fe161  1  0.14319328  0.91703689  0.74892169  1
  Fe  Fe162  1  0.35651285  0.41605449  0.75122938  1
  Fe  Fe163  1  0.39319335  0.91660344  0.62708803  1
  Fe  Fe164  1  0.14263992  0.58344754  0.49810498  1
  Fe  Fe165  1  0.89442696  0.25022063  0.62624976  1
  Fe  Fe166  1  0.39344436  0.91565303  0.12708174  1
  Fe  Fe167  1  0.10823333  0.41701953  0.12431833  1
  Fe  Fe168  1  0.85606963  0.74985221  0.50141135  1
  Fe  Fe169  1  0.89256963  0.58265407  0.62612946  1
  Fe  Fe170  1  0.60699131  0.75038602  0.37293507  1
  Fe  Fe171  1  0.35863930  0.75045981  0.25229216  1
  Fe  Fe172  1  0.85815975  0.41678984  0.25108534  1
  Fe  Fe173  1  0.60740802  0.74980057  0.87401860  1
  Fe  Fe174  1  0.39199824  0.24955893  0.37697386  1
  Fe  Fe175  1  0.60732530  0.41699030  0.87269331  1
  Fe  Fe176  1  0.10768164  0.41713455  0.62331270  1
  Fe  Fe177  1  0.35779280  0.41654380  0.25193913  1
  Fe  Fe178  1  0.35692133  0.08396552  0.75097763  1
  Fe  Fe179  1  0.14436158  0.91614629  0.24824690  1
  Fe  Fe180  1  0.14268825  0.24940921  0.74826831  1
  Fe  Fe181  1  0.35856030  0.75046348  0.00133100  1
  Fe  Fe182  1  0.85581847  0.74992276  0.25170915  1
  Fe  Fe183  1  0.64182878  0.91658036  0.24786729  1
  Fe  Fe184  1  0.60668824  0.74981030  0.12338736  1
  Fe  Fe185  1  0.35740090  0.08331425  0.00163589  1
  Fe  Fe186  1  0.39363288  0.91660336  0.37596478  1
  Fe  Fe187  1  0.64225374  0.58347584  0.74764593  1
  Fe  Fe188  1  0.39272113  0.58397308  0.12677941  1
  Fe  Fe189  1  0.10833017  0.08346213  0.62368572  1
  Fe  Fe190  1  0.10833349  0.08244437  0.37280855  1
  Fe  Fe191  1  0.39297814  0.58390616  0.37795581  1
  P  P192  1  0.05443795  0.25054314  0.10971732  1
  P  P193  1  0.05541177  0.24871810  0.36077865  1
  P  P194  1  0.05535869  0.25037036  0.61100344  1
  P  P195  1  0.05615418  0.24921880  0.86089610  1
  P  P196  1  0.05345869  0.58308111  0.11052725  1
  P  P197  1  0.05477249  0.58401304  0.36036940  1
  P  P198  1  0.05261583  0.58262821  0.60872041  1
  P  P199  1  0.05309475  0.58549931  0.86034116  1
  P  P200  1  0.05352002  0.91625024  0.11121725  1
  P  P201  1  0.05433652  0.91712082  0.35858923  1
  P  P202  1  0.05508152  0.91714254  0.61121795  1
  P  P203  1  0.05263981  0.91518917  0.85984419  1
  P  P204  1  0.55319126  0.25016443  0.10891539  1
  P  P205  1  0.55114263  0.24940571  0.36008232  1
  P  P206  1  0.55227285  0.24878921  0.60973490  1
  P  P207  1  0.55443548  0.25037469  0.86085930  1
  P  P208  1  0.55164614  0.58407740  0.11043456  1
  P  P209  1  0.55317466  0.58366297  0.36165586  1
  P  P210  1  0.55512655  0.58410943  0.61023945  1
  P  P211  1  0.55427137  0.58335223  0.85927618  1
  P  P212  1  0.55408413  0.91599804  0.11046281  1
  P  P213  1  0.55281192  0.91672922  0.35911362  1
  P  P214  1  0.55326652  0.91728729  0.61157147  1
  P  P215  1  0.55423342  0.91622897  0.86143816  1
  P  P216  1  0.44423137  0.08236438  0.13896894  1
  P  P217  1  0.44605895  0.08282873  0.38852384  1
  P  P218  1  0.44711061  0.08244800  0.64098195  1
  P  P219  1  0.44421885  0.08257743  0.88922669  1
  P  P220  1  0.44617821  0.41757947  0.14063502  1
  P  P221  1  0.44385554  0.41666518  0.38994455  1
  P  P222  1  0.44405262  0.41647209  0.63951289  1
  P  P223  1  0.44642401  0.41682232  0.88828599  1
  P  P224  1  0.44616115  0.75025444  0.13914359  1
  P  P225  1  0.44704385  0.75059670  0.38890743  1
  P  P226  1  0.44851253  0.75078153  0.64021114  1
  P  P227  1  0.44780301  0.75079815  0.89026623  1
  P  P228  1  0.94493723  0.08276811  0.13884505  1
  P  P229  1  0.94870504  0.08277383  0.39031886  1
  P  P230  1  0.94884385  0.08425269  0.63994457  1
  P  P231  1  0.94634711  0.08183908  0.89062383  1
  P  P232  1  0.94796480  0.41631785  0.14070273  1
  P  P233  1  0.94572722  0.41636155  0.38913672  1
  P  P234  1  0.94857334  0.41687150  0.63985107  1
  P  P235  1  0.94706516  0.41686429  0.89020210  1
  P  P236  1  0.94391201  0.75089090  0.13969802  1
  P  P237  1  0.94427497  0.75074756  0.38942252  1
  P  P238  1  0.94458772  0.74890086  0.63821719  1
  P  P239  1  0.94668625  0.75142799  0.89052728  1
  P  P240  1  0.19750941  0.08150882  0.23632708  1
  P  P241  1  0.19499647  0.08359556  0.48547373  1
  P  P242  1  0.19741428  0.08254316  0.73469837  1
  P  P243  1  0.19839149  0.08300461  0.98534593  1
  P  P244  1  0.19850725  0.41718485  0.23478010  1
  P  P245  1  0.19595061  0.41729159  0.48595748  1
  P  P246  1  0.19705416  0.41605523  0.73423453  1
  P  P247  1  0.19562434  0.41651062  0.98677553  1
  P  P248  1  0.19900799  0.75138019  0.23500213  1
  P  P249  1  0.19718561  0.74916124  0.48458714  1
  P  P250  1  0.19549043  0.75127206  0.73619407  1
  P  P251  1  0.19827449  0.75047884  0.98450327  1
  P  P252  1  0.69433971  0.08271296  0.23626345  1
  P  P253  1  0.69438210  0.08348470  0.48530519  1
  P  P254  1  0.69590030  0.08193183  0.73418898  1
  P  P255  1  0.69743815  0.08308300  0.98516471  1
  P  P256  1  0.69802374  0.41677797  0.23509834  1
  P  P257  1  0.69673830  0.41749295  0.48501895  1
  P  P258  1  0.69510760  0.41716003  0.73560747  1
  P  P259  1  0.69567247  0.41569611  0.98396010  1
  P  P260  1  0.69463095  0.75063640  0.23561465  1
  P  P261  1  0.69505431  0.74920426  0.48559397  1
  P  P262  1  0.69372070  0.75075842  0.73622891  1
  P  P263  1  0.69533006  0.75104516  0.98621506  1
  P  P264  1  0.30205717  0.24914368  0.01497212  1
  P  P265  1  0.30439688  0.24978628  0.26574276  1
  P  P266  1  0.30310637  0.25041977  0.51373769  1
  P  P267  1  0.30161263  0.25004750  0.76454880  1
  P  P268  1  0.30487985  0.58471509  0.01531870  1
  P  P269  1  0.30649980  0.58397490  0.26442101  1
  P  P270  1  0.30345312  0.58315145  0.51419190  1
  P  P271  1  0.30299777  0.58234506  0.76489234  1
  P  P272  1  0.30615114  0.91617411  0.01401770  1
  P  P273  1  0.30531702  0.91635512  0.26442144  1
  P  P274  1  0.30612516  0.91641305  0.51459458  1
  P  P275  1  0.30474311  0.91742358  0.76399118  1
  P  P276  1  0.80172991  0.24886786  0.01460546  1
  P  P277  1  0.80320639  0.25067558  0.26533403  1
  P  P278  1  0.80423974  0.24968333  0.51626591  1
  P  P279  1  0.80540132  0.24959828  0.76348561  1
  P  P280  1  0.80246816  0.58445847  0.01475025  1
  P  P281  1  0.80306271  0.58358719  0.26485056  1
  P  P282  1  0.80236986  0.58459486  0.51589526  1
  P  P283  1  0.80280841  0.58360223  0.76382134  1
  P  P284  1  0.80391590  0.91673458  0.01434390  1
  P  P285  1  0.80228228  0.91587336  0.26401390  1
  P  P286  1  0.80274181  0.91585941  0.51477702  1
  P  P287  1  0.80210861  0.91659396  0.76565771  1
  O  O288  1  0.05754192  0.24945442  0.18656428  1
  O  O289  1  0.05945850  0.24990413  0.43760975  1
  O  O290  1  0.05953287  0.25017905  0.68783459  1
  O  O291  1  0.06047541  0.24893977  0.93766760  1
  O  O292  1  0.05696760  0.58415997  0.18730363  1
  O  O293  1  0.05937979  0.58398981  0.43711714  1
  O  O294  1  0.05621799  0.58366557  0.68551099  1
  O  O295  1  0.05645856  0.58470344  0.93707532  1
  O  O296  1  0.05960463  0.91625130  0.18772234  1
  O  O297  1  0.05742150  0.91582657  0.43541835  1
  O  O298  1  0.05932942  0.91663078  0.68794566  1
  O  O299  1  0.05636703  0.91604707  0.93659541  1
  O  O300  1  0.55596924  0.24990398  0.18575162  1
  O  O301  1  0.55526192  0.25015168  0.43673584  1
  O  O302  1  0.55557759  0.24987046  0.68652159  1
  O  O303  1  0.55874845  0.24943511  0.93761124  1
  O  O304  1  0.55512335  0.58345815  0.18715507  1
  O  O305  1  0.55829200  0.58287727  0.43826194  1
  O  O306  1  0.55889122  0.58312235  0.68704070  1
  O  O307  1  0.55628916  0.58319658  0.93616823  1
  O  O308  1  0.55839748  0.91688706  0.18715684  1
  O  O309  1  0.55579197  0.91658218  0.43598593  1
  O  O310  1  0.55731601  0.91723817  0.68820567  1
  O  O311  1  0.55890799  0.91733288  0.93813101  1
  O  O312  1  0.44039332  0.08341436  0.06214418  1
  O  O313  1  0.44170090  0.08315025  0.31182042  1
  O  O314  1  0.44373285  0.08343027  0.56416051  1
  O  O315  1  0.44005360  0.08383314  0.81249277  1
  O  O316  1  0.44381187  0.41658525  0.06374383  1
  O  O317  1  0.44037761  0.41660646  0.31309469  1
  O  O318  1  0.43943511  0.41642755  0.56272834  1
  O  O319  1  0.44101808  0.41618228  0.81166652  1
  O  O320  1  0.44225900  0.75033738  0.06244060  1
  O  O321  1  0.44279218  0.75037843  0.31220238  1
  O  O322  1  0.44482913  0.74983730  0.56348968  1
  O  O323  1  0.44425337  0.75049423  0.81356895  1
  O  O324  1  0.94032156  0.08314797  0.06212941  1
  O  O325  1  0.94414540  0.08282078  0.31359200  1
  O  O326  1  0.94491006  0.08328265  0.56328920  1
  O  O327  1  0.94376985  0.08288044  0.81382214  1
  O  O328  1  0.94383556  0.41629522  0.06397693  1
  O  O329  1  0.94105861  0.41668329  0.31238962  1
  O  O330  1  0.94524409  0.41682669  0.56307701  1
  O  O331  1  0.94367929  0.41667222  0.81340387  1
  O  O332  1  0.93958288  0.75046117  0.06293411  1
  O  O333  1  0.93964206  0.75050097  0.31265840  1
  O  O334  1  0.94027117  0.74975358  0.56150858  1
  O  O335  1  0.94306810  0.75073672  0.81374866  1
  O  O336  1  0.19486451  0.08207789  0.06207659  1
  O  O337  1  0.19290945  0.08181583  0.31298527  1
  O  O338  1  0.19101640  0.08297786  0.56227998  1
  O  O339  1  0.19432881  0.08197062  0.81143427  1
  O  O340  1  0.19178271  0.41741661  0.06353127  1
  O  O341  1  0.19479021  0.41737194  0.31153248  1
  O  O342  1  0.19139025  0.41729699  0.56263321  1
  O  O343  1  0.19387463  0.41727652  0.81105345  1
  O  O344  1  0.19409783  0.75061455  0.06120822  1
  O  O345  1  0.19459534  0.75088361  0.31161892  1
  O  O346  1  0.19361459  0.74979485  0.56138695  1
  O  O347  1  0.19137551  0.75077920  0.81289015  1
  O  O348  1  0.69377069  0.08306121  0.06186589  1
  O  O349  1  0.68973373  0.08330828  0.31303765  1
  O  O350  1  0.68999097  0.08322687  0.56203362  1
  O  O351  1  0.69290641  0.08276327  0.81098460  1
  O  O352  1  0.69293599  0.41660126  0.06081270  1
  O  O353  1  0.69352774  0.41685697  0.31175782  1
  O  O354  1  0.69314164  0.41641850  0.56176183  1
  O  O355  1  0.69095744  0.41649161  0.81235339  1
  O  O356  1  0.69070146  0.75000045  0.06292357  1
  O  O357  1  0.69002396  0.75017627  0.31240305  1
  O  O358  1  0.69070280  0.75054641  0.56235932  1
  O  O359  1  0.69018671  0.75079743  0.81307365  1
  O  O360  1  0.30679293  0.24983297  0.18891734  1
  O  O361  1  0.30818722  0.24919636  0.43712438  1
  O  O362  1  0.30472949  0.24993012  0.68780861  1
  O  O363  1  0.30531014  0.24987129  0.93823227  1
  O  O364  1  0.31005659  0.58422460  0.18757811  1
  O  O365  1  0.30864954  0.58442203  0.43750867  1
  O  O366  1  0.30620628  0.58357861  0.68811984  1
  O  O367  1  0.30754679  0.58397997  0.93851065  1
  O  O368  1  0.30947369  0.91609992  0.18767559  1
  O  O369  1  0.31069453  0.91638195  0.43784819  1
  O  O370  1  0.30929551  0.91626122  0.68724754  1
  O  O371  1  0.30971505  0.91563015  0.93718003  1
  O  O372  1  0.80628134  0.24982624  0.18854418  1
  O  O373  1  0.80730941  0.24947536  0.43944125  1
  O  O374  1  0.81078216  0.24986308  0.68680655  1
  O  O375  1  0.80572329  0.24932170  0.93788772  1
  O  O376  1  0.80579328  0.58339297  0.18805338  1
  O  O377  1  0.80605165  0.58382651  0.43915614  1
  O  O378  1  0.80815618  0.58314545  0.68721766  1
  O  O379  1  0.80503082  0.58429121  0.93791512  1
  O  O380  1  0.80700783  0.91674382  0.18732560  1
  O  O381  1  0.80577067  0.91692486  0.43804329  1
  O  O382  1  0.80638968  0.91657365  0.68894010  1
  O  O383  1  0.80815736  0.91640723  0.93764166  1
  O  O384  1  0.23231462  0.24937490  0.04039948  1
  O  O385  1  0.23475382  0.24991353  0.29119667  1
  O  O386  1  0.23269320  0.25029290  0.53714410  1
  O  O387  1  0.23170272  0.24957516  0.78964569  1
  O  O388  1  0.23529929  0.58415261  0.04086824  1
  O  O389  1  0.23646569  0.58378976  0.28882931  1
  O  O390  1  0.23314511  0.58300873  0.53787898  1
  O  O391  1  0.23338443  0.58297961  0.79016033  1
  O  O392  1  0.23618598  0.91649199  0.03863610  1
  O  O393  1  0.23514750  0.91629497  0.28878128  1
  O  O394  1  0.23588582  0.91643706  0.53796365  1
  O  O395  1  0.23439876  0.91719754  0.78786039  1
  O  O396  1  0.73171183  0.24939598  0.03930850  1
  O  O397  1  0.73353660  0.25044782  0.29069625  1
  O  O398  1  0.73439005  0.25018003  0.54101611  1
  O  O399  1  0.73503039  0.24913240  0.78647761  1
  O  O400  1  0.73288291  0.58379658  0.04042626  1
  O  O401  1  0.73347099  0.58383013  0.29043402  1
  O  O402  1  0.73228025  0.58378007  0.54027581  1
  O  O403  1  0.73234593  0.58424014  0.78710064  1
  O  O404  1  0.73349873  0.91681201  0.03836718  1
  O  O405  1  0.73199396  0.91596100  0.28791902  1
  O  O406  1  0.73292557  0.91587751  0.53974368  1
  O  O407  1  0.73194176  0.91659259  0.78967590  1
  O  O408  1  0.26789611  0.08252859  0.21270995  1
  O  O409  1  0.26520945  0.08288398  0.46168474  1
  O  O410  1  0.26738869  0.08302914  0.70949695  1
  O  O411  1  0.26832276  0.08273674  0.96044814  1
  O  O412  1  0.26873517  0.41677742  0.21071935  1
  O  O413  1  0.26627824  0.41712157  0.46204352  1
  O  O414  1  0.26696959  0.41628296  0.70925271  1
  O  O415  1  0.26559177  0.41665224  0.96216616  1
  O  O416  1  0.26926928  0.75086461  0.21112836  1
  O  O417  1  0.26700821  0.74986993  0.45992795  1
  O  O418  1  0.26550896  0.75034837  0.71170368  1
  O  O419  1  0.26847735  0.75068920  0.96036941  1
  O  O420  1  0.76443255  0.08315030  0.21239959  1
  O  O421  1  0.76451291  0.08323400  0.46133774  1
  O  O422  1  0.76563911  0.08252816  0.70911642  1
  O  O423  1  0.76736327  0.08271082  0.96017779  1
  O  O424  1  0.76805927  0.41660680  0.21057362  1
  O  O425  1  0.76659274  0.41740474  0.46053597  1
  O  O426  1  0.76513804  0.41682818  0.71138338  1
  O  O427  1  0.76530204  0.41647741  0.95846172  1
  O  O428  1  0.76501288  0.75018732  0.21209296  1
  O  O429  1  0.76531585  0.74991205  0.46169694  1
  O  O430  1  0.76374121  0.75041153  0.71187022  1
  O  O431  1  0.76568010  0.75103128  0.96232166  1
  O  O432  1  0.01516083  0.08320958  0.16256244  1
  O  O433  1  0.01878825  0.08249767  0.41441285  1
  O  O434  1  0.01892358  0.08402543  0.66457219  1
  O  O435  1  0.01603751  0.08159187  0.91598697  1
  O  O436  1  0.01807769  0.41653919  0.16522115  1
  O  O437  1  0.01595012  0.41627583  0.41260946  1
  O  O438  1  0.01850229  0.41699728  0.66497010  1
  O  O439  1  0.01690066  0.41705199  0.91480501  1
  O  O440  1  0.01414075  0.75030006  0.16353385  1
  O  O441  1  0.01451967  0.75072120  0.41297295  1
  O  O442  1  0.01468103  0.74969836  0.66224202  1
  O  O443  1  0.01660553  0.75086192  0.91555758  1
  O  O444  1  0.51431700  0.08317579  0.16292650  1
  O  O445  1  0.51628750  0.08239364  0.41272886  1
  O  O446  1  0.51697628  0.08287096  0.66593778  1
  O  O447  1  0.51434884  0.08261517  0.91330195  1
  O  O448  1  0.51562960  0.41696718  0.16660130  1
  O  O449  1  0.51385027  0.41648643  0.41448778  1
  O  O450  1  0.51429930  0.41646630  0.66284359  1
  O  O451  1  0.51680265  0.41726641  0.91175090  1
  O  O452  1  0.51643113  0.75044021  0.16339878  1
  O  O453  1  0.51730028  0.75064250  0.41311003  1
  O  O454  1  0.51852261  0.75090082  0.66471221  1
  O  O455  1  0.51789191  0.74991292  0.91479792  1
  O  O456  1  0.48347110  0.25027352  0.08377781  1
  O  O457  1  0.48100159  0.24973172  0.33575518  1
  O  O458  1  0.48255642  0.24870154  0.58471359  1
  O  O459  1  0.48434501  0.24991724  0.83672490  1
  O  O460  1  0.48176861  0.58392615  0.08538381  1
  O  O461  1  0.48270104  0.58367330  0.33833934  1
  O  O462  1  0.48507871  0.58373895  0.58597931  1
  O  O463  1  0.48477677  0.58381019  0.83334457  1
  O  O464  1  0.48367256  0.91595447  0.08691733  1
  O  O465  1  0.48284469  0.91683300  0.33422557  1
  O  O466  1  0.48318451  0.91687451  0.58686604  1
  O  O467  1  0.48376862  0.91663570  0.83789380  1
  O  O468  1  0.98474401  0.24988641  0.08453127  1
  O  O469  1  0.98549983  0.24915677  0.33637080  1
  O  O470  1  0.98507835  0.25006992  0.58676449  1
  O  O471  1  0.98599170  0.24955210  0.83716614  1
  O  O472  1  0.98369837  0.58347720  0.08557603  1
  O  O473  1  0.98457760  0.58396054  0.33684927  1
  O  O474  1  0.98262204  0.58301440  0.58397064  1
  O  O475  1  0.98343726  0.58484384  0.83504611  1
  O  O476  1  0.98286472  0.91609593  0.08862903  1
  O  O477  1  0.98455595  0.91693296  0.33368640  1
  O  O478  1  0.98504390  0.91672949  0.58691744  1
  O  O479  1  0.98263788  0.91645882  0.83507045  1
  O  O480  1  0.08845338  0.31593778  0.07803276  1
  O  O481  1  0.08927838  0.31358293  0.32755357  1
  O  O482  1  0.08851422  0.31566293  0.57779542  1
  O  O483  1  0.08998490  0.31411955  0.82774152  1
  O  O484  1  0.08753624  0.64805442  0.07768173  1
  O  O485  1  0.08808377  0.64909631  0.32706135  1
  O  O486  1  0.08698615  0.64738351  0.57570260  1
  O  O487  1  0.08680894  0.65084754  0.82811068  1
  O  O488  1  0.08632494  0.98132691  0.07723423  1
  O  O489  1  0.08859831  0.98236549  0.32665970  1
  O  O490  1  0.08853999  0.98239902  0.57852279  1
  O  O491  1  0.08763424  0.97975900  0.82703613  1
  O  O492  1  0.58765984  0.31515297  0.07693204  1
  O  O493  1  0.58481486  0.31449483  0.32700982  1
  O  O494  1  0.58610319  0.31386223  0.57675762  1
  O  O495  1  0.58777451  0.31552507  0.82792000  1
  O  O496  1  0.58557402  0.64917079  0.07798263  1
  O  O497  1  0.58627452  0.64880919  0.32837982  1
  O  O498  1  0.58865077  0.64950295  0.57787694  1
  O  O499  1  0.58892854  0.64854923  0.82773034  1
  O  O500  1  0.58730218  0.98091843  0.07657843  1
  O  O501  1  0.58688493  0.98169355  0.32661338  1
  O  O502  1  0.58643587  0.98248200  0.57829388  1
  O  O503  1  0.58768364  0.98091511  0.82743964  1
  O  O504  1  0.41122860  0.01680406  0.17167767  1
  O  O505  1  0.41268682  0.01765991  0.42151089  1
  O  O506  1  0.41306697  0.01732660  0.67314371  1
  O  O507  1  0.41074798  0.01727812  0.92175781  1
  O  O508  1  0.41126705  0.35274346  0.17287406  1
  O  O509  1  0.40983603  0.35166126  0.42270087  1
  O  O510  1  0.41059418  0.35147021  0.67291270  1
  O  O511  1  0.41340911  0.35184553  0.92225809  1
  O  O512  1  0.41268946  0.68535648  0.17250380  1
  O  O513  1  0.41370122  0.68560714  0.42247479  1
  O  O514  1  0.41488557  0.68572070  0.67325811  1
  O  O515  1  0.41339700  0.68603769  0.92293435  1
  O  O516  1  0.91165135  0.01754361  0.17205313  1
  O  O517  1  0.91480484  0.01776238  0.42314065  1
  O  O518  1  0.91490206  0.01922293  0.67295028  1
  O  O519  1  0.91179102  0.01666379  0.92230564  1
  O  O520  1  0.91410693  0.35125114  0.17347093  1
  O  O521  1  0.91247928  0.35135054  0.42240762  1
  O  O522  1  0.91481309  0.35171584  0.67242148  1
  O  O523  1  0.91340503  0.35166725  0.92290562  1
  O  O524  1  0.91000857  0.68603955  0.17296148  1
  O  O525  1  0.91061462  0.68583390  0.42283613  1
  O  O526  1  0.91169744  0.68335459  0.67114142  1
  O  O527  1  0.91200494  0.68683490  0.92342514  1
  O  O528  1  0.16477083  0.01633909  0.20266085  1
  O  O529  1  0.16132415  0.01871090  0.45207312  1
  O  O530  1  0.16345586  0.01753265  0.70191987  1
  O  O531  1  0.16465694  0.01796951  0.95225715  1
  O  O532  1  0.16440898  0.35220733  0.20228481  1
  O  O533  1  0.16277007  0.35207555  0.45273325  1
  O  O534  1  0.16310922  0.35077506  0.70223486  1
  O  O535  1  0.16210555  0.35123540  0.95429874  1
  O  O536  1  0.16530083  0.68636930  0.20187382  1
  O  O537  1  0.16347432  0.68398884  0.45218223  1
  O  O538  1  0.16140513  0.68644730  0.70297481  1
  O  O539  1  0.16439982  0.68544654  0.95175334  1
  O  O540  1  0.66119715  0.01740778  0.20315188  1
  O  O541  1  0.66051916  0.01847942  0.45213956  1
  O  O542  1  0.66197268  0.01650818  0.70221950  1
  O  O543  1  0.66336786  0.01792796  0.95269502  1
  O  O544  1  0.66395945  0.35186821  0.20239510  1
  O  O545  1  0.66280729  0.35249939  0.45202246  1
  O  O546  1  0.66143249  0.35223110  0.70226403  1
  O  O547  1  0.66166545  0.35041374  0.95192219  1
  O  O548  1  0.66105444  0.68568493  0.20217822  1
  O  O549  1  0.66191264  0.68382265  0.45281510  1
  O  O550  1  0.65980466  0.68588467  0.70321404  1
  O  O551  1  0.66179576  0.68620262  0.95253081  1
  O  O552  1  0.33626195  0.31413549  0.04751386  1
  O  O553  1  0.33870340  0.31485244  0.29790082  1
  O  O554  1  0.33616231  0.31554545  0.54681532  1
  O  O555  1  0.33527992  0.31525361  0.79726231  1
  O  O556  1  0.33889249  0.65013084  0.04724878  1
  O  O557  1  0.34011678  0.64917761  0.29745592  1
  O  O558  1  0.33663166  0.64808181  0.54813296  1
  O  O559  1  0.33751411  0.64727096  0.79740674  1
  O  O560  1  0.34015444  0.98118565  0.04667886  1
  O  O561  1  0.33884275  0.98145541  0.29758936  1
  O  O562  1  0.33954593  0.98148037  0.54788011  1
  O  O563  1  0.33810729  0.98267365  0.79666897  1
  O  O564  1  0.83573849  0.31395837  0.04735252  1
  O  O565  1  0.83747475  0.31582752  0.29718485  1
  O  O566  1  0.83884940  0.31458737  0.54860775  1
  O  O567  1  0.83825430  0.31469479  0.79725510  1
  O  O568  1  0.83633203  0.64968123  0.04689258  1
  O  O569  1  0.83708142  0.64892277  0.29700817  1
  O  O570  1  0.83579858  0.64991857  0.54838558  1
  O  O571  1  0.83601567  0.64869341  0.79723085  1
  O  O572  1  0.83740742  0.98179389  0.04756038  1
  O  O573  1  0.83564393  0.98082606  0.29771568  1
  O  O574  1  0.83673642  0.98086632  0.54770850  1
  O  O575  1  0.83619078  0.98150222  0.79837566  1
  O  O576  1  0.41008474  0.14694643  0.17237892  1
  O  O577  1  0.41280730  0.14782670  0.42215522  1
  O  O578  1  0.41263211  0.14721042  0.67386992  1
  O  O579  1  0.41050267  0.14743906  0.92277678  1
  O  O580  1  0.41203911  0.48287311  0.17238246  1
  O  O581  1  0.41023264  0.48190974  0.42281490  1
  O  O582  1  0.41067609  0.48151161  0.67274640  1
  O  O583  1  0.41310215  0.48191490  0.92145578  1
  O  O584  1  0.41266805  0.81538237  0.17244435  1
  O  O585  1  0.41381787  0.81585750  0.42175681  1
  O  O586  1  0.41453067  0.81574082  0.67269078  1
  O  O587  1  0.41429556  0.81593734  0.92311706  1
  O  O588  1  0.91153469  0.14781402  0.17219310  1
  O  O589  1  0.91513256  0.14778585  0.42335629  1
  O  O590  1  0.91523867  0.14939216  0.67249595  1
  O  O591  1  0.91211600  0.14677382  0.92347362  1
  O  O592  1  0.91375738  0.48125552  0.17348261  1
  O  O593  1  0.91251768  0.48151785  0.42252088  1
  O  O594  1  0.91437167  0.48210975  0.67206874  1
  O  O595  1  0.91299700  0.48195012  0.92249517  1
  O  O596  1  0.91042368  0.81604363  0.17277781  1
  O  O597  1  0.91077590  0.81577159  0.42257491  1
  O  O598  1  0.91076674  0.81366476  0.67179142  1
  O  O599  1  0.91281507  0.81678380  0.92283894  1
  O  O600  1  0.08909823  0.18573523  0.07700912  1
  O  O601  1  0.08883099  0.18330908  0.32825495  1
  O  O602  1  0.08922724  0.18542368  0.57805333  1
  O  O603  1  0.08947314  0.18403905  0.82764478  1
  O  O604  1  0.08732187  0.51774550  0.07856258  1
  O  O605  1  0.08830642  0.51895026  0.32731404  1
  O  O606  1  0.08668649  0.51735970  0.57662739  1
  O  O607  1  0.08747647  0.52057832  0.82758594  1
  O  O608  1  0.08654019  0.85127501  0.07739352  1
  O  O609  1  0.08869349  0.85235527  0.32554082  1
  O  O610  1  0.08864815  0.85223567  0.57767013  1
  O  O611  1  0.08618941  0.84988613  0.82731807  1
  O  O612  1  0.58733428  0.18511802  0.07629385  1
  O  O613  1  0.58464943  0.18426695  0.32735455  1
  O  O614  1  0.58644818  0.18355956  0.57799301  1
  O  O615  1  0.58800910  0.18526347  0.82770672  1
  O  O616  1  0.58559556  0.51907440  0.07770838  1
  O  O617  1  0.58600006  0.51860919  0.32765871  1
  O  O618  1  0.58893515  0.51931236  0.57675881  1
  O  O619  1  0.58856723  0.51836548  0.82690451  1
  O  O620  1  0.58773569  0.85096957  0.07767708  1
  O  O621  1  0.58682452  0.85164467  0.32662326  1
  O  O622  1  0.58701423  0.85232939  0.57826605  1
  O  O623  1  0.58732758  0.85096941  0.82850172  1
  O  O624  1  0.33607202  0.18404799  0.04718857  1
  O  O625  1  0.33853648  0.18458754  0.29809274  1
  O  O626  1  0.33607186  0.18537889  0.54765872  1
  O  O627  1  0.33586637  0.18502361  0.79683454  1
  O  O628  1  0.33965011  0.51997118  0.04782248  1
  O  O629  1  0.34017543  0.51886924  0.29724122  1
  O  O630  1  0.33689612  0.51800022  0.54692502  1
  O  O631  1  0.33677640  0.51692277  0.79682601  1
  O  O632  1  0.33985928  0.85112281  0.04720611  1
  O  O633  1  0.33915523  0.85144053  0.29766347  1
  O  O634  1  0.33967247  0.85154390  0.54807239  1
  O  O635  1  0.33843929  0.85266401  0.79784217  1
  O  O636  1  0.83536409  0.18375178  0.04731469  1
  O  O637  1  0.83724731  0.18553434  0.29811494  1
  O  O638  1  0.83827064  0.18452142  0.54868241  1
  O  O639  1  0.83865316  0.18449035  0.79681012  1
  O  O640  1  0.83701470  0.51936335  0.04673493  1
  O  O641  1  0.83733508  0.51852333  0.29710329  1
  O  O642  1  0.83687932  0.51989832  0.54896112  1
  O  O643  1  0.83576094  0.51858859  0.79754123  1
  O  O644  1  0.83718660  0.85163221  0.04779283  1
  O  O645  1  0.83561913  0.85068258  0.29685675  1
  O  O646  1  0.83666480  0.85067557  0.54696373  1
  O  O647  1  0.83586107  0.85165566  0.79882175  1
  O  O648  1  0.16378631  0.14643379  0.20309837  1
  O  O649  1  0.16176498  0.14884752  0.45262050  1
  O  O650  1  0.16314100  0.14763999  0.70241300  1
  O  O651  1  0.16441626  0.14803991  0.95315091  1
  O  O652  1  0.16486423  0.48217795  0.20183583  1
  O  O653  1  0.16292140  0.48240690  0.45251827  1
  O  O654  1  0.16275522  0.48085429  0.70123908  1
  O  O655  1  0.16219619  0.48158287  0.95332628  1
  O  O656  1  0.16555621  0.81643143  0.20192170  1
  O  O657  1  0.16311139  0.81419884  0.45188927  1
  O  O658  1  0.16245534  0.81669717  0.70329904  1
  O  O659  1  0.16420576  0.81534709  0.95154050  1
  O  O660  1  0.66065379  0.14762560  0.20299120  1
  O  O661  1  0.66068334  0.14849619  0.45216874  1
  O  O662  1  0.66120399  0.14652983  0.70136001  1
  O  O663  1  0.66352426  0.14801490  0.95232330  1
  O  O664  1  0.66437675  0.48193536  0.20212698  1
  O  O665  1  0.66280301  0.48274461  0.45280259  1
  O  O666  1  0.66167881  0.48244605  0.70295627  1
  O  O667  1  0.66081890  0.48061255  0.95170757  1
  O  O668  1  0.66133303  0.81565948  0.20230873  1
  O  O669  1  0.66111883  0.81388605  0.45185571  1
  O  O670  1  0.66034563  0.81610355  0.70322846  1
  O  O671  1  0.66188327  0.81626492  0.95339597  1
