# generated using pymatgen
data_Na2MnFe(PO4)2
_symmetry_space_group_name_H-M   'P 1'
_cell_length_a   21.07215632
_cell_length_b   18.92225019
_cell_length_c   20.03227997
_cell_angle_alpha   89.99977146
_cell_angle_beta   90.00173401
_cell_angle_gamma   89.99872782
_symmetry_Int_Tables_number   1
_chemical_formula_structural   Na2MnFe(PO4)2
_chemical_formula_sum   'Na96 Mn48 Fe48 P96 O384'
_cell_volume   7987.52334850
_cell_formula_units_Z   48
loop_
 _symmetry_equiv_pos_site_id
 _symmetry_equiv_pos_as_xyz
  1  'x, y, z'
loop_
 _atom_site_type_symbol
 _atom_site_label
 _atom_site_symmetry_multiplicity
 _atom_site_fract_x
 _atom_site_fract_y
 _atom_site_fract_z
 _atom_site_occupancy
  Na  Na0  1  0.00205397  0.00029002  -0.00045708  1
  Na  Na1  1  0.00023519  0.00039290  0.25043956  1
  Na  Na2  1  -0.00158151  -0.00003503  0.49971028  1
  Na  Na3  1  0.00134384  0.00035404  0.74954766  1
  Na  Na4  1  0.00155714  0.33327418  0.00033544  1
  Na  Na5  1  0.00071121  0.33313146  0.24985342  1
  Na  Na6  1  -0.00069829  0.33233753  0.50061868  1
  Na  Na7  1  0.00175420  0.33342123  0.74956174  1
  Na  Na8  1  -0.00252228  0.66609423  0.00031857  1
  Na  Na9  1  -0.00289337  0.66549763  0.24926106  1
  Na  Na10  1  -0.00041284  0.66700952  0.50066630  1
  Na  Na11  1  -0.00211874  0.66610561  0.74944109  1
  Na  Na12  1  0.49975810  0.00062683  0.00004938  1
  Na  Na13  1  0.49894347  -0.00004007  0.25147446  1
  Na  Na14  1  0.49816088  -0.00009179  0.49993078  1
  Na  Na15  1  0.49776335  -0.00043871  0.74907518  1
  Na  Na16  1  0.49783027  0.33218457  0.00028904  1
  Na  Na17  1  0.50239292  0.33388503  0.24994794  1
  Na  Na18  1  0.50228766  0.33392902  0.50018987  1
  Na  Na19  1  0.50031395  0.33382128  0.74922045  1
  Na  Na20  1  0.50122679  0.66727603  0.00111156  1
  Na  Na21  1  0.50100084  0.66620207  0.25068776  1
  Na  Na22  1  0.50217761  0.66709500  0.49888503  1
  Na  Na23  1  0.50106283  0.66667343  0.74990783  1
  Na  Na24  1  0.24931763  -0.00069242  0.12466586  1
  Na  Na25  1  0.25308249  0.00130255  0.37604980  1
  Na  Na26  1  0.25206519  0.00026250  0.62452720  1
  Na  Na27  1  0.25098826  0.00024045  0.87507317  1
  Na  Na28  1  0.24709479  0.33247727  0.12463018  1
  Na  Na29  1  0.24823941  0.33313100  0.37491404  1
  Na  Na30  1  0.24941319  0.33325362  0.62489672  1
  Na  Na31  1  0.24999735  0.33347220  0.87533288  1
  Na  Na32  1  0.25164952  0.66672081  0.12443891  1
  Na  Na33  1  0.25290198  0.66709780  0.37574212  1
  Na  Na34  1  0.24996127  0.66573524  0.62416682  1
  Na  Na35  1  0.25127463  0.66689455  0.87479628  1
  Na  Na36  1  0.74904748  0.00016141  0.12425561  1
  Na  Na37  1  0.75079788  0.00089827  0.37519416  1
  Na  Na38  1  0.74946729  -0.00003865  0.62572165  1
  Na  Na39  1  0.74873993  -0.00035218  0.87524694  1
  Na  Na40  1  0.75019194  0.33329523  0.12603684  1
  Na  Na41  1  0.74898339  0.33258154  0.37555034  1
  Na  Na42  1  0.74885445  0.33258919  0.62433163  1
  Na  Na43  1  0.75006866  0.33315774  0.87393504  1
  Na  Na44  1  0.75029610  0.66652619  0.12430165  1
  Na  Na45  1  0.74898447  0.66646510  0.37525064  1
  Na  Na46  1  0.74751021  0.66590175  0.62526322  1
  Na  Na47  1  0.75043598  0.66696308  0.87558247  1
  Na  Na48  1  0.00277569  0.16634960  0.00040736  1
  Na  Na49  1  -0.00039173  0.16690977  0.25116605  1
  Na  Na50  1  -0.00015468  0.16670389  0.49993607  1
  Na  Na51  1  0.00155892  0.16678473  0.74943941  1
  Na  Na52  1  -0.00251114  0.50079607  -0.00012768  1
  Na  Na53  1  -0.00038853  0.49927418  0.24964017  1
  Na  Na54  1  -0.00243280  0.50047553  0.50002891  1
  Na  Na55  1  -0.00078066  0.49909876  0.74909376  1
  Na  Na56  1  0.00063394  0.83348632  -0.00027639  1
  Na  Na57  1  0.00024650  0.83276284  0.24911809  1
  Na  Na58  1  -0.00117944  0.83435379  0.50049876  1
  Na  Na59  1  0.00109794  0.83347308  0.75031402  1
  Na  Na60  1  0.49972152  0.16653251  -0.00040049  1
  Na  Na61  1  0.50129722  0.16660533  0.25133229  1
  Na  Na62  1  0.50007807  0.16719699  0.49961166  1
  Na  Na63  1  0.49861019  0.16699284  0.74884706  1
  Na  Na64  1  0.49688318  0.50060944  0.00049244  1
  Na  Na65  1  0.50031105  0.49951704  0.24975546  1
  Na  Na66  1  0.50022327  0.49960268  0.50015636  1
  Na  Na67  1  0.49869133  0.49938870  0.75014461  1
  Na  Na68  1  0.50089060  0.83388624  0.00106938  1
  Na  Na69  1  0.50059921  0.83398389  0.25100827  1
  Na  Na70  1  0.50080809  0.83409019  0.49892481  1
  Na  Na71  1  0.50266179  0.83293581  0.74961004  1
  Na  Na72  1  0.24814813  0.16726676  0.12433186  1
  Na  Na73  1  0.24970348  0.16644755  0.37571363  1
  Na  Na74  1  0.24932129  0.16705561  0.62474082  1
  Na  Na75  1  0.24976739  0.16661027  0.87558800  1
  Na  Na76  1  0.24975903  0.50035189  0.12488338  1
  Na  Na77  1  0.25179874  0.49884059  0.37568583  1
  Na  Na78  1  0.25125048  0.49951910  0.62452349  1
  Na  Na79  1  0.25320319  0.49842131  0.87560813  1
  Na  Na80  1  0.25013442  0.83380262  0.12456953  1
  Na  Na81  1  0.25244156  0.83292129  0.37539376  1
  Na  Na82  1  0.25085022  0.83398403  0.62434046  1
  Na  Na83  1  0.24900794  0.83481728  0.87408398  1
  Na  Na84  1  0.74974083  0.16696426  0.12454227  1
  Na  Na85  1  0.75130821  0.16641648  0.37537478  1
  Na  Na86  1  0.74974770  0.16741032  0.62475527  1
  Na  Na87  1  0.74923545  0.16718526  0.87500016  1
  Na  Na88  1  0.75124453  0.49975289  0.12552166  1
  Na  Na89  1  0.74966567  0.49970071  0.37498839  1
  Na  Na90  1  0.74807624  0.50022268  0.62454351  1
  Na  Na91  1  0.75186522  0.49904605  0.87467165  1
  Na  Na92  1  0.74809291  0.83365868  0.12468630  1
  Na  Na93  1  0.74730643  0.83464236  0.37584567  1
  Na  Na94  1  0.74863681  0.83383437  0.62616962  1
  Na  Na95  1  0.74915086  0.83293061  0.87472525  1
  Mn  Mn96  1  0.64171641  0.91670116  0.99747066  1
  Mn  Mn97  1  0.85683230  0.75096080  0.25224609  1
  Mn  Mn98  1  0.60719209  0.08336650  0.62246421  1
  Mn  Mn99  1  0.85744245  0.41634912  0.75126068  1
  Mn  Mn100  1  0.85665907  0.75033586  0.75219660  1
  Mn  Mn101  1  0.89246315  0.91650323  0.87700884  1
  Mn  Mn102  1  0.10797873  0.41773512  0.87273105  1
  Mn  Mn103  1  0.14247442  0.58322334  0.74805800  1
  Mn  Mn104  1  0.89086560  0.91633381  0.37719142  1
  Mn  Mn105  1  0.39228415  0.25073808  0.37706441  1
  Mn  Mn106  1  0.35867879  0.74994497  0.00194977  1
  Mn  Mn107  1  0.60818588  0.41637615  0.12196449  1
  Mn  Mn108  1  0.35884227  0.75008287  0.75274043  1
  Mn  Mn109  1  0.85766159  0.08336239  0.75205912  1
  Mn  Mn110  1  0.35726473  0.41619989  0.25251846  1
  Mn  Mn111  1  0.14311465  0.91657166  0.24854284  1
  Mn  Mn112  1  0.60773013  0.74960612  0.37218858  1
  Mn  Mn113  1  0.35899098  0.74991672  0.50295594  1
  Mn  Mn114  1  0.35759827  0.08376431  0.00276781  1
  Mn  Mn115  1  0.39310485  0.58401977  0.62712195  1
  Mn  Mn116  1  0.64192410  0.25066467  0.99753383  1
  Mn  Mn117  1  0.39248891  0.58385247  0.12802496  1
  Mn  Mn118  1  0.89140287  0.58326174  0.62711076  1
  Mn  Mn119  1  0.39179002  0.24934402  0.12802590  1
  Mn  Mn120  1  0.89259298  0.25015409  0.87678122  1
  Mn  Mn121  1  0.14193219  0.58364837  0.99718548  1
  Mn  Mn122  1  0.60686584  0.41670201  0.87336566  1
  Mn  Mn123  1  0.60810227  0.08402042  0.37289872  1
  Mn  Mn124  1  0.39244157  0.91690708  0.12760584  1
  Mn  Mn125  1  0.14227204  0.58362007  0.24843836  1
  Mn  Mn126  1  0.60669881  0.08346794  0.87222250  1
  Mn  Mn127  1  0.89323748  0.24977369  0.12704841  1
  Mn  Mn128  1  0.10742853  0.08293269  0.37289481  1
  Mn  Mn129  1  0.10771648  0.75011548  0.62280955  1
  Mn  Mn130  1  0.85756531  0.41602880  0.25272992  1
  Mn  Mn131  1  0.64128753  0.58275042  0.74840187  1
  Mn  Mn132  1  0.85657221  0.75034723  0.50250114  1
  Mn  Mn133  1  0.89241944  0.91690959  0.12712696  1
  Mn  Mn134  1  0.14228717  0.58293625  0.49708964  1
  Mn  Mn135  1  0.64289407  0.58251645  0.99778437  1
  Mn  Mn136  1  0.85821777  0.08342244  0.00245978  1
  Mn  Mn137  1  0.14282201  0.91682026  0.49768207  1
  Mn  Mn138  1  0.10783533  0.74940786  0.37248175  1
  Mn  Mn139  1  0.10822071  0.74961485  0.12282046  1
  Mn  Mn140  1  0.39216176  0.25004615  0.62703307  1
  Mn  Mn141  1  0.10759705  0.74914196  0.87262687  1
  Mn  Mn142  1  0.10890987  0.08319356  0.87208872  1
  Mn  Mn143  1  0.10695039  0.41736162  0.37349857  1
  Fe  Fe144  1  0.85820576  0.41635991  0.00163648  1
  Fe  Fe145  1  0.60757663  0.75037325  0.12373045  1
  Fe  Fe146  1  0.39351475  0.91611779  0.62682201  1
  Fe  Fe147  1  0.39371459  0.58272346  0.37638276  1
  Fe  Fe148  1  0.39263842  0.58369625  0.87672658  1
  Fe  Fe149  1  0.35674602  0.41625502  0.00206939  1
  Fe  Fe150  1  0.89115041  0.58300469  0.37683356  1
  Fe  Fe151  1  0.35741453  0.08358742  0.25141325  1
  Fe  Fe152  1  0.35663864  0.08406003  0.75125950  1
  Fe  Fe153  1  0.64238706  0.58261541  0.49777120  1
  Fe  Fe154  1  0.64337687  0.24938840  0.24828403  1
  Fe  Fe155  1  0.14332646  0.24995389  0.74806255  1
  Fe  Fe156  1  0.39321525  0.91646483  0.37677384  1
  Fe  Fe157  1  0.85737478  0.08320442  0.25086780  1
  Fe  Fe158  1  0.39175649  0.25013271  0.87630603  1
  Fe  Fe159  1  0.14184875  0.24966997  0.24897556  1
  Fe  Fe160  1  0.35757441  0.41587986  0.75141131  1
  Fe  Fe161  1  0.60753274  0.74984480  0.62292170  1
  Fe  Fe162  1  0.64273535  0.91768264  0.49887090  1
  Fe  Fe163  1  0.14356445  0.91712997  0.74739903  1
  Fe  Fe164  1  0.39276376  0.91619323  0.87614940  1
  Fe  Fe165  1  0.89215686  0.25053458  0.37709278  1
  Fe  Fe166  1  0.85722189  0.08362802  0.50230912  1
  Fe  Fe167  1  0.60722813  0.41702077  0.62292680  1
  Fe  Fe168  1  0.85627471  0.41596954  0.50175422  1
  Fe  Fe169  1  0.64360150  0.24957388  0.49820732  1
  Fe  Fe170  1  0.35725592  0.08455942  0.50187091  1
  Fe  Fe171  1  0.10762668  0.08334799  0.62305858  1
  Fe  Fe172  1  0.64189286  0.91760685  0.24843298  1
  Fe  Fe173  1  0.60767149  0.08325716  0.12408060  1
  Fe  Fe174  1  0.35870869  0.75030928  0.25160207  1
  Fe  Fe175  1  0.14301948  0.25001419  0.99810849  1
  Fe  Fe176  1  0.64160279  0.24974884  0.74803834  1
  Fe  Fe177  1  0.10782819  0.41635189  0.62285973  1
  Fe  Fe178  1  0.64283014  0.58324482  0.24792949  1
  Fe  Fe179  1  0.89171890  0.58321923  0.87675719  1
  Fe  Fe180  1  0.10810454  0.08317723  0.12428956  1
  Fe  Fe181  1  0.89328258  0.24944710  0.62673150  1
  Fe  Fe182  1  0.60742971  0.74997360  0.87404823  1
  Fe  Fe183  1  0.35788803  0.41571662  0.50151993  1
  Fe  Fe184  1  0.14250504  0.25001712  0.49866091  1
  Fe  Fe185  1  0.60781159  0.41672098  0.37376058  1
  Fe  Fe186  1  0.85694154  0.74996639  0.00178997  1
  Fe  Fe187  1  0.14292571  0.91653119  0.99801233  1
  Fe  Fe188  1  0.64159453  0.91764959  0.74793860  1
  Fe  Fe189  1  0.89229566  0.91734462  0.62721955  1
  Fe  Fe190  1  0.89250798  0.58315186  0.12681796  1
  Fe  Fe191  1  0.10704354  0.41707009  0.12307888  1
  P  P192  1  0.05603285  0.24971436  0.11113760  1
  P  P193  1  0.05343598  0.25014772  0.36111749  1
  P  P194  1  0.05499169  0.24956527  0.61067880  1
  P  P195  1  0.05563444  0.25037911  0.85994528  1
  P  P196  1  0.05228056  0.58263188  0.10998344  1
  P  P197  1  0.05087443  0.58317800  0.35984241  1
  P  P198  1  0.05328893  0.58229493  0.60985849  1
  P  P199  1  0.05112551  0.58331390  0.85949937  1
  P  P200  1  0.05460501  0.91744819  0.10961073  1
  P  P201  1  0.05265381  0.91642982  0.35985727  1
  P  P202  1  0.05355386  0.91792916  0.61087415  1
  P  P203  1  0.05554171  0.91638718  0.85976403  1
  P  P204  1  0.55443014  0.24864775  0.11113757  1
  P  P205  1  0.55563466  0.25094248  0.36083685  1
  P  P206  1  0.55507105  0.25063666  0.61014477  1
  P  P207  1  0.55171499  0.25021981  0.85912802  1
  P  P208  1  0.55493105  0.58390657  0.11116352  1
  P  P209  1  0.55455078  0.58183605  0.36051822  1
  P  P210  1  0.55426812  0.58301936  0.60935583  1
  P  P211  1  0.55170642  0.58335427  0.86076784  1
  P  P212  1  0.55477715  0.91738905  0.11169801  1
  P  P213  1  0.55428535  0.91751061  0.36101658  1
  P  P214  1  0.55388676  0.91658045  0.61010117  1
  P  P215  1  0.55244393  0.91651558  0.85939162  1
  P  P216  1  0.44755748  0.08348007  0.14130785  1
  P  P217  1  0.44481213  0.08340424  0.38957953  1
  P  P218  1  0.44442138  0.08298338  0.63896086  1
  P  P219  1  0.44440672  0.08350615  0.88828183  1
  P  P220  1  0.44559132  0.41612097  0.13944090  1
  P  P221  1  0.44761724  0.41685133  0.39040190  1
  P  P222  1  0.44632081  0.41642472  0.63916426  1
  P  P223  1  0.44410562  0.41592813  0.88946439  1
  P  P224  1  0.44801429  0.75042089  0.14115837  1
  P  P225  1  0.44577739  0.74977515  0.38869314  1
  P  P226  1  0.44876478  0.75075668  0.63981152  1
  P  P227  1  0.44839591  0.75050583  0.89005934  1
  P  P228  1  0.94806414  0.08343819  0.14070782  1
  P  P229  1  0.94398816  0.08420739  0.38960159  1
  P  P230  1  0.94645552  0.08368797  0.63870029  1
  P  P231  1  0.94746560  0.08355777  0.88996098  1
  P  P232  1  0.94656632  0.41681309  0.13898089  1
  P  P233  1  0.94511842  0.41619818  0.39085126  1
  P  P234  1  0.94645546  0.41507324  0.63827615  1
  P  P235  1  0.94604137  0.41673629  0.89019356  1
  P  P236  1  0.94527391  0.74960324  0.13876139  1
  P  P237  1  0.94590710  0.74926052  0.39032079  1
  P  P238  1  0.94581752  0.75136619  0.64013087  1
  P  P239  1  0.94552746  0.74952833  0.89045144  1
  P  P240  1  0.19750601  0.08360428  0.23505448  1
  P  P241  1  0.19643590  0.08406155  0.48642102  1
  P  P242  1  0.19735397  0.08336121  0.73423019  1
  P  P243  1  0.19534895  0.08312764  0.98634618  1
  P  P244  1  0.19538423  0.41630148  0.23466207  1
  P  P245  1  0.19659553  0.41565986  0.48609857  1
  P  P246  1  0.19756358  0.41629901  0.73461563  1
  P  P247  1  0.19624022  0.41643927  0.98609007  1
  P  P248  1  0.19905886  0.74975118  0.23507280  1
  P  P249  1  0.19728188  0.75009500  0.48473739  1
  P  P250  1  0.19752909  0.75052859  0.73456938  1
  P  P251  1  0.19713428  0.75062362  0.98451877  1
  P  P252  1  0.69737139  0.08376677  0.23478055  1
  P  P253  1  0.69768874  0.08350686  0.48550468  1
  P  P254  1  0.69585584  0.08364007  0.73491452  1
  P  P255  1  0.69543506  0.08370205  0.98556212  1
  P  P256  1  0.69528909  0.41641869  0.23653660  1
  P  P257  1  0.69563038  0.41619367  0.48578714  1
  P  P258  1  0.69530145  0.41575767  0.73424088  1
  P  P259  1  0.69859536  0.41674545  0.98456651  1
  P  P260  1  0.69555024  0.74999796  0.23454873  1
  P  P261  1  0.69445636  0.75036816  0.48651192  1
  P  P262  1  0.69360610  0.75063604  0.73594315  1
  P  P263  1  0.69598519  0.74957863  0.98555691  1
  P  P264  1  0.30334026  0.25070134  0.01407295  1
  P  P265  1  0.30142080  0.24926232  0.26506752  1
  P  P266  1  0.30253826  0.25041277  0.51480197  1
  P  P267  1  0.30261628  0.24987484  0.76502722  1
  P  P268  1  0.30498735  0.58276179  0.01393540  1
  P  P269  1  0.30424919  0.58376988  0.26601395  1
  P  P270  1  0.30542026  0.58186459  0.51377283  1
  P  P271  1  0.30441387  0.58236796  0.76540284  1
  P  P272  1  0.30386021  0.91653756  0.01377378  1
  P  P273  1  0.30468320  0.91701832  0.26565735  1
  P  P274  1  0.30614698  0.91771668  0.51452468  1
  P  P275  1  0.30443739  0.91762609  0.76388557  1
  P  P276  1  0.80361677  0.25095107  0.01507780  1
  P  P277  1  0.80324402  0.24914063  0.26543358  1
  P  P278  1  0.80437255  0.25011020  0.51434993  1
  P  P279  1  0.80290230  0.24986548  0.76349918  1
  P  P280  1  0.80553977  0.58300338  0.01442322  1
  P  P281  1  0.80339874  0.58345773  0.26443413  1
  P  P282  1  0.80247640  0.58240562  0.51383486  1
  P  P283  1  0.80311392  0.58323258  0.76551017  1
  P  P284  1  0.80321794  0.91585068  0.01485958  1
  P  P285  1  0.80119671  0.91742982  0.26458454  1
  P  P286  1  0.80241471  0.91761192  0.51610817  1
  P  P287  1  0.80247308  0.91705766  0.76424632  1
  O  O288  1  0.05910424  0.24950327  0.18807631  1
  O  O289  1  0.05833346  0.24982475  0.43782029  1
  O  O290  1  0.05979066  0.24982699  0.68743910  1
  O  O291  1  0.05985738  0.25026598  0.93678493  1
  O  O292  1  0.05619100  0.58321130  0.18669582  1
  O  O293  1  0.05536326  0.58333999  0.43653851  1
  O  O294  1  0.05653629  0.58246378  0.68665772  1
  O  O295  1  0.05528709  0.58337576  0.93621847  1
  O  O296  1  0.05744109  0.91665991  0.18646449  1
  O  O297  1  0.05622614  0.91680407  0.43665629  1
  O  O298  1  0.05899901  0.91741890  0.68757320  1
  O  O299  1  0.05978464  0.91655916  0.93657161  1
  O  O300  1  0.55908465  0.24945348  0.18790508  1
  O  O301  1  0.55990767  0.24967057  0.43764272  1
  O  O302  1  0.55855270  0.24965665  0.68696580  1
  O  O303  1  0.55573852  0.25009885  0.93591530  1
  O  O304  1  0.55900313  0.58284485  0.18798016  1
  O  O305  1  0.55906734  0.58246406  0.43728835  1
  O  O306  1  0.55622459  0.58252797  0.68622299  1
  O  O307  1  0.55558702  0.58252755  0.93747184  1
  O  O308  1  0.55834996  0.91762124  0.18855622  1
  O  O309  1  0.55914677  0.91813795  0.43771005  1
  O  O310  1  0.55807206  0.91782694  0.68686045  1
  O  O311  1  0.55592471  0.91754946  0.93620623  1
  O  O312  1  0.44343743  0.08379952  0.06449421  1
  O  O313  1  0.44074663  0.08446805  0.31280352  1
  O  O314  1  0.44081872  0.08458280  0.56213668  1
  O  O315  1  0.44056370  0.08384503  0.81147416  1
  O  O316  1  0.44069227  0.41574618  0.06267086  1
  O  O317  1  0.44372040  0.41581370  0.31365982  1
  O  O318  1  0.44168526  0.41567891  0.56246278  1
  O  O319  1  0.44079711  0.41562620  0.81253769  1
  O  O320  1  0.44414300  0.75043943  0.06440006  1
  O  O321  1  0.44222522  0.74989346  0.31189436  1
  O  O322  1  0.44521187  0.75033347  0.56307750  1
  O  O323  1  0.44515329  0.75043767  0.81329372  1
  O  O324  1  0.94436786  0.08353406  0.06395014  1
  O  O325  1  0.93981653  0.08335442  0.31278036  1
  O  O326  1  0.94154383  0.08354802  0.56197568  1
  O  O327  1  0.94390250  0.08360915  0.81311434  1
  O  O328  1  0.94218370  0.41599876  0.06232467  1
  O  O329  1  0.94290314  0.41584373  0.31388849  1
  O  O330  1  0.94098836  0.41579038  0.56167689  1
  O  O331  1  0.94304399  0.41561934  0.81332860  1
  O  O332  1  0.94112797  0.75065460  0.06203280  1
  O  O333  1  0.94278082  0.74998429  0.31345921  1
  O  O334  1  0.94245404  0.75102997  0.56333426  1
  O  O335  1  0.94248171  0.75055320  0.81360204  1
  O  O336  1  0.19176300  0.08295649  0.06310906  1
  O  O337  1  0.19402297  0.08304883  0.31184718  1
  O  O338  1  0.19180976  0.08310574  0.56309428  1
  O  O339  1  0.19438779  0.08305551  0.81102166  1
  O  O340  1  0.19131270  0.41757596  0.06275125  1
  O  O341  1  0.19255670  0.41720348  0.31153178  1
  O  O342  1  0.19185106  0.41669664  0.56280318  1
  O  O343  1  0.19403417  0.41714780  0.81137685  1
  O  O344  1  0.19407291  0.74966907  0.06136060  1
  O  O345  1  0.19499350  0.74935674  0.31178747  1
  O  O346  1  0.19338600  0.75003896  0.56153073  1
  O  O347  1  0.19422372  0.74992139  0.81135759  1
  O  O348  1  0.69124895  0.08366252  0.06231812  1
  O  O349  1  0.69412391  0.08363206  0.31156916  1
  O  O350  1  0.69370463  0.08348922  0.56212792  1
  O  O351  1  0.69287347  0.08358491  0.81172470  1
  O  O352  1  0.69455903  0.41688118  0.06133220  1
  O  O353  1  0.69178385  0.41673338  0.31330201  1
  O  O354  1  0.69138152  0.41667358  0.56251281  1
  O  O355  1  0.69243259  0.41639535  0.81106297  1
  O  O356  1  0.69116732  0.74977948  0.06225337  1
  O  O357  1  0.69306564  0.74995924  0.31144286  1
  O  O358  1  0.69120379  0.75017138  0.56340828  1
  O  O359  1  0.68989400  0.74976764  0.81284331  1
  O  O360  1  0.30500208  0.24986825  0.18833839  1
  O  O361  1  0.30595670  0.25057565  0.43811645  1
  O  O362  1  0.30609590  0.25010219  0.68827476  1
  O  O363  1  0.30785415  0.24996551  0.93739862  1
  O  O364  1  0.30682045  0.58313127  0.18911498  1
  O  O365  1  0.31008658  0.58249206  0.43704230  1
  O  O366  1  0.30730252  0.58346269  0.68854804  1
  O  O367  1  0.30943834  0.58385577  0.93714775  1
  O  O368  1  0.30676152  0.91682561  0.18874509  1
  O  O369  1  0.31017806  0.91661790  0.43772261  1
  O  O370  1  0.30940476  0.91611834  0.68718670  1
  O  O371  1  0.30887521  0.91636518  0.93707051  1
  O  O372  1  0.80730138  0.25006504  0.18873332  1
  O  O373  1  0.80841913  0.25026092  0.43761339  1
  O  O374  1  0.80828148  0.24979392  0.68683963  1
  O  O375  1  0.80656859  0.25023656  0.93825826  1
  O  O376  1  0.80852071  0.58315335  0.18770869  1
  O  O377  1  0.80709740  0.58307950  0.43711062  1
  O  O378  1  0.80595415  0.58337845  0.68861303  1
  O  O379  1  0.80872751  0.58298922  0.93754254  1
  O  O380  1  0.80528113  0.91669610  0.18792879  1
  O  O381  1  0.80571289  0.91677370  0.43931832  1
  O  O382  1  0.80782096  0.91722034  0.68756379  1
  O  O383  1  0.80634723  0.91641462  0.93805182  1
  O  O384  1  0.23300918  0.25012405  0.03785134  1
  O  O385  1  0.23140034  0.24971126  0.28990939  1
  O  O386  1  0.23264007  0.25017299  0.53985060  1
  O  O387  1  0.23247291  0.24991575  0.78965103  1
  O  O388  1  0.23494869  0.58320884  0.03809108  1
  O  O389  1  0.23460438  0.58294969  0.29152578  1
  O  O390  1  0.23532953  0.58234448  0.53777294  1
  O  O391  1  0.23474344  0.58259540  0.79083497  1
  O  O392  1  0.23356873  0.91661334  0.03751066  1
  O  O393  1  0.23518301  0.91721428  0.29167927  1
  O  O394  1  0.23598990  0.91710113  0.53847251  1
  O  O395  1  0.23392285  0.91765010  0.78727282  1
  O  O396  1  0.73397921  0.25064132  0.04043284  1
  O  O397  1  0.73303617  0.24947695  0.28963742  1
  O  O398  1  0.73385702  0.24996976  0.53799672  1
  O  O399  1  0.73246396  0.25003617  0.78702169  1
  O  O400  1  0.73559326  0.58301073  0.03918812  1
  O  O401  1  0.73288508  0.58337515  0.28771245  1
  O  O402  1  0.73208542  0.58261028  0.53757510  1
  O  O403  1  0.73337556  0.58295652  0.79061135  1
  O  O404  1  0.73342630  0.91650645  0.03969145  1
  O  O405  1  0.73109966  0.91763962  0.28925730  1
  O  O406  1  0.73221227  0.91715097  0.54050152  1
  O  O407  1  0.73205026  0.91681784  0.78770599  1
  O  O408  1  0.26752212  0.08317361  0.21006251  1
  O  O409  1  0.26679343  0.08412441  0.46265807  1
  O  O410  1  0.26744878  0.08361608  0.70951590  1
  O  O411  1  0.26523160  0.08340441  0.96155396  1
  O  O412  1  0.26514939  0.41645795  0.20950601  1
  O  O413  1  0.26687118  0.41553848  0.46209266  1
  O  O414  1  0.26782047  0.41620659  0.71027846  1
  O  O415  1  0.26654914  0.41613171  0.96231368  1
  O  O416  1  0.26914555  0.75019975  0.21044026  1
  O  O417  1  0.26732990  0.75011664  0.46079820  1
  O  O418  1  0.26731603  0.75020162  0.70942246  1
  O  O419  1  0.26680811  0.75066819  0.95924359  1
  O  O420  1  0.76743975  0.08374872  0.20980351  1
  O  O421  1  0.76780797  0.08385464  0.46111210  1
  O  O422  1  0.76546874  0.08373244  0.70951532  1
  O  O423  1  0.76542760  0.08351405  0.96122134  1
  O  O424  1  0.76530140  0.41621587  0.21185315  1
  O  O425  1  0.76597052  0.41582148  0.46176806  1
  O  O426  1  0.76501540  0.41639434  0.70895987  1
  O  O427  1  0.76854184  0.41652052  0.96003862  1
  O  O428  1  0.76516107  0.74998452  0.20905573  1
  O  O429  1  0.76419918  0.75056055  0.46132921  1
  O  O430  1  0.76362724  0.74994917  0.71153969  1
  O  O431  1  0.76635891  0.74955366  0.96200812  1
  O  O432  1  0.01814777  0.08364104  0.16523111  1
  O  O433  1  0.01419481  0.08342479  0.41351165  1
  O  O434  1  0.01681192  0.08391719  0.66252574  1
  O  O435  1  0.01729589  0.08350491  0.91448038  1
  O  O436  1  0.01679505  0.41634541  0.16315910  1
  O  O437  1  0.01471268  0.41650992  0.41640934  1
  O  O438  1  0.01690589  0.41552475  0.66183372  1
  O  O439  1  0.01579469  0.41685975  0.91528805  1
  O  O440  1  0.01529281  0.74937886  0.16320151  1
  O  O441  1  0.01548153  0.75006311  0.41586482  1
  O  O442  1  0.01555520  0.75022207  0.66516203  1
  O  O443  1  0.01529289  0.74979944  0.91554056  1
  O  O444  1  0.51759371  0.08308813  0.16571256  1
  O  O445  1  0.51502110  0.08383083  0.41362207  1
  O  O446  1  0.51444695  0.08342317  0.66317645  1
  O  O447  1  0.51431768  0.08343257  0.91305705  1
  O  O448  1  0.51577615  0.41651926  0.16295458  1
  O  O449  1  0.51779208  0.41663423  0.41467256  1
  O  O450  1  0.51673378  0.41667412  0.66268162  1
  O  O451  1  0.51402619  0.41621483  0.91451343  1
  O  O452  1  0.51806638  0.75038606  0.16560581  1
  O  O453  1  0.51577892  0.75016829  0.41319125  1
  O  O454  1  0.51877497  0.74991797  0.66442971  1
  O  O455  1  0.51829913  0.75066011  0.91538206  1
  O  O456  1  0.48435405  0.24912487  0.08702780  1
  O  O457  1  0.48546781  0.25044102  0.33685022  1
  O  O458  1  0.48499765  0.25016455  0.58580432  1
  O  O459  1  0.48154970  0.25033430  0.83487826  1
  O  O460  1  0.48491191  0.58374035  0.08699636  1
  O  O461  1  0.48415610  0.58257022  0.33681481  1
  O  O462  1  0.48473402  0.58349075  0.58356371  1
  O  O463  1  0.48173850  0.58311883  0.83582147  1
  O  O464  1  0.48493883  0.91733216  0.08672346  1
  O  O465  1  0.48379095  0.91702022  0.33776067  1
  O  O466  1  0.48360493  0.91711311  0.58609486  1
  O  O467  1  0.48236704  0.91652166  0.83474457  1
  O  O468  1  0.98611592  0.24980526  0.08627544  1
  O  O469  1  0.98298407  0.25025249  0.33760905  1
  O  O470  1  0.98452153  0.24932179  0.58707919  1
  O  O471  1  0.98557248  0.25022105  0.83583027  1
  O  O472  1  0.98214025  0.58318865  0.08564822  1
  O  O473  1  0.98071999  0.58233891  0.33565376  1
  O  O474  1  0.98336114  0.58320154  0.58514646  1
  O  O475  1  0.98106337  0.58293811  0.83504175  1
  O  O476  1  0.98487918  0.91693418  0.08432587  1
  O  O477  1  0.98287305  0.91658598  0.33496403  1
  O  O478  1  0.98307057  0.91771409  0.58744458  1
  O  O479  1  0.98534321  0.91661474  0.83594714  1
  O  O480  1  0.08989335  0.31489433  0.07836661  1
  O  O481  1  0.08690472  0.31516017  0.32785527  1
  O  O482  1  0.08827547  0.31463477  0.57710353  1
  O  O483  1  0.08928263  0.31544498  0.82688637  1
  O  O484  1  0.08627117  0.64756302  0.07696086  1
  O  O485  1  0.08427890  0.64832921  0.32663540  1
  O  O486  1  0.08762018  0.64730099  0.57742928  1
  O  O487  1  0.08486082  0.64839323  0.82665441  1
  O  O488  1  0.08854557  0.98290681  0.07763107  1
  O  O489  1  0.08681136  0.98155082  0.32747467  1
  O  O490  1  0.08662839  0.98316242  0.57744705  1
  O  O491  1  0.08930387  0.98133135  0.82641975  1
  O  O492  1  0.58797633  0.31365970  0.07752898  1
  O  O493  1  0.58903607  0.31621658  0.32814313  1
  O  O494  1  0.58874859  0.31590695  0.57766188  1
  O  O495  1  0.58588593  0.31521297  0.82657051  1
  O  O496  1  0.58834756  0.64940236  0.07880388  1
  O  O497  1  0.58832569  0.64676126  0.32717781  1
  O  O498  1  0.58896673  0.64801876  0.57738090  1
  O  O499  1  0.58559035  0.64852037  0.82844674  1
  O  O500  1  0.58835891  0.98253551  0.07872523  1
  O  O501  1  0.58733726  0.98251599  0.32720841  1
  O  O502  1  0.58756953  0.98142836  0.57634242  1
  O  O503  1  0.58621673  0.98144754  0.82599486  1
  O  O504  1  0.41322174  0.01855870  0.17376378  1
  O  O505  1  0.41139858  0.01810658  0.42223893  1
  O  O506  1  0.41095259  0.01756465  0.67131771  1
  O  O507  1  0.41097418  0.01812736  0.92107510  1
  O  O508  1  0.41249160  0.35104966  0.17311034  1
  O  O509  1  0.41369845  0.35191455  0.42375625  1
  O  O510  1  0.41289530  0.35148899  0.67287501  1
  O  O511  1  0.41039978  0.35065431  0.92230883  1
  O  O512  1  0.41394377  0.68548609  0.17394625  1
  O  O513  1  0.41269726  0.68435184  0.42162081  1
  O  O514  1  0.41463111  0.68588309  0.67259452  1
  O  O515  1  0.41449385  0.68534519  0.92260010  1
  O  O516  1  0.91397123  0.01839581  0.17344687  1
  O  O517  1  0.90984288  0.01951760  0.42306099  1
  O  O518  1  0.91310456  0.01861012  0.67217377  1
  O  O519  1  0.91354450  0.01840722  0.92247584  1
  O  O520  1  0.91305236  0.35190187  0.17265072  1
  O  O521  1  0.91096022  0.35100176  0.42316736  1
  O  O522  1  0.91363591  0.34969457  0.67173055  1
  O  O523  1  0.91205493  0.35178567  0.92330159  1
  O  O524  1  0.91135873  0.68439078  0.17123813  1
  O  O525  1  0.91194952  0.68383491  0.42239362  1
  O  O526  1  0.91109159  0.68637077  0.67219621  1
  O  O527  1  0.91138135  0.68419888  0.92235725  1
  O  O528  1  0.16325063  0.01870679  0.20222201  1
  O  O529  1  0.16333818  0.01912710  0.45253007  1
  O  O530  1  0.16336286  0.01843194  0.70123038  1
  O  O531  1  0.16196092  0.01794087  0.95318964  1
  O  O532  1  0.16116065  0.35101566  0.20285109  1
  O  O533  1  0.16296319  0.35041148  0.45344229  1
  O  O534  1  0.16358007  0.35111571  0.70215257  1
  O  O535  1  0.16280963  0.35122274  0.95322825  1
  O  O536  1  0.16530940  0.68463808  0.20211403  1
  O  O537  1  0.16359560  0.68492562  0.45191155  1
  O  O538  1  0.16335506  0.68535376  0.70224500  1
  O  O539  1  0.16308868  0.68547585  0.95179717  1
  O  O540  1  0.66309599  0.01890249  0.20205428  1
  O  O541  1  0.66407983  0.01834288  0.45259964  1
  O  O542  1  0.66169596  0.01839688  0.70259319  1
  O  O543  1  0.66158227  0.01866850  0.95257317  1
  O  O544  1  0.66172839  0.35103958  0.20387199  1
  O  O545  1  0.66203540  0.35102313  0.45284816  1
  O  O546  1  0.66120538  0.35064416  0.70189283  1
  O  O547  1  0.66429762  0.35187026  0.95194622  1
  O  O548  1  0.66129027  0.68484081  0.20230390  1
  O  O549  1  0.66072296  0.68520949  0.45366355  1
  O  O550  1  0.65958973  0.68573930  0.70280712  1
  O  O551  1  0.66254835  0.68457588  0.95210817  1
  O  O552  1  0.33639334  0.31585248  0.04741967  1
  O  O553  1  0.33548166  0.31425099  0.29799416  1
  O  O554  1  0.33656123  0.31541484  0.54762235  1
  O  O555  1  0.33662776  0.31484265  0.79780888  1
  O  O556  1  0.33879578  0.64773244  0.04723787  1
  O  O557  1  0.33855067  0.64902183  0.29782542  1
  O  O558  1  0.33903180  0.64689417  0.54724795  1
  O  O559  1  0.33902614  0.64725743  0.79813242  1
  O  O560  1  0.33715563  0.98161838  0.04722596  1
  O  O561  1  0.33925175  0.98219496  0.29751358  1
  O  O562  1  0.33939211  0.98317933  0.54706487  1
  O  O563  1  0.33758421  0.98301316  0.79673146  1
  O  O564  1  0.83767420  0.31619259  0.04735092  1
  O  O565  1  0.83707309  0.31407000  0.29886327  1
  O  O566  1  0.83758869  0.31519621  0.54786530  1
  O  O567  1  0.83628909  0.31494782  0.79674947  1
  O  O568  1  0.83929219  0.64823166  0.04719209  1
  O  O569  1  0.83654166  0.64852151  0.29793989  1
  O  O570  1  0.83561655  0.64746329  0.54746468  1
  O  O571  1  0.83725192  0.64820784  0.79804126  1
  O  O572  1  0.83749692  0.98081985  0.04751945  1
  O  O573  1  0.83532191  0.98241933  0.29698759  1
  O  O574  1  0.83625134  0.98292534  0.54850087  1
  O  O575  1  0.83572518  0.98211424  0.79768473  1
  O  O576  1  0.41360562  0.14839236  0.17443969  1
  O  O577  1  0.41099093  0.14833633  0.42304022  1
  O  O578  1  0.41036045  0.14764192  0.67255150  1
  O  O579  1  0.41091659  0.14875730  0.92138563  1
  O  O580  1  0.41211058  0.48122463  0.17248461  1
  O  O581  1  0.41374169  0.48196658  0.42289275  1
  O  O582  1  0.41276338  0.48139860  0.67231057  1
  O  O583  1  0.41005864  0.48100963  0.92206916  1
  O  O584  1  0.41400033  0.81543290  0.17383815  1
  O  O585  1  0.41221674  0.81492211  0.42164300  1
  O  O586  1  0.41529604  0.81599878  0.67254014  1
  O  O587  1  0.41442041  0.81570815  0.92252524  1
  O  O588  1  0.91384844  0.14831620  0.17353746  1
  O  O589  1  0.91096441  0.14968669  0.42260201  1
  O  O590  1  0.91313485  0.14895947  0.67189927  1
  O  O591  1  0.91365174  0.14869791  0.92258016  1
  O  O592  1  0.91305935  0.48204308  0.17190241  1
  O  O593  1  0.91023636  0.48115603  0.42271473  1
  O  O594  1  0.91284762  0.47997957  0.67179288  1
  O  O595  1  0.91159641  0.48187328  0.92210699  1
  O  O596  1  0.91192423  0.81470415  0.17234140  1
  O  O597  1  0.91120137  0.81420268  0.42266289  1
  O  O598  1  0.91236701  0.81683951  0.67264142  1
  O  O599  1  0.91116105  0.81437654  0.92332226  1
  O  O600  1  0.08989427  0.18459369  0.07837865  1
  O  O601  1  0.08690683  0.18518401  0.32757963  1
  O  O602  1  0.08843187  0.18446310  0.57732128  1
  O  O603  1  0.08953197  0.18549034  0.82670243  1
  O  O604  1  0.08567351  0.51732206  0.07714971  1
  O  O605  1  0.08501113  0.51816498  0.32731452  1
  O  O606  1  0.08672479  0.51689003  0.57720308  1
  O  O607  1  0.08520137  0.51833058  0.82680245  1
  O  O608  1  0.08925372  0.85263609  0.07692025  1
  O  O609  1  0.08671306  0.85137397  0.32734246  1
  O  O610  1  0.08681513  0.85283935  0.57734153  1
  O  O611  1  0.08913279  0.85133782  0.82665391  1
  O  O612  1  0.58757164  0.18318993  0.07835571  1
  O  O613  1  0.58951061  0.18610171  0.32734059  1
  O  O614  1  0.58905222  0.18583866  0.57668724  1
  O  O615  1  0.58559445  0.18525672  0.82607547  1
  O  O616  1  0.58847487  0.51902470  0.07748125  1
  O  O617  1  0.58769675  0.51665325  0.32739842  1
  O  O618  1  0.58840097  0.51779579  0.57693064  1
  O  O619  1  0.58546834  0.51834635  0.82766786  1
  O  O620  1  0.58837517  0.85196055  0.07908488  1
  O  O621  1  0.58789533  0.85259589  0.32774270  1
  O  O622  1  0.58727167  0.85130002  0.57741303  1
  O  O623  1  0.58675765  0.85142669  0.82743527  1
  O  O624  1  0.33677898  0.18573191  0.04771087  1
  O  O625  1  0.33536556  0.18418114  0.29746811  1
  O  O626  1  0.33663476  0.18536502  0.54741944  1
  O  O627  1  0.33637248  0.18466213  0.79770209  1
  O  O628  1  0.33835629  0.51740778  0.04666488  1
  O  O629  1  0.33907336  0.51885803  0.29836358  1
  O  O630  1  0.33870501  0.51651886  0.54661119  1
  O  O631  1  0.33859447  0.51701946  0.79709855  1
  O  O632  1  0.33732246  0.85159258  0.04723979  1
  O  O633  1  0.33922339  0.85193356  0.29777910  1
  O  O634  1  0.34023552  0.85303975  0.54820356  1
  O  O635  1  0.33782756  0.85281912  0.79804228  1
  O  O636  1  0.83791309  0.18592056  0.04767761  1
  O  O637  1  0.83704333  0.18398564  0.29789015  1
  O  O638  1  0.83789395  0.18508347  0.54772774  1
  O  O639  1  0.83614418  0.18491458  0.79718518  1
  O  O640  1  0.83938202  0.51785240  0.04733498  1
  O  O641  1  0.83676685  0.51843342  0.29798142  1
  O  O642  1  0.83572335  0.51716389  0.54693941  1
  O  O643  1  0.83765396  0.51818676  0.79748332  1
  O  O644  1  0.83681660  0.85051832  0.04729920  1
  O  O645  1  0.83446078  0.85224498  0.29797404  1
  O  O646  1  0.83651626  0.85279514  0.54919810  1
  O  O647  1  0.83577619  0.85197329  0.79753411  1
  O  O648  1  0.16339552  0.14872064  0.20271232  1
  O  O649  1  0.16299165  0.14930987  0.45354670  1
  O  O650  1  0.16321121  0.14852482  0.70193251  1
  O  O651  1  0.16165650  0.14837469  0.95354632  1
  O  O652  1  0.16107797  0.48126782  0.20185812  1
  O  O653  1  0.16329338  0.48055140  0.45222303  1
  O  O654  1  0.16366513  0.48119961  0.70144179  1
  O  O655  1  0.16333047  0.48147834  0.95202681  1
  O  O656  1  0.16495836  0.81485453  0.20265882  1
  O  O657  1  0.16365673  0.81529181  0.45204903  1
  O  O658  1  0.16363620  0.81586419  0.70225047  1
  O  O659  1  0.16285993  0.81579072  0.95262320  1
  O  O660  1  0.66338828  0.14896176  0.20226511  1
  O  O661  1  0.66378876  0.14849554  0.45255258  1
  O  O662  1  0.66157368  0.14864442  0.70249821  1
  O  O663  1  0.66179900  0.14876577  0.95243773  1
  O  O664  1  0.66190662  0.48151520  0.20326451  1
  O  O665  1  0.66219481  0.48110250  0.45207664  1
  O  O666  1  0.66074983  0.48074107  0.70178355  1
  O  O667  1  0.66478070  0.48181462  0.95171000  1
  O  O668  1  0.66117240  0.81520874  0.20253857  1
  O  O669  1  0.66057445  0.81565303  0.45415028  1
  O  O670  1  0.66013971  0.81599793  0.70329270  1
  O  O671  1  0.66238762  0.81450895  0.95208217  1
