# generated using pymatgen
data_Na2MnFe(PO4)2
_symmetry_space_group_name_H-M   'P 1'
_cell_length_a   21.08585842
_cell_length_b   18.93837023
_cell_length_c   20.04493835
_cell_angle_alpha   90.00045800
_cell_angle_beta   89.99908496
_cell_angle_gamma   90.00035870
_symmetry_Int_Tables_number   1
_chemical_formula_structural   Na2MnFe(PO4)2
_chemical_formula_sum   'Na96 Mn48 Fe48 P96 O384'
_cell_volume   8004.58117765
_cell_formula_units_Z   48
loop_
 _symmetry_equiv_pos_site_id
 _symmetry_equiv_pos_as_xyz
  1  'x, y, z'
loop_
 _atom_site_type_symbol
 _atom_site_label
 _atom_site_symmetry_multiplicity
 _atom_site_fract_x
 _atom_site_fract_y
 _atom_site_fract_z
 _atom_site_occupancy
  Na  Na0  1  -0.00206888  -0.00029021  -0.00051620  1
  Na  Na1  1  -0.00253849  -0.00012842  0.25116123  1
  Na  Na2  1  -0.00239316  -0.00036943  0.49970013  1
  Na  Na3  1  0.00044769  0.00130286  0.74962694  1
  Na  Na4  1  -0.00320460  0.33170447  0.00113752  1
  Na  Na5  1  -0.00081702  0.33292775  0.25005265  1
  Na  Na6  1  -0.00058501  0.33278586  0.49982980  1
  Na  Na7  1  -0.00113929  0.33296241  0.74902699  1
  Na  Na8  1  0.00125839  0.66647722  0.00018205  1
  Na  Na9  1  0.00124826  0.66672639  0.25092470  1
  Na  Na10  1  0.00049107  0.66566715  0.50046152  1
  Na  Na11  1  0.00263872  0.66728063  0.74876244  1
  Na  Na12  1  0.49905541  -0.00011989  -0.00016971  1
  Na  Na13  1  0.49951253  0.00052283  0.25010846  1
  Na  Na14  1  0.49873101  -0.00011595  0.49988273  1
  Na  Na15  1  0.50080555  0.00050448  0.74990366  1
  Na  Na16  1  0.50144583  0.33304700  0.00026130  1
  Na  Na17  1  0.50088096  0.33262458  0.24969215  1
  Na  Na18  1  0.49956007  0.33313700  0.50142973  1
  Na  Na19  1  0.49980924  0.33320580  0.74871754  1
  Na  Na20  1  0.49949210  0.66672441  0.00130273  1
  Na  Na21  1  0.50044879  0.66722758  0.24968373  1
  Na  Na22  1  0.49820651  0.66642614  0.49856760  1
  Na  Na23  1  0.49965817  0.66709930  0.75045126  1
  Na  Na24  1  0.24833865  0.00046907  0.12492826  1
  Na  Na25  1  0.25070953  0.00129013  0.37526283  1
  Na  Na26  1  0.24733141  -0.00024015  0.62513339  1
  Na  Na27  1  0.24787859  0.00084633  0.87507894  1
  Na  Na28  1  0.25001714  0.33232861  0.12420220  1
  Na  Na29  1  0.25026678  0.33284870  0.37498539  1
  Na  Na30  1  0.25171501  0.33324058  0.62479145  1
  Na  Na31  1  0.25232860  0.33399467  0.87542344  1
  Na  Na32  1  0.24917019  0.66768735  0.12531704  1
  Na  Na33  1  0.24728435  0.66623281  0.37495689  1
  Na  Na34  1  0.24816485  0.66621041  0.62564681  1
  Na  Na35  1  0.24919273  0.66712417  0.87492665  1
  Na  Na36  1  0.75260068  0.00031031  0.12462848  1
  Na  Na37  1  0.75313937  0.00046536  0.37519343  1
  Na  Na38  1  0.75248452  0.00048324  0.62444581  1
  Na  Na39  1  0.75361830  0.00078432  0.87521960  1
  Na  Na40  1  0.75137043  0.33362762  0.12545718  1
  Na  Na41  1  0.75026591  0.33312493  0.37450999  1
  Na  Na42  1  0.74937932  0.33283624  0.62487733  1
  Na  Na43  1  0.75044784  0.33287723  0.87499022  1
  Na  Na44  1  0.75063224  0.66665079  0.12488023  1
  Na  Na45  1  0.75096230  0.66591169  0.37508184  1
  Na  Na46  1  0.75293128  0.66775590  0.62528416  1
  Na  Na47  1  0.74866669  0.66562794  0.87412713  1
  Na  Na48  1  -0.00115740  0.16637697  0.00033620  1
  Na  Na49  1  -0.00114517  0.16718731  0.25051001  1
  Na  Na50  1  0.00030414  0.16640940  0.49901362  1
  Na  Na51  1  0.00013842  0.16632885  0.74888215  1
  Na  Na52  1  -0.00147907  0.50068558  0.00076708  1
  Na  Na53  1  -0.00099401  0.50050830  0.25035464  1
  Na  Na54  1  -0.00173495  0.50099086  0.50040814  1
  Na  Na55  1  0.00047356  0.49965127  0.74932460  1
  Na  Na56  1  0.00043637  0.83334746  0.00036414  1
  Na  Na57  1  -0.00080646  0.83394889  0.25107879  1
  Na  Na58  1  -0.00000262  0.83358827  0.50078433  1
  Na  Na59  1  -0.00009340  0.83428078  0.74869695  1
  Na  Na60  1  0.49935680  0.16708168  0.00046991  1
  Na  Na61  1  0.50117625  0.16590407  0.24977347  1
  Na  Na62  1  0.49817973  0.16727436  0.50066388  1
  Na  Na63  1  0.50062842  0.16585195  0.74970250  1
  Na  Na64  1  0.50087287  0.49982174  -0.00003324  1
  Na  Na65  1  0.50258587  0.49888555  0.25014258  1
  Na  Na66  1  0.49849946  0.50026085  0.49967550  1
  Na  Na67  1  0.49947003  0.49977406  0.74958790  1
  Na  Na68  1  0.50011846  0.83285666  0.00095981  1
  Na  Na69  1  0.49749728  0.83424118  0.24966889  1
  Na  Na70  1  0.49922467  0.83323909  0.49954756  1
  Na  Na71  1  0.50048790  0.83306021  0.74977692  1
  Na  Na72  1  0.24833055  0.16698386  0.12393799  1
  Na  Na73  1  0.24936249  0.16664110  0.37551946  1
  Na  Na74  1  0.24798630  0.16710737  0.62521440  1
  Na  Na75  1  0.25033975  0.16605259  0.87545097  1
  Na  Na76  1  0.24874892  0.50020267  0.12476481  1
  Na  Na77  1  0.24926648  0.50024147  0.37489717  1
  Na  Na78  1  0.25167788  0.49931954  0.62517427  1
  Na  Na79  1  0.24898899  0.50078294  0.87482590  1
  Na  Na80  1  0.25037602  0.83258224  0.12569131  1
  Na  Na81  1  0.24930684  0.83336687  0.37487945  1
  Na  Na82  1  0.24793438  0.83396430  0.62478232  1
  Na  Na83  1  0.24838406  0.83386484  0.87579210  1
  Na  Na84  1  0.75088340  0.16684953  0.12446021  1
  Na  Na85  1  0.75201818  0.16560092  0.37517886  1
  Na  Na86  1  0.74988089  0.16698327  0.62395223  1
  Na  Na87  1  0.75200101  0.16560205  0.87579628  1
  Na  Na88  1  0.75133521  0.49971600  0.12645496  1
  Na  Na89  1  0.75036581  0.50043831  0.37479265  1
  Na  Na90  1  0.75187323  0.49931235  0.62532465  1
  Na  Na91  1  0.75104160  0.49964448  0.87414599  1
  Na  Na92  1  0.75095826  0.83376306  0.12446642  1
  Na  Na93  1  0.75327531  0.83258900  0.37449257  1
  Na  Na94  1  0.75206833  0.83359753  0.62567946  1
  Na  Na95  1  0.75084313  0.83370721  0.87407952  1
  Mn  Mn96  1  0.14139440  0.25030660  0.99739751  1
  Mn  Mn97  1  0.39169624  0.91718206  0.12709477  1
  Mn  Mn98  1  0.35852276  0.41693500  0.00219913  1
  Mn  Mn99  1  0.10724030  0.41615060  0.87258904  1
  Mn  Mn100  1  0.85769664  0.41628226  0.25298563  1
  Mn  Mn101  1  0.85791519  0.41568245  0.75246029  1
  Mn  Mn102  1  0.35733373  0.08335421  0.25177505  1
  Mn  Mn103  1  0.39183669  0.58283025  0.37664423  1
  Mn  Mn104  1  0.10845718  0.41595955  0.62232179  1
  Mn  Mn105  1  0.35755185  0.41683697  0.25252766  1
  Mn  Mn106  1  0.64278004  0.58366994  0.49829974  1
  Mn  Mn107  1  0.85895078  0.75010806  0.25248301  1
  Mn  Mn108  1  0.85887638  0.74924319  0.00193018  1
  Mn  Mn109  1  0.60807311  0.75010597  0.37281387  1
  Mn  Mn110  1  0.60776627  0.75073223  0.12294481  1
  Mn  Mn111  1  0.14152191  0.91725928  0.24780079  1
  Mn  Mn112  1  0.39264481  0.24981867  0.12736977  1
  Mn  Mn113  1  0.60771556  0.08342614  0.37309327  1
  Mn  Mn114  1  0.10738958  0.75056404  0.62224545  1
  Mn  Mn115  1  0.39144299  0.91706390  0.87715586  1
  Mn  Mn116  1  0.64359823  0.24994421  0.99731981  1
  Mn  Mn117  1  0.60710940  0.41709796  0.62240042  1
  Mn  Mn118  1  0.14109482  0.91711656  0.99815857  1
  Mn  Mn119  1  0.10677577  0.08319119  0.37280739  1
  Mn  Mn120  1  0.89233962  0.24992750  0.62707958  1
  Mn  Mn121  1  0.39200935  0.24982513  0.62749166  1
  Mn  Mn122  1  0.60895324  0.41620081  0.12261365  1
  Mn  Mn123  1  0.60850263  0.08303578  0.87289735  1
  Mn  Mn124  1  0.39127783  0.91630172  0.62729352  1
  Mn  Mn125  1  0.14204744  0.25054222  0.74855008  1
  Mn  Mn126  1  0.64252507  0.24996027  0.49704592  1
  Mn  Mn127  1  0.64292963  0.91680884  0.24831772  1
  Mn  Mn128  1  0.64345978  0.91617419  0.49766601  1
  Mn  Mn129  1  0.64293882  0.58337834  0.99791272  1
  Mn  Mn130  1  0.64311639  0.91768772  0.74785434  1
  Mn  Mn131  1  0.60798351  0.75021507  0.62216165  1
  Mn  Mn132  1  0.35686587  0.75035026  0.75253958  1
  Mn  Mn133  1  0.64338899  0.91656554  0.99761916  1
  Mn  Mn134  1  0.39227159  0.58326812  0.87743132  1
  Mn  Mn135  1  0.14167031  0.58310062  0.99797069  1
  Mn  Mn136  1  0.39195968  0.58292077  0.12781641  1
  Mn  Mn137  1  0.89306540  0.58351066  0.87718513  1
  Mn  Mn138  1  0.10766831  0.41687208  0.37311641  1
  Mn  Mn139  1  0.85861076  0.75037284  0.75313980  1
  Mn  Mn140  1  0.10686388  0.41622150  0.12273971  1
  Mn  Mn141  1  0.35688782  0.08334567  0.75217093  1
  Mn  Mn142  1  0.64185470  0.58308362  0.74696757  1
  Mn  Mn143  1  0.35636699  0.74999127  0.50206313  1
  Fe  Fe144  1  0.39351759  0.24975163  0.87632200  1
  Fe  Fe145  1  0.85738217  0.08371547  0.25136088  1
  Fe  Fe146  1  0.14252125  0.58268813  0.49842809  1
  Fe  Fe147  1  0.89250257  0.25050367  0.37700170  1
  Fe  Fe148  1  0.10574804  0.08320716  0.12361067  1
  Fe  Fe149  1  0.85877396  0.74940000  0.50191626  1
  Fe  Fe150  1  0.14198025  0.25036513  0.24855223  1
  Fe  Fe151  1  0.35673796  0.08294943  0.00166673  1
  Fe  Fe152  1  0.35748679  0.41674725  0.75232948  1
  Fe  Fe153  1  0.10711269  0.75072086  0.12381957  1
  Fe  Fe154  1  0.89387608  0.91662274  0.87631822  1
  Fe  Fe155  1  0.85738896  0.41683568  0.50151748  1
  Fe  Fe156  1  0.89369109  0.91664744  0.62679568  1
  Fe  Fe157  1  0.89256733  0.24968332  0.12771614  1
  Fe  Fe158  1  0.14299310  0.58272488  0.74816053  1
  Fe  Fe159  1  0.85773157  0.08368937  0.50248721  1
  Fe  Fe160  1  0.14197978  0.91712064  0.49770967  1
  Fe  Fe161  1  0.64314064  0.24944285  0.24912939  1
  Fe  Fe162  1  0.10790810  0.75045479  0.87355189  1
  Fe  Fe163  1  0.39228750  0.24955268  0.37615505  1
  Fe  Fe164  1  0.64284911  0.24918513  0.74917175  1
  Fe  Fe165  1  0.35693581  0.75074688  0.00167620  1
  Fe  Fe166  1  0.60798482  0.41671655  0.87301798  1
  Fe  Fe167  1  0.85792347  0.08403490  0.75135866  1
  Fe  Fe168  1  0.60743823  0.41641438  0.37428229  1
  Fe  Fe169  1  0.10652200  0.75007723  0.37377226  1
  Fe  Fe170  1  0.10618342  0.08342562  0.87355635  1
  Fe  Fe171  1  0.39172300  0.91736597  0.37710017  1
  Fe  Fe172  1  0.35634225  0.08341722  0.50197755  1
  Fe  Fe173  1  0.14321332  0.25040014  0.49785463  1
  Fe  Fe174  1  0.89287927  0.91608086  0.37777288  1
  Fe  Fe175  1  0.64342123  0.58348546  0.24866043  1
  Fe  Fe176  1  0.85770008  0.41666924  0.00144557  1
  Fe  Fe177  1  0.14112990  0.91672862  0.74832435  1
  Fe  Fe178  1  0.35596366  0.74983720  0.25193236  1
  Fe  Fe179  1  0.14175926  0.58270321  0.24843869  1
  Fe  Fe180  1  0.89295154  0.58383184  0.12721098  1
  Fe  Fe181  1  0.89291022  0.58331802  0.37751067  1
  Fe  Fe182  1  0.89355533  0.58348555  0.62676057  1
  Fe  Fe183  1  0.89299146  0.91622029  0.12680469  1
  Fe  Fe184  1  0.85864532  0.08373778  0.00242210  1
  Fe  Fe185  1  0.89199923  0.24969087  0.87642132  1
  Fe  Fe186  1  0.39133535  0.58405971  0.62639919  1
  Fe  Fe187  1  0.60792221  0.08268732  0.62306673  1
  Fe  Fe188  1  0.10675139  0.08373606  0.62289041  1
  Fe  Fe189  1  0.35741864  0.41646904  0.50077741  1
  Fe  Fe190  1  0.60723161  0.74992071  0.87381079  1
  Fe  Fe191  1  0.60836359  0.08277695  0.12330289  1
  P  P192  1  0.05276849  0.24894296  0.11149412  1
  P  P193  1  0.05359556  0.25026405  0.36069013  1
  P  P194  1  0.05425116  0.24932813  0.60899837  1
  P  P195  1  0.05101590  0.24933529  0.86001175  1
  P  P196  1  0.05331980  0.58387375  0.11172712  1
  P  P197  1  0.05392787  0.58358458  0.36126560  1
  P  P198  1  0.05453115  0.58280452  0.61042790  1
  P  P199  1  0.05425089  0.58376025  0.85912153  1
  P  P200  1  0.05180659  0.91737963  0.11078877  1
  P  P201  1  0.05287433  0.91627955  0.36173464  1
  P  P202  1  0.05397637  0.91803965  0.61028940  1
  P  P203  1  0.05269936  0.91710182  0.85965213  1
  P  P204  1  0.55590904  0.24859459  0.11116615  1
  P  P205  1  0.55266568  0.25045349  0.35996651  1
  P  P206  1  0.55509878  0.24878549  0.61131106  1
  P  P207  1  0.55340474  0.25027817  0.85945274  1
  P  P208  1  0.55486160  0.58341436  0.11117710  1
  P  P209  1  0.55417295  0.58258805  0.35961411  1
  P  P210  1  0.55123536  0.58363600  0.60934552  1
  P  P211  1  0.55368458  0.58352725  0.86019500  1
  P  P212  1  0.55388333  0.91776942  0.11008307  1
  P  P213  1  0.55186504  0.91685551  0.36010018  1
  P  P214  1  0.55351997  0.91748656  0.60963337  1
  P  P215  1  0.55336411  0.91585670  0.86013159  1
  P  P216  1  0.44699715  0.08333026  0.13904176  1
  P  P217  1  0.44539663  0.08378739  0.39051732  1
  P  P218  1  0.44629668  0.08298214  0.63911594  1
  P  P219  1  0.44609711  0.08415418  0.89043382  1
  P  P220  1  0.44731610  0.41635791  0.14046866  1
  P  P221  1  0.44728340  0.41535716  0.39023664  1
  P  P222  1  0.44376856  0.41767942  0.63909920  1
  P  P223  1  0.44732463  0.41562789  0.88873917  1
  P  P224  1  0.44416474  0.75018337  0.13996398  1
  P  P225  1  0.44466161  0.75064409  0.38847072  1
  P  P226  1  0.44586448  0.74933972  0.63985802  1
  P  P227  1  0.44691357  0.75020237  0.89089112  1
  P  P228  1  0.94556872  0.08328836  0.13969963  1
  P  P229  1  0.94405831  0.08389726  0.38918431  1
  P  P230  1  0.94600053  0.08294842  0.63897177  1
  P  P231  1  0.94570750  0.08356306  0.88879717  1
  P  P232  1  0.94484507  0.41665238  0.13920653  1
  P  P233  1  0.94603421  0.41662562  0.39059039  1
  P  P234  1  0.94573276  0.41721474  0.63859139  1
  P  P235  1  0.94618681  0.41582585  0.89065847  1
  P  P236  1  0.94814955  0.74994518  0.14013803  1
  P  P237  1  0.94743570  0.74949956  0.39088154  1
  P  P238  1  0.94555508  0.74986349  0.63864257  1
  P  P239  1  0.94903446  0.75062988  0.88961468  1
  P  P240  1  0.19514830  0.08454599  0.23443778  1
  P  P241  1  0.19556446  0.08362556  0.48623730  1
  P  P242  1  0.19361025  0.08302353  0.73569808  1
  P  P243  1  0.19479707  0.08352985  0.98555769  1
  P  P244  1  0.19608385  0.41607381  0.23496466  1
  P  P245  1  0.19798140  0.41629882  0.48508502  1
  P  P246  1  0.19796402  0.41675930  0.73508744  1
  P  P247  1  0.19671113  0.41636525  0.98470052  1
  P  P248  1  0.19471138  0.74961373  0.23613217  1
  P  P249  1  0.19492131  0.75011128  0.48448988  1
  P  P250  1  0.19439283  0.75038635  0.73633368  1
  P  P251  1  0.19546608  0.75045725  0.98594351  1
  P  P252  1  0.69778297  0.08370578  0.23472830  1
  P  P253  1  0.69757937  0.08275746  0.48583710  1
  P  P254  1  0.69796673  0.08407922  0.73440491  1
  P  P255  1  0.69823434  0.08300923  0.98612549  1
  P  P256  1  0.69533354  0.41633264  0.23701712  1
  P  P257  1  0.69751283  0.41702924  0.48450270  1
  P  P258  1  0.69529742  0.41532889  0.73587346  1
  P  P259  1  0.69808174  0.41673343  0.98441655  1
  P  P260  1  0.69744587  0.74956797  0.23504537  1
  P  P261  1  0.69925138  0.75003636  0.48494030  1
  P  P262  1  0.69592127  0.75039255  0.73576702  1
  P  P263  1  0.69704802  0.75012730  0.98401460  1
  P  P264  1  0.30478793  0.24884373  0.01355227  1
  P  P265  1  0.30225904  0.24958996  0.26533314  1
  P  P266  1  0.30375447  0.24955916  0.51356083  1
  P  P267  1  0.30392327  0.25038866  0.76581393  1
  P  P268  1  0.30317611  0.58448497  0.01517836  1
  P  P269  1  0.30123635  0.58401252  0.26481992  1
  P  P270  1  0.30221026  0.58289046  0.51500793  1
  P  P271  1  0.30316666  0.58298333  0.76400596  1
  P  P272  1  0.30257807  0.91729318  0.01495114  1
  P  P273  1  0.30318185  0.91638959  0.26556162  1
  P  P274  1  0.30227740  0.91763952  0.51392225  1
  P  P275  1  0.30059802  0.91694905  0.76516589  1
  P  P276  1  0.80613167  0.25021799  0.01451146  1
  P  P277  1  0.80413045  0.24901755  0.26453305  1
  P  P278  1  0.80485315  0.25051184  0.51356311  1
  P  P279  1  0.80289639  0.24879019  0.76532971  1
  P  P280  1  0.80459753  0.58239485  0.01562621  1
  P  P281  1  0.80470873  0.58356207  0.26481535  1
  P  P282  1  0.80583062  0.58307178  0.51458560  1
  P  P283  1  0.80475557  0.58317792  0.76393754  1
  P  P284  1  0.80667140  0.91686132  0.01410013  1
  P  P285  1  0.80608126  0.91753660  0.26439419  1
  P  P286  1  0.80646057  0.91611890  0.51454566  1
  P  P287  1  0.80622971  0.91813740  0.76428059  1
  O  O288  1  0.05756576  0.24989376  0.18813408  1
  O  O289  1  0.05911544  0.25033155  0.43730544  1
  O  O290  1  0.05711137  0.25056377  0.68577316  1
  O  O291  1  0.05460892  0.24986716  0.93671337  1
  O  O292  1  0.05797417  0.58299794  0.18844278  1
  O  O293  1  0.05892901  0.58235364  0.43794876  1
  O  O294  1  0.05968854  0.58223653  0.68706550  1
  O  O295  1  0.05661294  0.58283756  0.93600162  1
  O  O296  1  0.05502314  0.91757959  0.18749489  1
  O  O297  1  0.05779527  0.91719347  0.43837703  1
  O  O298  1  0.05805131  0.91747067  0.68699882  1
  O  O299  1  0.05569026  0.91700150  0.93641176  1
  O  O300  1  0.56015852  0.24899013  0.18791446  1
  O  O301  1  0.55621294  0.24978358  0.43674635  1
  O  O302  1  0.55924224  0.24900561  0.68799009  1
  O  O303  1  0.55724615  0.24978163  0.93622707  1
  O  O304  1  0.55962595  0.58347296  0.18789201  1
  O  O305  1  0.55705159  0.58353638  0.43641066  1
  O  O306  1  0.55544150  0.58351996  0.68603874  1
  O  O307  1  0.55667308  0.58332324  0.93698726  1
  O  O308  1  0.55702353  0.91738856  0.18684927  1
  O  O309  1  0.55650568  0.91647643  0.43674143  1
  O  O310  1  0.55717934  0.91711866  0.68638470  1
  O  O311  1  0.55684599  0.91661731  0.93686887  1
  O  O312  1  0.44161694  0.08328231  0.06247655  1
  O  O313  1  0.44273603  0.08380285  0.31371725  1
  O  O314  1  0.44065685  0.08306427  0.56250940  1
  O  O315  1  0.44282224  0.08313055  0.81363587  1
  O  O316  1  0.44390053  0.41654588  0.06366258  1
  O  O317  1  0.44381592  0.41610956  0.31350928  1
  O  O318  1  0.43956771  0.41677464  0.56228035  1
  O  O319  1  0.44219787  0.41649298  0.81205700  1
  O  O320  1  0.43977609  0.75011448  0.06318980  1
  O  O321  1  0.44016433  0.74992219  0.31174377  1
  O  O322  1  0.44225421  0.74999697  0.56307431  1
  O  O323  1  0.44273935  0.75041991  0.81414764  1
  O  O324  1  0.94200747  0.08359965  0.06288846  1
  O  O325  1  0.94066980  0.08415688  0.31238356  1
  O  O326  1  0.94143337  0.08389317  0.56225150  1
  O  O327  1  0.94188998  0.08422017  0.81207396  1
  O  O328  1  0.94141596  0.41673190  0.06249644  1
  O  O329  1  0.94333636  0.41650643  0.31373755  1
  O  O330  1  0.94157023  0.41654896  0.56191844  1
  O  O331  1  0.94370798  0.41638651  0.81378752  1
  O  O332  1  0.94493835  0.74943702  0.06346548  1
  O  O333  1  0.94438333  0.74954211  0.31414178  1
  O  O334  1  0.94233011  0.74951100  0.56188944  1
  O  O335  1  0.94544586  0.75008613  0.81291716  1
  O  O336  1  0.18953989  0.08349066  0.06220427  1
  O  O337  1  0.19217483  0.08362942  0.31125076  1
  O  O338  1  0.19110197  0.08331134  0.56291261  1
  O  O339  1  0.18930894  0.08390763  0.81248935  1
  O  O340  1  0.19268439  0.41578862  0.06144363  1
  O  O341  1  0.19330149  0.41620050  0.31173851  1
  O  O342  1  0.19479474  0.41615575  0.56175836  1
  O  O343  1  0.19381476  0.41625823  0.81173940  1
  O  O344  1  0.19035811  0.75069538  0.06266209  1
  O  O345  1  0.18975408  0.75044470  0.31280762  1
  O  O346  1  0.19249125  0.75028668  0.56136021  1
  O  O347  1  0.19095754  0.75071816  0.81316336  1
  O  O348  1  0.69299564  0.08277655  0.06268699  1
  O  O349  1  0.69412359  0.08296140  0.31148668  1
  O  O350  1  0.69233457  0.08275484  0.56241621  1
  O  O351  1  0.69449568  0.08303378  0.81118594  1
  O  O352  1  0.69452428  0.41667779  0.06120883  1
  O  O353  1  0.69131911  0.41624805  0.31372076  1
  O  O354  1  0.69342329  0.41692812  0.56123776  1
  O  O355  1  0.69119817  0.41634342  0.81264766  1
  O  O356  1  0.69360659  0.75046119  0.06080954  1
  O  O357  1  0.69428551  0.75012611  0.31183475  1
  O  O358  1  0.69498733  0.75032174  0.56163184  1
  O  O359  1  0.69100768  0.75011756  0.81245493  1
  O  O360  1  0.30632971  0.24935802  0.18861704  1
  O  O361  1  0.30822532  0.24949280  0.43690990  1
  O  O362  1  0.30653851  0.24924999  0.68895660  1
  O  O363  1  0.30942933  0.24962165  0.93688393  1
  O  O364  1  0.30516791  0.58352761  0.18818301  1
  O  O365  1  0.30589387  0.58363513  0.43830657  1
  O  O366  1  0.30750050  0.58380374  0.68734072  1
  O  O367  1  0.30636798  0.58389470  0.93835737  1
  O  O368  1  0.30604983  0.91723761  0.18877083  1
  O  O369  1  0.30741598  0.91732476  0.43730190  1
  O  O370  1  0.30461370  0.91686809  0.68844673  1
  O  O371  1  0.30525484  0.91747119  0.93818738  1
  O  O372  1  0.80864487  0.24982101  0.18780874  1
  O  O373  1  0.80856367  0.25040118  0.43680512  1
  O  O374  1  0.80647930  0.24965339  0.68860596  1
  O  O375  1  0.80952484  0.24970421  0.93767711  1
  O  O376  1  0.80972181  0.58393528  0.18813212  1
  O  O377  1  0.80943406  0.58329881  0.43771726  1
  O  O378  1  0.80958505  0.58347888  0.68721953  1
  O  O379  1  0.80740086  0.58349006  0.93880486  1
  O  O380  1  0.80990451  0.91624273  0.18757039  1
  O  O381  1  0.81009890  0.91590477  0.43761417  1
  O  O382  1  0.81024857  0.91703385  0.68750831  1
  O  O383  1  0.81089603  0.91604540  0.93730899  1
  O  O384  1  0.23462624  0.24934289  0.03740501  1
  O  O385  1  0.23208138  0.24975545  0.28952794  1
  O  O386  1  0.23350495  0.24983341  0.53779602  1
  O  O387  1  0.23422642  0.25017416  0.79104447  1
  O  O388  1  0.23346393  0.58393627  0.04024891  1
  O  O389  1  0.23110929  0.58332574  0.28925370  1
  O  O390  1  0.23200429  0.58308883  0.53941489  1
  O  O391  1  0.23291838  0.58346352  0.78812139  1
  O  O392  1  0.23302113  0.91681705  0.04063494  1
  O  O393  1  0.23333319  0.91733851  0.29044632  1
  O  O394  1  0.23181068  0.91697879  0.53735755  1
  O  O395  1  0.23056886  0.91709119  0.78963989  1
  O  O396  1  0.73615772  0.25026503  0.03899987  1
  O  O397  1  0.73380453  0.24933253  0.28838280  1
  O  O398  1  0.73497823  0.25028772  0.53817239  1
  O  O399  1  0.73300717  0.24902523  0.79025911  1
  O  O400  1  0.73497869  0.58315360  0.04095734  1
  O  O401  1  0.73427529  0.58324628  0.28811428  1
  O  O402  1  0.73591049  0.58335059  0.53936633  1
  O  O403  1  0.73463369  0.58260345  0.78754495  1
  O  O404  1  0.73662620  0.91677351  0.03820504  1
  O  O405  1  0.73616053  0.91671650  0.28898497  1
  O  O406  1  0.73651818  0.91677736  0.53904168  1
  O  O407  1  0.73623973  0.91753568  0.78853216  1
  O  O408  1  0.26487455  0.08373725  0.20944317  1
  O  O409  1  0.26579353  0.08384311  0.46214235  1
  O  O410  1  0.26371593  0.08364583  0.71163660  1
  O  O411  1  0.26519959  0.08338315  0.96219860  1
  O  O412  1  0.26562476  0.41612908  0.20928385  1
  O  O413  1  0.26789261  0.41646189  0.45989035  1
  O  O414  1  0.26801644  0.41617561  0.71068222  1
  O  O415  1  0.26655908  0.41701355  0.96030464  1
  O  O416  1  0.26515982  0.75008933  0.21269156  1
  O  O417  1  0.26456462  0.75001360  0.45924915  1
  O  O418  1  0.26412891  0.75023572  0.71125198  1
  O  O419  1  0.26584173  0.75073434  0.96240926  1
  O  O420  1  0.76793927  0.08363613  0.21031247  1
  O  O421  1  0.76808875  0.08281424  0.46274900  1
  O  O422  1  0.76804775  0.08384711  0.70978979  1
  O  O423  1  0.76874446  0.08336309  0.96298498  1
  O  O424  1  0.76539011  0.41640337  0.21268069  1
  O  O425  1  0.76764035  0.41689575  0.46033243  1
  O  O426  1  0.76532814  0.41586190  0.71170062  1
  O  O427  1  0.76813479  0.41634191  0.96001953  1
  O  O428  1  0.76719632  0.75003964  0.20998505  1
  O  O429  1  0.76941708  0.74943716  0.46082335  1
  O  O430  1  0.76619204  0.75077308  0.71240920  1
  O  O431  1  0.76691514  0.74955355  0.95932210  1
  O  O432  1  0.01562355  0.08348881  0.16442785  1
  O  O433  1  0.01409959  0.08334823  0.41358004  1
  O  O434  1  0.01635416  0.08380867  0.66247052  1
  O  O435  1  0.01594829  0.08303889  0.91327131  1
  O  O436  1  0.01460047  0.41658198  0.16430865  1
  O  O437  1  0.01571701  0.41683692  0.41580076  1
  O  O438  1  0.01572347  0.41641858  0.66289037  1
  O  O439  1  0.01565072  0.41628125  0.91651089  1
  O  O440  1  0.01798793  0.75055771  0.16548505  1
  O  O441  1  0.01741760  0.74953332  0.41583845  1
  O  O442  1  0.01546683  0.75044552  0.66324916  1
  O  O443  1  0.01894845  0.75029246  0.91458658  1
  O  O444  1  0.51725526  0.08308656  0.16285046  1
  O  O445  1  0.51516438  0.08372820  0.41575000  1
  O  O446  1  0.51668221  0.08305914  0.66249785  1
  O  O447  1  0.51599107  0.08337227  0.91513572  1
  O  O448  1  0.51709584  0.41591511  0.16500556  1
  O  O449  1  0.51727138  0.41637770  0.41518318  1
  O  O450  1  0.51397682  0.41670791  0.66276016  1
  O  O451  1  0.51766360  0.41617549  0.91261281  1
  O  O452  1  0.51438283  0.75078219  0.16358556  1
  O  O453  1  0.51474220  0.74992771  0.41267988  1
  O  O454  1  0.51558901  0.74987595  0.66471514  1
  O  O455  1  0.51705270  0.74987608  0.91514061  1
  O  O456  1  0.48590100  0.24971890  0.08700936  1
  O  O457  1  0.48262663  0.24937599  0.33527455  1
  O  O458  1  0.48495124  0.24983417  0.58732812  1
  O  O459  1  0.48337891  0.24950550  0.83482596  1
  O  O460  1  0.48479005  0.58330876  0.08727725  1
  O  O461  1  0.48436394  0.58296579  0.33453970  1
  O  O462  1  0.48120041  0.58348483  0.58492905  1
  O  O463  1  0.48397660  0.58344221  0.83494164  1
  O  O464  1  0.48416265  0.91690205  0.08507992  1
  O  O465  1  0.48165574  0.91750866  0.33613234  1
  O  O466  1  0.48366088  0.91684214  0.58498962  1
  O  O467  1  0.48361311  0.91684221  0.83502105  1
  O  O468  1  0.98237055  0.24896092  0.08802085  1
  O  O469  1  0.98298888  0.25022499  0.33784046  1
  O  O470  1  0.98445589  0.24943134  0.58423658  1
  O  O471  1  0.98111111  0.24949623  0.83496137  1
  O  O472  1  0.98306193  0.58360732  0.08779473  1
  O  O473  1  0.98338424  0.58319427  0.33801928  1
  O  O474  1  0.98407224  0.58339947  0.58730933  1
  O  O475  1  0.98468067  0.58341384  0.83357262  1
  O  O476  1  0.98199631  0.91683991  0.08554098  1
  O  O477  1  0.98240440  0.91672575  0.33837563  1
  O  O478  1  0.98364191  0.91689105  0.58655831  1
  O  O479  1  0.98272784  0.91758408  0.83461746  1
  O  O480  1  0.08583632  0.31385237  0.07752606  1
  O  O481  1  0.08670876  0.31523281  0.32703004  1
  O  O482  1  0.08854626  0.31412791  0.57601471  1
  O  O483  1  0.08495883  0.31434547  0.82716694  1
  O  O484  1  0.08657932  0.64916005  0.07897993  1
  O  O485  1  0.08693680  0.64890888  0.32833843  1
  O  O486  1  0.08794558  0.64785543  0.57724670  1
  O  O487  1  0.08850411  0.64900381  0.82745671  1
  O  O488  1  0.08525388  0.98258466  0.07792653  1
  O  O489  1  0.08603443  0.98109475  0.32789192  1
  O  O490  1  0.08680632  0.98328943  0.57697547  1
  O  O491  1  0.08679121  0.98212746  0.82721995  1
  O  O492  1  0.58993646  0.31340432  0.07798394  1
  O  O493  1  0.58638567  0.31577066  0.32773344  1
  O  O494  1  0.58883027  0.31376445  0.57814266  1
  O  O495  1  0.58715985  0.31533579  0.82678555  1
  O  O496  1  0.58819587  0.64852894  0.07801147  1
  O  O497  1  0.58876287  0.64732268  0.32685018  1
  O  O498  1  0.58518410  0.64859872  0.57655273  1
  O  O499  1  0.58758933  0.64884676  0.82795657  1
  O  O500  1  0.58769928  0.98297563  0.07757241  1
  O  O501  1  0.58585561  0.98192690  0.32749348  1
  O  O502  1  0.58729309  0.98278532  0.57721485  1
  O  O503  1  0.58791531  0.98077440  0.82759759  1
  O  O504  1  0.41335408  0.01847359  0.17243836  1
  O  O505  1  0.41088872  0.01880300  0.42288191  1
  O  O506  1  0.41297398  0.01803681  0.67267444  1
  O  O507  1  0.41126054  0.01958683  0.92327822  1
  O  O508  1  0.41313375  0.35138551  0.17284887  1
  O  O509  1  0.41366711  0.35000472  0.42263601  1
  O  O510  1  0.40990716  0.35289862  0.67254199  1
  O  O511  1  0.41436144  0.35027574  0.92177074  1
  O  O512  1  0.41085694  0.68512130  0.17341467  1
  O  O513  1  0.41085516  0.68568174  0.42158862  1
  O  O514  1  0.41200472  0.68404780  0.67210446  1
  O  O515  1  0.41283233  0.68526318  0.92359887  1
  O  O516  1  0.91198417  0.01808020  0.17230637  1
  O  O517  1  0.91015120  0.01891136  0.42197301  1
  O  O518  1  0.91313007  0.01763775  0.67201235  1
  O  O519  1  0.91207220  0.01843717  0.92162581  1
  O  O520  1  0.91111291  0.35139738  0.17196979  1
  O  O521  1  0.91177597  0.35154604  0.42278517  1
  O  O522  1  0.91187974  0.35226338  0.67176590  1
  O  O523  1  0.91179693  0.35067191  0.92242485  1
  O  O524  1  0.91444154  0.68495761  0.17313018  1
  O  O525  1  0.91345121  0.68443403  0.42336394  1
  O  O526  1  0.91232112  0.68473683  0.67176625  1
  O  O527  1  0.91510611  0.68564202  0.92241407  1
  O  O528  1  0.16042194  0.01976175  0.20187095  1
  O  O529  1  0.16220592  0.01866376  0.45266408  1
  O  O530  1  0.16023802  0.01774668  0.70285221  1
  O  O531  1  0.16127678  0.01854282  0.95222655  1
  O  O532  1  0.16193187  0.35077936  0.20285020  1
  O  O533  1  0.16400168  0.35130623  0.45242423  1
  O  O534  1  0.16402410  0.35176265  0.70219504  1
  O  O535  1  0.16317035  0.35127031  0.95166788  1
  O  O536  1  0.16154582  0.68446706  0.20297109  1
  O  O537  1  0.16064651  0.68491669  0.45254572  1
  O  O538  1  0.16053327  0.68523046  0.70380832  1
  O  O539  1  0.16219526  0.68545993  0.95252772  1
  O  O540  1  0.66404880  0.01871261  0.20158593  1
  O  O541  1  0.66462231  0.01783675  0.45203444  1
  O  O542  1  0.66397915  0.01923135  0.70118550  1
  O  O543  1  0.66534262  0.01812515  0.95216074  1
  O  O544  1  0.66224622  0.35099914  0.20393953  1
  O  O545  1  0.66344936  0.35213682  0.45159189  1
  O  O546  1  0.66220234  0.34977317  0.70347321  1
  O  O547  1  0.66384804  0.35185230  0.95176769  1
  O  O548  1  0.66357627  0.68432047  0.20291162  1
  O  O549  1  0.66509599  0.68510918  0.45245486  1
  O  O550  1  0.66293576  0.68527611  0.70208506  1
  O  O551  1  0.66256596  0.68522470  0.95169520  1
  O  O552  1  0.33848141  0.31368690  0.04702595  1
  O  O553  1  0.33636795  0.31449583  0.29813256  1
  O  O554  1  0.33734312  0.31466887  0.54643102  1
  O  O555  1  0.33830549  0.31561937  0.79751300  1
  O  O556  1  0.33679993  0.64981368  0.04735366  1
  O  O557  1  0.33465787  0.64908760  0.29767948  1
  O  O558  1  0.33588595  0.64786082  0.54830028  1
  O  O559  1  0.33663651  0.64783290  0.79755191  1
  O  O560  1  0.33648177  0.98264417  0.04726946  1
  O  O561  1  0.33781386  0.98112938  0.29815889  1
  O  O562  1  0.33517030  0.98276983  0.54748329  1
  O  O563  1  0.33449633  0.98197775  0.79776744  1
  O  O564  1  0.83974016  0.31540242  0.04725231  1
  O  O565  1  0.83779779  0.31383388  0.29811315  1
  O  O566  1  0.83827279  0.31571181  0.54648985  1
  O  O567  1  0.83720380  0.31350821  0.79831073  1
  O  O568  1  0.83939609  0.64714529  0.04830287  1
  O  O569  1  0.83808646  0.64845610  0.29835015  1
  O  O570  1  0.83996284  0.64797390  0.54742905  1
  O  O571  1  0.83781298  0.64828684  0.79751621  1
  O  O572  1  0.84035133  0.98197845  0.04692054  1
  O  O573  1  0.83933520  0.98305435  0.29669913  1
  O  O574  1  0.84065038  0.98113115  0.54710377  1
  O  O575  1  0.83952725  0.98366230  0.79661430  1
  O  O576  1  0.41384040  0.14836630  0.17264766  1
  O  O577  1  0.41127369  0.14897290  0.42284813  1
  O  O578  1  0.41308039  0.14807748  0.67254265  1
  O  O579  1  0.41255153  0.14961068  0.92262669  1
  O  O580  1  0.41351555  0.48143098  0.17320604  1
  O  O581  1  0.41251036  0.48011271  0.42280120  1
  O  O582  1  0.41072754  0.48309060  0.67193911  1
  O  O583  1  0.41378234  0.48053110  0.92229825  1
  O  O584  1  0.41012579  0.81501759  0.17290938  1
  O  O585  1  0.41146020  0.81598601  0.42144626  1
  O  O586  1  0.41164326  0.81430007  0.67262975  1
  O  O587  1  0.41302731  0.81528451  0.92367238  1
  O  O588  1  0.91157916  0.14811877  0.17284397  1
  O  O589  1  0.91078340  0.14912446  0.42227778  1
  O  O590  1  0.91216372  0.14759322  0.67265591  1
  O  O591  1  0.91233535  0.14843619  0.92245248  1
  O  O592  1  0.91111886  0.48172287  0.17206317  1
  O  O593  1  0.91165375  0.48162575  0.42272137  1
  O  O594  1  0.91248864  0.48241770  0.67154301  1
  O  O595  1  0.91156673  0.48075331  0.92295216  1
  O  O596  1  0.91396340  0.81504726  0.17236332  1
  O  O597  1  0.91333952  0.81448916  0.42338643  1
  O  O598  1  0.91186833  0.81510335  0.67115781  1
  O  O599  1  0.91524338  0.81571204  0.92201659  1
  O  O600  1  0.08590171  0.18377666  0.07831028  1
  O  O601  1  0.08667248  0.18526532  0.32706237  1
  O  O602  1  0.08828404  0.18413669  0.57688935  1
  O  O603  1  0.08498679  0.18433075  0.82763803  1
  O  O604  1  0.08659307  0.51899684  0.07800846  1
  O  O605  1  0.08729724  0.51885147  0.32724427  1
  O  O606  1  0.08749531  0.51790281  0.57644522  1
  O  O607  1  0.08876963  0.51885099  0.82654923  1
  O  O608  1  0.08614857  0.85242918  0.07849424  1
  O  O609  1  0.08573105  0.85102067  0.32865400  1
  O  O610  1  0.08796264  0.85329432  0.57702172  1
  O  O611  1  0.08648477  0.85203356  0.82695604  1
  O  O612  1  0.58897610  0.18324861  0.07807699  1
  O  O613  1  0.58737150  0.18575662  0.32722289  1
  O  O614  1  0.58809302  0.18350706  0.57804364  1
  O  O615  1  0.58776615  0.18529143  0.82685903  1
  O  O616  1  0.58835309  0.51835666  0.07794330  1
  O  O617  1  0.58817795  0.51715654  0.32786366  1
  O  O618  1  0.58516793  0.51853910  0.57673708  1
  O  O619  1  0.58771383  0.51840335  0.82766352  1
  O  O620  1  0.58831719  0.85285222  0.07767547  1
  O  O621  1  0.58535835  0.85182085  0.32694139  1
  O  O622  1  0.58764210  0.85249309  0.57685119  1
  O  O623  1  0.58695901  0.85047806  0.82790677  1
  O  O624  1  0.33779298  0.18338337  0.04661352  1
  O  O625  1  0.33605031  0.18464440  0.29832869  1
  O  O626  1  0.33684095  0.18445935  0.54722083  1
  O  O627  1  0.33829322  0.18555035  0.79839060  1
  O  O628  1  0.33748337  0.51945065  0.04760249  1
  O  O629  1  0.33529442  0.51903313  0.29761770  1
  O  O630  1  0.33619946  0.51779882  0.54724666  1
  O  O631  1  0.33641616  0.51764015  0.79689811  1
  O  O632  1  0.33700740  0.85227823  0.04698846  1
  O  O633  1  0.33677615  0.85102125  0.29779613  1
  O  O634  1  0.33551134  0.85255368  0.54738666  1
  O  O635  1  0.33442463  0.85196273  0.79796484  1
  O  O636  1  0.83989985  0.18519552  0.04762063  1
  O  O637  1  0.83761368  0.18397690  0.29740128  1
  O  O638  1  0.83856962  0.18541814  0.54651300  1
  O  O639  1  0.83696403  0.18364615  0.79763132  1
  O  O640  1  0.83833386  0.51698754  0.04765200  1
  O  O641  1  0.83813084  0.51859993  0.29819249  1
  O  O642  1  0.83942030  0.51773455  0.54718488  1
  O  O643  1  0.83843518  0.51822473  0.79690688  1
  O  O644  1  0.84028572  0.85190470  0.04754792  1
  O  O645  1  0.84055203  0.85300039  0.29774623  1
  O  O646  1  0.83989871  0.85090404  0.54742496  1
  O  O647  1  0.84042338  0.85359963  0.79792393  1
  O  O648  1  0.16127764  0.14983488  0.20234281  1
  O  O649  1  0.16209557  0.14873239  0.45314629  1
  O  O650  1  0.15977453  0.14783804  0.70231699  1
  O  O651  1  0.16134855  0.14835477  0.95185138  1
  O  O652  1  0.16175230  0.48122437  0.20289493  1
  O  O653  1  0.16385097  0.48135935  0.45271619  1
  O  O654  1  0.16443829  0.48188797  0.70223417  1
  O  O655  1  0.16253781  0.48141715  0.95253700  1
  O  O656  1  0.16138410  0.81461444  0.20239221  1
  O  O657  1  0.16057687  0.81511620  0.45216368  1
  O  O658  1  0.16058868  0.81550697  0.70350041  1
  O  O659  1  0.16177904  0.81532388  0.95258243  1
  O  O660  1  0.66391218  0.14881433  0.20230387  1
  O  O661  1  0.66450160  0.14783033  0.45228161  1
  O  O662  1  0.66393592  0.14923788  0.70220759  1
  O  O663  1  0.66502248  0.14801751  0.95264637  1
  O  O664  1  0.66208143  0.48157845  0.20396128  1
  O  O665  1  0.66362672  0.48200784  0.45181291  1
  O  O666  1  0.66148810  0.48006332  0.70226746  1
  O  O667  1  0.66426412  0.48175843  0.95170618  1
  O  O668  1  0.66336679  0.81467104  0.20258519  1
  O  O669  1  0.66587346  0.81511000  0.45172331  1
  O  O670  1  0.66269328  0.81555778  0.70256240  1
  O  O671  1  0.66324587  0.81518865  0.95122709  1
