# generated using pymatgen
data_Na2MnFe(PO4)2
_symmetry_space_group_name_H-M   'P 1'
_cell_length_a   21.07596570
_cell_length_b   18.92590996
_cell_length_c   20.03561901
_cell_angle_alpha   89.99977631
_cell_angle_beta   89.99708636
_cell_angle_gamma   90.00034377
_symmetry_Int_Tables_number   1
_chemical_formula_structural   Na2MnFe(PO4)2
_chemical_formula_sum   'Na96 Mn48 Fe48 P96 O384'
_cell_volume   7991.84434875
_cell_formula_units_Z   48
loop_
 _symmetry_equiv_pos_site_id
 _symmetry_equiv_pos_as_xyz
  1  'x, y, z'
loop_
 _atom_site_type_symbol
 _atom_site_label
 _atom_site_symmetry_multiplicity
 _atom_site_fract_x
 _atom_site_fract_y
 _atom_site_fract_z
 _atom_site_occupancy
  Na  Na0  1  0.00034358  0.00040332  -0.00025507  1
  Na  Na1  1  -0.00091692  0.00032189  0.25012081  1
  Na  Na2  1  -0.00017567  0.00020241  0.50119720  1
  Na  Na3  1  0.00297858  0.00124895  0.74927496  1
  Na  Na4  1  -0.00032245  0.33243794  0.00090341  1
  Na  Na5  1  -0.00010973  0.33326747  0.25001935  1
  Na  Na6  1  0.00215475  0.33421229  0.49984510  1
  Na  Na7  1  0.00155809  0.33344922  0.74957122  1
  Na  Na8  1  -0.00118702  0.66699712  0.00046280  1
  Na  Na9  1  -0.00220581  0.66614282  0.25011381  1
  Na  Na10  1  0.00131147  0.66731670  0.49832566  1
  Na  Na11  1  0.00114732  0.66689655  0.75010883  1
  Na  Na12  1  0.49985832  -0.00006030  -0.00085910  1
  Na  Na13  1  0.50026890  0.00011418  0.24858339  1
  Na  Na14  1  0.50109033  0.00087489  0.50116739  1
  Na  Na15  1  0.50011811  0.00055581  0.75063747  1
  Na  Na16  1  0.49958335  0.33279455  0.00037148  1
  Na  Na17  1  0.50186027  0.33341716  0.25008577  1
  Na  Na18  1  0.50093639  0.33303420  0.49921753  1
  Na  Na19  1  0.50032102  0.33309350  0.75087276  1
  Na  Na20  1  0.50019554  0.66648195  0.00068348  1
  Na  Na21  1  0.50078499  0.66676158  0.25038326  1
  Na  Na22  1  0.49999318  0.66595016  0.49956047  1
  Na  Na23  1  0.49889595  0.66551756  0.74947903  1
  Na  Na24  1  0.25075578  0.00017983  0.12553511  1
  Na  Na25  1  0.25024461  0.00011758  0.37420533  1
  Na  Na26  1  0.24852682  -0.00018726  0.62447889  1
  Na  Na27  1  0.25110590  0.00115692  0.87599935  1
  Na  Na28  1  0.25175711  0.33391855  0.12601194  1
  Na  Na29  1  0.24844869  0.33266762  0.37502905  1
  Na  Na30  1  0.24869475  0.33287417  0.62441909  1
  Na  Na31  1  0.25030158  0.33259793  0.87429166  1
  Na  Na32  1  0.25205483  0.66713679  0.12423090  1
  Na  Na33  1  0.25131628  0.66680450  0.37595634  1
  Na  Na34  1  0.24972509  0.66645505  0.62554914  1
  Na  Na35  1  0.24935497  0.66600376  0.87423648  1
  Na  Na36  1  0.74876175  0.00006530  0.12554116  1
  Na  Na37  1  0.75064538  0.00079325  0.37470612  1
  Na  Na38  1  0.74841309  0.00028443  0.62465501  1
  Na  Na39  1  0.74653597  -0.00073620  0.87553586  1
  Na  Na40  1  0.74832431  0.33237707  0.12372955  1
  Na  Na41  1  0.74829475  0.33315535  0.37597837  1
  Na  Na42  1  0.74835238  0.33236447  0.62532260  1
  Na  Na43  1  0.75068305  0.33342391  0.87543571  1
  Na  Na44  1  0.75073956  0.66726433  0.12467621  1
  Na  Na45  1  0.74910141  0.66568812  0.37440084  1
  Na  Na46  1  0.74906595  0.66588577  0.62547263  1
  Na  Na47  1  0.75062407  0.66712725  0.87520598  1
  Na  Na48  1  0.00145857  0.16642471  0.00042443  1
  Na  Na49  1  0.00251683  0.16525480  0.24996226  1
  Na  Na50  1  0.00043398  0.16685575  0.50062178  1
  Na  Na51  1  0.00163249  0.16600230  0.74922584  1
  Na  Na52  1  -0.00269784  0.50069248  0.00030609  1
  Na  Na53  1  -0.00099314  0.49983662  0.25091785  1
  Na  Na54  1  0.00169690  0.49947306  0.49837255  1
  Na  Na55  1  0.00128762  0.49980399  0.75015541  1
  Na  Na56  1  -0.00046612  0.83355123  0.00022983  1
  Na  Na57  1  -0.00408831  0.83458284  0.24949889  1
  Na  Na58  1  -0.00030599  0.83368882  0.49999386  1
  Na  Na59  1  0.00319913  0.83221113  0.74991716  1
  Na  Na60  1  0.50104115  0.16580309  -0.00025950  1
  Na  Na61  1  0.50284936  0.16577644  0.24934124  1
  Na  Na62  1  0.50137644  0.16623456  0.49965266  1
  Na  Na63  1  0.49947545  0.16662596  0.75110487  1
  Na  Na64  1  0.49986149  0.50061250  0.00087936  1
  Na  Na65  1  0.50086774  0.50023632  0.24949261  1
  Na  Na66  1  0.50105529  0.50011373  0.49994250  1
  Na  Na67  1  0.49989845  0.49999682  0.74966938  1
  Na  Na68  1  0.49927951  0.83379494  -0.00045342  1
  Na  Na69  1  0.49910378  0.83391864  0.25007733  1
  Na  Na70  1  0.49879442  0.83428031  0.50023779  1
  Na  Na71  1  0.49993006  0.83367691  0.75016957  1
  Na  Na72  1  0.24985054  0.16626306  0.12589484  1
  Na  Na73  1  0.24801983  0.16703216  0.37430757  1
  Na  Na74  1  0.24964583  0.16616521  0.62502213  1
  Na  Na75  1  0.24985948  0.16643483  0.87500816  1
  Na  Na76  1  0.25091006  0.50027395  0.12587270  1
  Na  Na77  1  0.25003546  0.50013544  0.37545305  1
  Na  Na78  1  0.24913965  0.50057621  0.62466715  1
  Na  Na79  1  0.25235620  0.49925084  0.87416625  1
  Na  Na80  1  0.25260343  0.83333157  0.12431822  1
  Na  Na81  1  0.25252679  0.83268383  0.37529232  1
  Na  Na82  1  0.24816533  0.83403740  0.62473927  1
  Na  Na83  1  0.24887131  0.83417383  0.87521220  1
  Na  Na84  1  0.74698139  0.16703306  0.12438404  1
  Na  Na85  1  0.74717734  0.16717903  0.37492860  1
  Na  Na86  1  0.74842812  0.16622982  0.62598026  1
  Na  Na87  1  0.74812708  0.16627903  0.87530426  1
  Na  Na88  1  0.74978491  0.49994592  0.12426527  1
  Na  Na89  1  0.74898539  0.50011821  0.37549227  1
  Na  Na90  1  0.74847888  0.50045091  0.62536104  1
  Na  Na91  1  0.74887299  0.50039799  0.87498689  1
  Na  Na92  1  0.75135653  0.83316256  0.12543518  1
  Na  Na93  1  0.75220701  0.83293807  0.37470596  1
  Na  Na94  1  0.74898307  0.83451311  0.62401710  1
  Na  Na95  1  0.75013030  0.83360687  0.87578019  1
  Mn  Mn96  1  0.89177930  0.58317536  0.37749474  1
  Mn  Mn97  1  0.35763865  0.41644701  0.50221808  1
  Mn  Mn98  1  0.85715158  0.08428560  0.25220709  1
  Mn  Mn99  1  0.35717738  0.75100733  0.75229164  1
  Mn  Mn100  1  0.60764430  0.74975656  0.62251629  1
  Mn  Mn101  1  0.35808162  0.08325873  0.25227984  1
  Mn  Mn102  1  0.14272399  0.58394334  0.24749449  1
  Mn  Mn103  1  0.85795706  0.75047561  0.75174445  1
  Mn  Mn104  1  0.85788859  0.41639501  0.75155516  1
  Mn  Mn105  1  0.39167299  0.25015923  0.87786203  1
  Mn  Mn106  1  0.89159651  0.24970590  0.12764802  1
  Mn  Mn107  1  0.85750609  0.41641082  0.00220062  1
  Mn  Mn108  1  0.35799936  0.41593440  0.75136478  1
  Mn  Mn109  1  0.85746901  0.08301843  0.75231271  1
  Mn  Mn110  1  0.14234812  0.91615841  0.24772098  1
  Mn  Mn111  1  0.10773797  0.75070132  0.37128054  1
  Mn  Mn112  1  0.64237815  0.91630123  0.24745194  1
  Mn  Mn113  1  0.10742634  0.41687380  0.12258088  1
  Mn  Mn114  1  0.14301090  0.25054066  0.99823408  1
  Mn  Mn115  1  0.39206064  0.91736679  0.62810927  1
  Mn  Mn116  1  0.39323901  0.58352865  0.12782761  1
  Mn  Mn117  1  0.60801076  0.75001126  0.87259403  1
  Mn  Mn118  1  0.89184652  0.24921362  0.37682465  1
  Mn  Mn119  1  0.14252883  0.91660990  0.99827576  1
  Mn  Mn120  1  0.35806445  0.08369824  0.50183522  1
  Mn  Mn121  1  0.39296160  0.24961092  0.37696144  1
  Mn  Mn122  1  0.89209579  0.58302548  0.87657979  1
  Mn  Mn123  1  0.35780638  0.74970606  0.50266142  1
  Mn  Mn124  1  0.10725520  0.75040134  0.12346729  1
  Mn  Mn125  1  0.85784983  0.74965720  0.50276089  1
  Mn  Mn126  1  0.14201130  0.25037479  0.49742865  1
  Mn  Mn127  1  0.85711010  0.08280850  0.00141601  1
  Mn  Mn128  1  0.60717341  0.41679686  0.87276751  1
  Mn  Mn129  1  0.35828245  0.41709092  0.25262115  1
  Mn  Mn130  1  0.60757374  0.75087708  0.37261361  1
  Mn  Mn131  1  0.14221441  0.58280048  0.99852082  1
  Mn  Mn132  1  0.89246054  0.25072049  0.62726945  1
  Mn  Mn133  1  0.35823503  0.75009733  0.00208514  1
  Mn  Mn134  1  0.64166989  0.24986824  0.74764518  1
  Mn  Mn135  1  0.64256801  0.58388380  0.99761660  1
  Mn  Mn136  1  0.64226181  0.91659112  0.49715408  1
  Mn  Mn137  1  0.89246116  0.91760819  0.87661182  1
  Mn  Mn138  1  0.14190790  0.91628202  0.49686037  1
  Mn  Mn139  1  0.60831892  0.41640027  0.37231517  1
  Mn  Mn140  1  0.85746263  0.41603771  0.50263704  1
  Mn  Mn141  1  0.10847708  0.41652986  0.87340631  1
  Mn  Mn142  1  0.89275267  0.91605824  0.62802300  1
  Mn  Mn143  1  0.14219665  0.58323923  0.74721477  1
  Fe  Fe144  1  0.89241343  0.91769970  0.37666594  1
  Fe  Fe145  1  0.10716351  0.41623949  0.37228951  1
  Fe  Fe146  1  0.10770542  0.08342253  0.62266971  1
  Fe  Fe147  1  0.39345005  0.58344214  0.37705536  1
  Fe  Fe148  1  0.39243093  0.91627474  0.87664521  1
  Fe  Fe149  1  0.60778283  0.08261594  0.37344956  1
  Fe  Fe150  1  0.39397520  0.24958869  0.12684759  1
  Fe  Fe151  1  0.64193775  0.58371763  0.74770537  1
  Fe  Fe152  1  0.64203299  0.24947315  0.99781658  1
  Fe  Fe153  1  0.60673304  0.08401059  0.62350265  1
  Fe  Fe154  1  0.89336955  0.24934381  0.87616166  1
  Fe  Fe155  1  0.89163268  0.58340437  0.12738481  1
  Fe  Fe156  1  0.10740253  0.75040166  0.87390404  1
  Fe  Fe157  1  0.60765981  0.41648471  0.12309175  1
  Fe  Fe158  1  0.10742554  0.74918974  0.62276561  1
  Fe  Fe159  1  0.60714185  0.41600183  0.62372170  1
  Fe  Fe160  1  0.14292916  0.91726989  0.74901185  1
  Fe  Fe161  1  0.10847554  0.08322129  0.87333657  1
  Fe  Fe162  1  0.64225184  0.25085556  0.24747873  1
  Fe  Fe163  1  0.14259107  0.25011068  0.24796367  1
  Fe  Fe164  1  0.14273453  0.58346916  0.49837461  1
  Fe  Fe165  1  0.39362332  0.91693709  0.12637948  1
  Fe  Fe166  1  0.85675641  0.08396005  0.50163327  1
  Fe  Fe167  1  0.85615039  0.41645461  0.25129997  1
  Fe  Fe168  1  0.10767994  0.41742330  0.62289051  1
  Fe  Fe169  1  0.64196419  0.24992877  0.49898207  1
  Fe  Fe170  1  0.39294398  0.25017303  0.62626190  1
  Fe  Fe171  1  0.64158862  0.91607296  0.74863279  1
  Fe  Fe172  1  0.64286665  0.58307638  0.24826425  1
  Fe  Fe173  1  0.39292314  0.58247061  0.62624686  1
  Fe  Fe174  1  0.35677798  0.08326714  0.75130957  1
  Fe  Fe175  1  0.64216953  0.91645336  0.99854294  1
  Fe  Fe176  1  0.60692287  0.08270709  0.12254019  1
  Fe  Fe177  1  0.85776552  0.75074604  0.00181234  1
  Fe  Fe178  1  0.35829099  0.41615430  0.00234446  1
  Fe  Fe179  1  0.10673054  0.08334400  0.37352450  1
  Fe  Fe180  1  0.35896871  0.74993448  0.25152587  1
  Fe  Fe181  1  0.60790900  0.75060154  0.12344880  1
  Fe  Fe182  1  0.60596150  0.08286772  0.87325101  1
  Fe  Fe183  1  0.89303351  0.58324248  0.62591792  1
  Fe  Fe184  1  0.39257897  0.58370204  0.87645690  1
  Fe  Fe185  1  0.89177884  0.91714578  0.12619010  1
  Fe  Fe186  1  0.39299994  0.91693011  0.37646860  1
  Fe  Fe187  1  0.10732270  0.08279546  0.12349321  1
  Fe  Fe188  1  0.14264905  0.24948633  0.74830841  1
  Fe  Fe189  1  0.85653882  0.74934050  0.25142737  1
  Fe  Fe190  1  0.35765457  0.08425186  0.00216681  1
  Fe  Fe191  1  0.64237327  0.58322221  0.49849424  1
  P  P192  1  0.05445828  0.24919330  0.11129934  1
  P  P193  1  0.05396678  0.24973533  0.35937997  1
  P  P194  1  0.05509523  0.25015026  0.61119309  1
  P  P195  1  0.05372225  0.24918108  0.85962865  1
  P  P196  1  0.05137309  0.58359306  0.11042650  1
  P  P197  1  0.05453691  0.58279432  0.36057556  1
  P  P198  1  0.05303341  0.58333457  0.60896479  1
  P  P199  1  0.05361856  0.58400887  0.86037319  1
  P  P200  1  0.05193945  0.91723726  0.11029420  1
  P  P201  1  0.05181937  0.91762193  0.35968970  1
  P  P202  1  0.05536571  0.91653606  0.61138317  1
  P  P203  1  0.05433798  0.91696958  0.85976583  1
  P  P204  1  0.55457415  0.25005133  0.11043519  1
  P  P205  1  0.55558088  0.24888590  0.36027411  1
  P  P206  1  0.55262260  0.24978626  0.60992747  1
  P  P207  1  0.55391697  0.24919588  0.86143943  1
  P  P208  1  0.55552658  0.58366097  0.11153991  1
  P  P209  1  0.55437448  0.58347100  0.36031061  1
  P  P210  1  0.55386509  0.58231738  0.61044119  1
  P  P211  1  0.55267774  0.58349425  0.85946572  1
  P  P212  1  0.55307544  0.91625644  0.10947035  1
  P  P213  1  0.55229256  0.91749080  0.35975720  1
  P  P214  1  0.55433211  0.91758647  0.61132112  1
  P  P215  1  0.55342228  0.91714244  0.86085781  1
  P  P216  1  0.44679431  0.08367682  0.13826051  1
  P  P217  1  0.44831088  0.08259806  0.38966387  1
  P  P218  1  0.44695916  0.08466781  0.64073382  1
  P  P219  1  0.44502875  0.08252646  0.88925070  1
  P  P220  1  0.44734465  0.41553179  0.13912936  1
  P  P221  1  0.44707775  0.41742901  0.38988252  1
  P  P222  1  0.44791260  0.41596342  0.63941627  1
  P  P223  1  0.44582775  0.41754117  0.89069413  1
  P  P224  1  0.44791666  0.75088116  0.14036445  1
  P  P225  1  0.44557683  0.75004727  0.38893170  1
  P  P226  1  0.44651150  0.74919985  0.64005758  1
  P  P227  1  0.44666093  0.74983017  0.88960599  1
  P  P228  1  0.94711341  0.08280926  0.13975519  1
  P  P229  1  0.94680954  0.08322786  0.39076124  1
  P  P230  1  0.94673995  0.08360255  0.63895996  1
  P  P231  1  0.94843981  0.08419886  0.88950683  1
  P  P232  1  0.94532646  0.41711281  0.14101959  1
  P  P233  1  0.94604275  0.41586913  0.38878492  1
  P  P234  1  0.94822155  0.41791050  0.63948183  1
  P  P235  1  0.94685973  0.41514749  0.88985840  1
  P  P236  1  0.94402786  0.75032252  0.13936772  1
  P  P237  1  0.94483159  0.75090055  0.38862881  1
  P  P238  1  0.94819867  0.74875767  0.63971043  1
  P  P239  1  0.94715749  0.75056440  0.89020943  1
  P  P240  1  0.19467926  0.08349046  0.23560864  1
  P  P241  1  0.19514533  0.08335226  0.48466346  1
  P  P242  1  0.19587409  0.08319696  0.73573370  1
  P  P243  1  0.19653422  0.08345463  0.98604576  1
  P  P244  1  0.19566408  0.41627679  0.23598596  1
  P  P245  1  0.19464325  0.41778704  0.48514154  1
  P  P246  1  0.19610428  0.41576054  0.73420692  1
  P  P247  1  0.19902383  0.41666663  0.98514495  1
  P  P248  1  0.19915109  0.75029186  0.23447071  1
  P  P249  1  0.19522219  0.74903202  0.48568557  1
  P  P250  1  0.19472477  0.75110091  0.73566065  1
  P  P251  1  0.19627446  0.74983800  0.98456880  1
  P  P252  1  0.69433327  0.08397212  0.23532772  1
  P  P253  1  0.69548731  0.08413995  0.48563166  1
  P  P254  1  0.69406521  0.08219920  0.73579155  1
  P  P255  1  0.69361598  0.08269878  0.98565376  1
  P  P256  1  0.69677345  0.41677656  0.23428679  1
  P  P257  1  0.69481608  0.41657131  0.48671598  1
  P  P258  1  0.69562548  0.41710815  0.73451435  1
  P  P259  1  0.69508878  0.41591291  0.98581096  1
  P  P260  1  0.69708660  0.74946731  0.23456756  1
  P  P261  1  0.69665164  0.74910524  0.48467741  1
  P  P262  1  0.69647234  0.75040706  0.73492668  1
  P  P263  1  0.69685996  0.75123723  0.98634595  1
  P  P264  1  0.30455917  0.24979085  0.01621585  1
  P  P265  1  0.30361257  0.24976170  0.26409854  1
  P  P266  1  0.30389053  0.24987394  0.51555691  1
  P  P267  1  0.30346661  0.24893027  0.76339810  1
  P  P268  1  0.30503392  0.58248324  0.01407452  1
  P  P269  1  0.30479089  0.58438929  0.26601895  1
  P  P270  1  0.30390657  0.58306018  0.51480740  1
  P  P271  1  0.30532437  0.58315451  0.76404279  1
  P  P272  1  0.30567147  0.91786265  0.01458154  1
  P  P273  1  0.30584066  0.91606735  0.26427986  1
  P  P274  1  0.30454368  0.91705896  0.51411051  1
  P  P275  1  0.30248422  0.91796159  0.76560991  1
  P  P276  1  0.80297103  0.24886207  0.01359764  1
  P  P277  1  0.80112598  0.25091174  0.26489533  1
  P  P278  1  0.80168087  0.24890046  0.51518069  1
  P  P279  1  0.80369153  0.24961007  0.76593651  1
  P  P280  1  0.80427500  0.58419589  0.01525254  1
  P  P281  1  0.80299561  0.58270929  0.26368419  1
  P  P282  1  0.80245982  0.58285163  0.51588321  1
  P  P283  1  0.80290424  0.58323718  0.76359716  1
  P  P284  1  0.80244913  0.91682203  0.01538891  1
  P  P285  1  0.80496633  0.91644452  0.26434808  1
  P  P286  1  0.80479656  0.91821352  0.51393180  1
  P  P287  1  0.80145809  0.91692901  0.76519569  1
  O  O288  1  0.05867679  0.25005504  0.18802876  1
  O  O289  1  0.05648331  0.25013304  0.43621727  1
  O  O290  1  0.05889326  0.24970993  0.68795746  1
  O  O291  1  0.05714188  0.24979918  0.93642796  1
  O  O292  1  0.05570355  0.58351085  0.18712690  1
  O  O293  1  0.05891563  0.58357142  0.43727747  1
  O  O294  1  0.05625905  0.58331874  0.68577139  1
  O  O295  1  0.05626627  0.58324026  0.93716310  1
  O  O296  1  0.05570078  0.91650536  0.18697759  1
  O  O297  1  0.05561506  0.91665471  0.43641462  1
  O  O298  1  0.05929670  0.91689390  0.68812978  1
  O  O299  1  0.05670068  0.91711820  0.93659221  1
  O  O300  1  0.55864523  0.25044426  0.18724413  1
  O  O301  1  0.55916087  0.24986915  0.43709633  1
  O  O302  1  0.55564092  0.24991265  0.68669344  1
  O  O303  1  0.55787367  0.24976112  0.93819360  1
  O  O304  1  0.55944850  0.58357400  0.18835879  1
  O  O305  1  0.55890425  0.58340300  0.43705086  1
  O  O306  1  0.55835184  0.58328523  0.68718907  1
  O  O307  1  0.55679672  0.58376777  0.93623168  1
  O  O308  1  0.55651107  0.91615101  0.18615764  1
  O  O309  1  0.55595227  0.91687267  0.43652347  1
  O  O310  1  0.55796460  0.91654348  0.68810267  1
  O  O311  1  0.55801433  0.91619891  0.93753769  1
  O  O312  1  0.44237207  0.08392641  0.06158158  1
  O  O313  1  0.44467179  0.08334999  0.31295379  1
  O  O314  1  0.44355953  0.08376630  0.56398294  1
  O  O315  1  0.44041634  0.08334518  0.81256727  1
  O  O316  1  0.44269092  0.41616640  0.06245490  1
  O  O317  1  0.44423974  0.41690496  0.31304129  1
  O  O318  1  0.44450227  0.41610932  0.56273347  1
  O  O319  1  0.44311247  0.41622200  0.81385712  1
  O  O320  1  0.44407348  0.74995874  0.06364154  1
  O  O321  1  0.44257090  0.74984825  0.31212763  1
  O  O322  1  0.44371309  0.74982670  0.56321579  1
  O  O323  1  0.44362920  0.75011235  0.81284842  1
  O  O324  1  0.94319731  0.08366387  0.06307859  1
  O  O325  1  0.94294509  0.08414257  0.31400485  1
  O  O326  1  0.94134396  0.08388179  0.56236307  1
  O  O327  1  0.94443266  0.08337987  0.81281858  1
  O  O328  1  0.94238812  0.41604486  0.06415880  1
  O  O329  1  0.94026615  0.41596256  0.31219274  1
  O  O330  1  0.94428026  0.41691416  0.56274184  1
  O  O331  1  0.94407222  0.41594426  0.81305983  1
  O  O332  1  0.94073115  0.75042964  0.06247546  1
  O  O333  1  0.94010036  0.74961816  0.31185365  1
  O  O334  1  0.94428002  0.74970730  0.56297965  1
  O  O335  1  0.94363837  0.75051825  0.81341840  1
  O  O336  1  0.19145587  0.08288221  0.06272632  1
  O  O337  1  0.19031953  0.08260597  0.31238395  1
  O  O338  1  0.19103983  0.08322093  0.56151047  1
  O  O339  1  0.19200782  0.08349387  0.81256263  1
  O  O340  1  0.19466705  0.41711011  0.06186083  1
  O  O341  1  0.19136149  0.41655917  0.31278031  1
  O  O342  1  0.19071309  0.41729269  0.56197980  1
  O  O343  1  0.19358025  0.41646411  0.81105600  1
  O  O344  1  0.19309192  0.75006490  0.06138957  1
  O  O345  1  0.19477879  0.75063725  0.31121886  1
  O  O346  1  0.19093254  0.74949224  0.56249637  1
  O  O347  1  0.19095490  0.75001066  0.81245725  1
  O  O348  1  0.68995760  0.08278447  0.06255870  1
  O  O349  1  0.69082664  0.08260051  0.31215788  1
  O  O350  1  0.69083310  0.08354710  0.56235721  1
  O  O351  1  0.68976912  0.08298094  0.81258674  1
  O  O352  1  0.69111579  0.41628531  0.06259792  1
  O  O353  1  0.69377838  0.41690736  0.31106001  1
  O  O354  1  0.69078911  0.41629866  0.56347158  1
  O  O355  1  0.69280339  0.41654838  0.81134028  1
  O  O356  1  0.69200951  0.75075986  0.06300252  1
  O  O357  1  0.69335839  0.75035146  0.31129674  1
  O  O358  1  0.69339066  0.75003408  0.56145175  1
  O  O359  1  0.69401104  0.75024750  0.81178783  1
  O  O360  1  0.30932313  0.24961586  0.18749904  1
  O  O361  1  0.30729969  0.24980864  0.43872144  1
  O  O362  1  0.30839448  0.24970675  0.68676309  1
  O  O363  1  0.30658995  0.24946016  0.93927768  1
  O  O364  1  0.30801935  0.58353584  0.18915877  1
  O  O365  1  0.30910391  0.58299190  0.43814575  1
  O  O366  1  0.30973730  0.58302937  0.68723669  1
  O  O367  1  0.30866024  0.58329961  0.93725866  1
  O  O368  1  0.31032402  0.91700753  0.18745497  1
  O  O369  1  0.30929824  0.91737313  0.43733908  1
  O  O370  1  0.30588457  0.91710200  0.68880331  1
  O  O371  1  0.30935870  0.91692761  0.93777072  1
  O  O372  1  0.80498388  0.24981546  0.18815615  1
  O  O373  1  0.80547289  0.24951960  0.43847896  1
  O  O374  1  0.80714188  0.24944990  0.68908390  1
  O  O375  1  0.80855075  0.24868547  0.93701528  1
  O  O376  1  0.80724698  0.58293878  0.18698799  1
  O  O377  1  0.80644005  0.58279136  0.43909276  1
  O  O378  1  0.80838295  0.58313330  0.68698153  1
  O  O379  1  0.80702877  0.58341172  0.93835887  1
  O  O380  1  0.80860837  0.91769012  0.18752795  1
  O  O381  1  0.80893357  0.91776939  0.43712408  1
  O  O382  1  0.80592657  0.91718990  0.68846355  1
  O  O383  1  0.80627485  0.91765747  0.93866101  1
  O  O384  1  0.23502158  0.25004379  0.04185321  1
  O  O385  1  0.23314726  0.24959306  0.28734628  1
  O  O386  1  0.23398178  0.24985663  0.53986074  1
  O  O387  1  0.23319282  0.24927685  0.78745616  1
  O  O388  1  0.23524345  0.58345898  0.03919838  1
  O  O389  1  0.23500224  0.58354113  0.29082739  1
  O  O390  1  0.23345651  0.58335182  0.53817188  1
  O  O391  1  0.23507414  0.58273572  0.78763074  1
  O  O392  1  0.23562590  0.91686976  0.03898671  1
  O  O393  1  0.23567561  0.91671322  0.28822713  1
  O  O394  1  0.23441989  0.91678263  0.53775707  1
  O  O395  1  0.23249764  0.91785084  0.79033219  1
  O  O396  1  0.73243337  0.24891041  0.03677592  1
  O  O397  1  0.73106458  0.25065044  0.28937468  1
  O  O398  1  0.73162793  0.24934991  0.53985642  1
  O  O399  1  0.73371581  0.24988919  0.79021931  1
  O  O400  1  0.73446091  0.58365999  0.04009731  1
  O  O401  1  0.73272556  0.58290401  0.28799488  1
  O  O402  1  0.73220666  0.58297751  0.53974439  1
  O  O403  1  0.73248408  0.58342461  0.78728550  1
  O  O404  1  0.73234820  0.91700777  0.03995296  1
  O  O405  1  0.73489127  0.91676030  0.28870579  1
  O  O406  1  0.73469104  0.91756849  0.53790813  1
  O  O407  1  0.73139885  0.91657493  0.78951537  1
  O  O408  1  0.26495881  0.08304836  0.21197172  1
  O  O409  1  0.26520047  0.08375916  0.46052956  1
  O  O410  1  0.26614469  0.08295109  0.71134304  1
  O  O411  1  0.26700578  0.08393445  0.96272047  1
  O  O412  1  0.26581717  0.41710165  0.21209877  1
  O  O413  1  0.26474708  0.41630883  0.46105629  1
  O  O414  1  0.26578738  0.41657219  0.70884818  1
  O  O415  1  0.26898574  0.41570167  0.96055516  1
  O  O416  1  0.26924004  0.75022665  0.21019167  1
  O  O417  1  0.26534400  0.74958882  0.46188699  1
  O  O418  1  0.26474460  0.75043032  0.71113259  1
  O  O419  1  0.26607603  0.75011035  0.95971366  1
  O  O420  1  0.76434877  0.08369491  0.21085977  1
  O  O421  1  0.76576832  0.08374577  0.46158143  1
  O  O422  1  0.76419171  0.08326187  0.71174260  1
  O  O423  1  0.76362792  0.08275588  0.96118330  1
  O  O424  1  0.76665870  0.41638593  0.20906415  1
  O  O425  1  0.76473055  0.41673505  0.46199935  1
  O  O426  1  0.76532303  0.41623578  0.70924959  1
  O  O427  1  0.76505221  0.41673001  0.96139785  1
  O  O428  1  0.76729095  0.74987456  0.21042677  1
  O  O429  1  0.76630870  0.74910134  0.45954030  1
  O  O430  1  0.76592826  0.75054326  0.70890351  1
  O  O431  1  0.76718187  0.75083273  0.96240263  1
  O  O432  1  0.01717512  0.08277263  0.16432829  1
  O  O433  1  0.01698089  0.08376351  0.41505580  1
  O  O434  1  0.01733973  0.08343638  0.66198167  1
  O  O435  1  0.01853807  0.08348560  0.91401733  1
  O  O436  1  0.01511420  0.41660602  0.16590353  1
  O  O437  1  0.01662496  0.41602287  0.41166291  1
  O  O438  1  0.01828134  0.41728961  0.66399362  1
  O  O439  1  0.01637979  0.41613550  0.91569678  1
  O  O440  1  0.01392027  0.75037370  0.16438586  1
  O  O441  1  0.01499407  0.75077668  0.41234883  1
  O  O442  1  0.01828052  0.74915614  0.66406771  1
  O  O443  1  0.01725315  0.75052085  0.91475030  1
  O  O444  1  0.51723561  0.08322325  0.16198684  1
  O  O445  1  0.51824604  0.08304726  0.41455858  1
  O  O446  1  0.51703024  0.08405480  0.66530986  1
  O  O447  1  0.51549740  0.08283646  0.91278878  1
  O  O448  1  0.51767909  0.41631399  0.16302364  1
  O  O449  1  0.51674345  0.41689520  0.41492221  1
  O  O450  1  0.51778953  0.41607170  0.66469769  1
  O  O451  1  0.51551515  0.41691438  0.91593765  1
  O  O452  1  0.51808773  0.75046798  0.16474873  1
  O  O453  1  0.51529609  0.75021740  0.41428926  1
  O  O454  1  0.51611031  0.74952438  0.66542140  1
  O  O455  1  0.51626216  0.75008865  0.91512354  1
  O  O456  1  0.48428249  0.24945216  0.08632088  1
  O  O457  1  0.48562984  0.24967885  0.33565947  1
  O  O458  1  0.48274450  0.24962048  0.58460968  1
  O  O459  1  0.48389263  0.24966861  0.83716625  1
  O  O460  1  0.48549303  0.58371229  0.08726614  1
  O  O461  1  0.48403837  0.58348732  0.33659230  1
  O  O462  1  0.48345373  0.58281168  0.58662341  1
  O  O463  1  0.48252110  0.58305435  0.83535670  1
  O  O464  1  0.48292959  0.91680096  0.08490995  1
  O  O465  1  0.48242822  0.91716724  0.33483606  1
  O  O466  1  0.48439383  0.91758697  0.58679186  1
  O  O467  1  0.48299629  0.91689894  0.83709436  1
  O  O468  1  0.98441175  0.24947625  0.08710804  1
  O  O469  1  0.98425016  0.24928753  0.33399655  1
  O  O470  1  0.98520091  0.25045135  0.58634796  1
  O  O471  1  0.98380069  0.24947385  0.83457784  1
  O  O472  1  0.98120332  0.58371301  0.08634438  1
  O  O473  1  0.98432726  0.58299116  0.33681404  1
  O  O474  1  0.98315265  0.58337515  0.58363530  1
  O  O475  1  0.98401509  0.58351773  0.83475587  1
  O  O476  1  0.98192447  0.91700570  0.08550677  1
  O  O477  1  0.98175886  0.91749352  0.33524507  1
  O  O478  1  0.98536236  0.91663893  0.58691993  1
  O  O479  1  0.98478790  0.91704280  0.83384088  1
  O  O480  1  0.08801524  0.31419129  0.07782331  1
  O  O481  1  0.08825737  0.31476738  0.32684358  1
  O  O482  1  0.08883475  0.31537318  0.57856348  1
  O  O483  1  0.08817429  0.31407505  0.82697927  1
  O  O484  1  0.08525793  0.64865187  0.07781162  1
  O  O485  1  0.08780821  0.64785011  0.32692749  1
  O  O486  1  0.08740357  0.64835501  0.57649132  1
  O  O487  1  0.08756308  0.64933960  0.82828866  1
  O  O488  1  0.08596507  0.98234207  0.07776747  1
  O  O489  1  0.08559529  0.98292612  0.32752977  1
  O  O490  1  0.08898487  0.98165554  0.57827634  1
  O  O491  1  0.08893485  0.98201737  0.82756013  1
  O  O492  1  0.58793093  0.31514900  0.07714021  1
  O  O493  1  0.58972190  0.31372073  0.32698734  1
  O  O494  1  0.58685537  0.31472753  0.57726269  1
  O  O495  1  0.58760646  0.31406054  0.82820500  1
  O  O496  1  0.58887519  0.64899321  0.07859740  1
  O  O497  1  0.58801127  0.64841879  0.32704786  1
  O  O498  1  0.58753277  0.64711306  0.57671062  1
  O  O499  1  0.58634997  0.64857577  0.82646279  1
  O  O500  1  0.58717404  0.98116978  0.07669007  1
  O  O501  1  0.58628872  0.98248587  0.32727480  1
  O  O502  1  0.58796943  0.98301958  0.57898673  1
  O  O503  1  0.58668933  0.98236473  0.82781512  1
  O  O504  1  0.41339165  0.01854815  0.17133056  1
  O  O505  1  0.41452625  0.01746499  0.42227674  1
  O  O506  1  0.41260576  0.01993599  0.67389861  1
  O  O507  1  0.41182320  0.01740126  0.92239641  1
  O  O508  1  0.41438032  0.35020168  0.17234401  1
  O  O509  1  0.41274963  0.35239448  0.42218176  1
  O  O510  1  0.41408206  0.35072468  0.67208343  1
  O  O511  1  0.41123648  0.35270492  0.92341290  1
  O  O512  1  0.41378277  0.68611633  0.17359252  1
  O  O513  1  0.41188855  0.68470482  0.42162944  1
  O  O514  1  0.41237218  0.68400075  0.67188632  1
  O  O515  1  0.41280481  0.68450833  0.92194700  1
  O  O516  1  0.91314933  0.01771295  0.17215391  1
  O  O517  1  0.91309153  0.01800243  0.42325751  1
  O  O518  1  0.91373430  0.01851226  0.67270756  1
  O  O519  1  0.91420784  0.01930356  0.92240297  1
  O  O520  1  0.91072973  0.35227648  0.17372890  1
  O  O521  1  0.91321099  0.35068983  0.42253881  1
  O  O522  1  0.91407417  0.35308678  0.67246977  1
  O  O523  1  0.91315134  0.34959557  0.92195909  1
  O  O524  1  0.91012985  0.68515822  0.17224456  1
  O  O525  1  0.91153287  0.68583420  0.42226981  1
  O  O526  1  0.91456393  0.68340204  0.67199346  1
  O  O527  1  0.91288204  0.68565390  0.92278030  1
  O  O528  1  0.16111072  0.01859185  0.20188566  1
  O  O529  1  0.16151157  0.01837795  0.45139097  1
  O  O530  1  0.16220955  0.01808875  0.70278282  1
  O  O531  1  0.16338418  0.01845985  0.95230278  1
  O  O532  1  0.16262331  0.35093752  0.20291351  1
  O  O533  1  0.16023164  0.35309910  0.45201920  1
  O  O534  1  0.16218686  0.35043965  0.70221472  1
  O  O535  1  0.16480990  0.35164975  0.95262147  1
  O  O536  1  0.16527025  0.68517891  0.20183871  1
  O  O537  1  0.16201982  0.68380130  0.45269530  1
  O  O538  1  0.16073114  0.68625208  0.70218420  1
  O  O539  1  0.16213401  0.68484496  0.95205426  1
  O  O540  1  0.66036559  0.01914448  0.20193030  1
  O  O541  1  0.66185518  0.01925375  0.45182488  1
  O  O542  1  0.66090446  0.01689813  0.70284513  1
  O  O543  1  0.65990875  0.01740527  0.95302449  1
  O  O544  1  0.66231531  0.35179612  0.20183946  1
  O  O545  1  0.66131580  0.35137584  0.45372329  1
  O  O546  1  0.66087181  0.35225644  0.70202272  1
  O  O547  1  0.66183721  0.35058754  0.95297741  1
  O  O548  1  0.66341522  0.68437623  0.20192001  1
  O  O549  1  0.66244225  0.68386064  0.45283809  1
  O  O550  1  0.66213498  0.68518722  0.70288361  1
  O  O551  1  0.66346637  0.68627322  0.95272054  1
  O  O552  1  0.33938188  0.31476475  0.04811701  1
  O  O553  1  0.33666042  0.31484750  0.29768722  1
  O  O554  1  0.33794295  0.31486729  0.54830703  1
  O  O555  1  0.33699986  0.31388297  0.79694517  1
  O  O556  1  0.33938626  0.64730763  0.04702023  1
  O  O557  1  0.33856681  0.64981644  0.29810042  1
  O  O558  1  0.33751526  0.64784035  0.54839397  1
  O  O559  1  0.33850236  0.64828561  0.79748501  1
  O  O560  1  0.33887287  0.98328850  0.04738660  1
  O  O561  1  0.33969868  0.98093832  0.29778518  1
  O  O562  1  0.33769371  0.98223838  0.54749690  1
  O  O563  1  0.33669087  0.98299219  0.79787277  1
  O  O564  1  0.83604367  0.31396669  0.04719219  1
  O  O565  1  0.83481939  0.31606187  0.29745761  1
  O  O566  1  0.83566888  0.31395754  0.54807820  1
  O  O567  1  0.83797872  0.31463811  0.79824227  1
  O  O568  1  0.83809646  0.64951100  0.04735385  1
  O  O569  1  0.83648602  0.64779025  0.29687931  1
  O  O570  1  0.83642721  0.64781150  0.54877339  1
  O  O571  1  0.83627066  0.64832503  0.79695392  1
  O  O572  1  0.83641414  0.98176132  0.04855189  1
  O  O573  1  0.83881984  0.98131925  0.29777890  1
  O  O574  1  0.83791275  0.98350415  0.54698008  1
  O  O575  1  0.83498214  0.98202335  0.79835577  1
  O  O576  1  0.41390069  0.14872518  0.17214811  1
  O  O577  1  0.41431998  0.14762638  0.42250098  1
  O  O578  1  0.41317480  0.14996386  0.67310756  1
  O  O579  1  0.41169521  0.14748889  0.92307511  1
  O  O580  1  0.41364498  0.48046417  0.17243959  1
  O  O581  1  0.41323624  0.48269618  0.42219659  1
  O  O582  1  0.41379734  0.48097810  0.67196193  1
  O  O583  1  0.41202610  0.48296776  0.92263650  1
  O  O584  1  0.41412260  0.81616742  0.17266272  1
  O  O585  1  0.41157624  0.81526590  0.42132787  1
  O  O586  1  0.41226736  0.81432849  0.67251311  1
  O  O587  1  0.41232194  0.81491017  0.92189334  1
  O  O588  1  0.91344118  0.14780251  0.17315980  1
  O  O589  1  0.91263015  0.14808759  0.42386292  1
  O  O590  1  0.91373499  0.14865376  0.67260582  1
  O  O591  1  0.91486819  0.14942041  0.92222825  1
  O  O592  1  0.91133896  0.48248448  0.17305097  1
  O  O593  1  0.91292174  0.48089315  0.42249377  1
  O  O594  1  0.91472485  0.48331390  0.67193044  1
  O  O595  1  0.91187163  0.47994211  0.92200124  1
  O  O596  1  0.90996491  0.81547070  0.17176354  1
  O  O597  1  0.91155332  0.81627812  0.42133631  1
  O  O598  1  0.91436154  0.81369874  0.67295052  1
  O  O599  1  0.91316584  0.81571510  0.92281831  1
  O  O600  1  0.08798599  0.18388181  0.07866409  1
  O  O601  1  0.08849453  0.18457668  0.32748576  1
  O  O602  1  0.08868008  0.18499930  0.57815890  1
  O  O603  1  0.08790905  0.18404187  0.82722360  1
  O  O604  1  0.08501630  0.51846376  0.07736504  1
  O  O605  1  0.08782329  0.51743466  0.32779926  1
  O  O606  1  0.08736112  0.51828169  0.57656177  1
  O  O607  1  0.08813117  0.51912287  0.82785666  1
  O  O608  1  0.08596083  0.85225235  0.07747683  1
  O  O609  1  0.08570385  0.85277532  0.32631237  1
  O  O610  1  0.08871399  0.85116935  0.57846649  1
  O  O611  1  0.08881379  0.85179418  0.82782635  1
  O  O612  1  0.58833084  0.18496391  0.07751877  1
  O  O613  1  0.58899873  0.18354212  0.32779887  1
  O  O614  1  0.58689518  0.18463649  0.57754748  1
  O  O615  1  0.58717134  0.18391793  0.82859185  1
  O  O616  1  0.58883209  0.51845631  0.07849029  1
  O  O617  1  0.58794288  0.51847359  0.32696291  1
  O  O618  1  0.58704689  0.51699439  0.57756092  1
  O  O619  1  0.58675707  0.51859163  0.82669103  1
  O  O620  1  0.58677000  0.85104700  0.07666312  1
  O  O621  1  0.58627377  0.85245415  0.32692724  1
  O  O622  1  0.58800352  0.85274279  0.57777350  1
  O  O623  1  0.58707949  0.85237280  0.82714670  1
  O  O624  1  0.33887249  0.18462195  0.04849224  1
  O  O625  1  0.33673044  0.18467703  0.29773729  1
  O  O626  1  0.33795800  0.18493776  0.54829430  1
  O  O627  1  0.33660978  0.18377558  0.79677512  1
  O  O628  1  0.33839999  0.51707133  0.04682100  1
  O  O629  1  0.33948177  0.51965982  0.29877873  1
  O  O630  1  0.33711143  0.51790767  0.54831923  1
  O  O631  1  0.33918505  0.51829860  0.79712721  1
  O  O632  1  0.34006659  0.85318840  0.04772889  1
  O  O633  1  0.33921552  0.85079697  0.29711107  1
  O  O634  1  0.33803898  0.85205745  0.54736745  1
  O  O635  1  0.33660008  0.85301523  0.79855069  1
  O  O636  1  0.83585134  0.18381677  0.04753495  1
  O  O637  1  0.83490424  0.18586128  0.29797272  1
  O  O638  1  0.83543246  0.18377659  0.54780743  1
  O  O639  1  0.83755963  0.18454094  0.79876396  1
  O  O640  1  0.83866285  0.51936221  0.04799555  1
  O  O641  1  0.83610764  0.51741224  0.29689583  1
  O  O642  1  0.83631533  0.51788951  0.54884005  1
  O  O643  1  0.83600088  0.51806143  0.79709545  1
  O  O644  1  0.83662320  0.85180794  0.04777803  1
  O  O645  1  0.83847169  0.85103979  0.29668943  1
  O  O646  1  0.83845101  0.85310357  0.54712508  1
  O  O647  1  0.83553149  0.85191159  0.79773169  1
  O  O648  1  0.16133800  0.14872661  0.20265426  1
  O  O649  1  0.16116260  0.14829040  0.45183565  1
  O  O650  1  0.16235385  0.14822598  0.70238836  1
  O  O651  1  0.16307568  0.14842817  0.95263193  1
  O  O652  1  0.16203821  0.48126681  0.20268812  1
  O  O653  1  0.16168011  0.48321417  0.45223294  1
  O  O654  1  0.16139988  0.48063423  0.70166566  1
  O  O655  1  0.16553112  0.48179873  0.95210893  1
  O  O656  1  0.16525154  0.81529538  0.20156190  1
  O  O657  1  0.16172279  0.81401415  0.45215408  1
  O  O658  1  0.16155394  0.81664006  0.70320531  1
  O  O659  1  0.16194670  0.81488823  0.95217773  1
  O  O660  1  0.66063996  0.14926657  0.20294232  1
  O  O661  1  0.66195247  0.14928305  0.45275090  1
  O  O662  1  0.65997462  0.14700779  0.70239365  1
  O  O663  1  0.65962782  0.14760817  0.95265222  1
  O  O664  1  0.66271126  0.48185835  0.20172798  1
  O  O665  1  0.66123012  0.48178711  0.45376924  1
  O  O666  1  0.66153768  0.48228034  0.70230764  1
  O  O667  1  0.66128255  0.48099137  0.95292983  1
  O  O668  1  0.66319504  0.81442874  0.20138879  1
  O  O669  1  0.66275601  0.81429036  0.45188770  1
  O  O670  1  0.66201127  0.81552749  0.70292402  1
  O  O671  1  0.66354394  0.81644066  0.95323690  1
