# generated using pymatgen
data_Na2MnFe(PO4)2
_symmetry_space_group_name_H-M   'P 1'
_cell_length_a   21.08839170
_cell_length_b   18.94030155
_cell_length_c   20.04672157
_cell_angle_alpha   90.00005876
_cell_angle_beta   89.99725498
_cell_angle_gamma   90.00094404
_symmetry_Int_Tables_number   1
_chemical_formula_structural   Na2MnFe(PO4)2
_chemical_formula_sum   'Na96 Mn48 Fe48 P96 O384'
_cell_volume   8007.07150330
_cell_formula_units_Z   48
loop_
 _symmetry_equiv_pos_site_id
 _symmetry_equiv_pos_as_xyz
  1  'x, y, z'
loop_
 _atom_site_type_symbol
 _atom_site_label
 _atom_site_symmetry_multiplicity
 _atom_site_fract_x
 _atom_site_fract_y
 _atom_site_fract_z
 _atom_site_occupancy
  Na  Na0  1  -0.00168094  -0.00024063  0.00046641  1
  Na  Na1  1  0.00017839  0.00028093  0.24871284  1
  Na  Na2  1  -0.00062596  -0.00098300  0.50090489  1
  Na  Na3  1  -0.00015851  -0.00014929  0.75002937  1
  Na  Na4  1  0.00023104  0.33355974  -0.00093419  1
  Na  Na5  1  0.00082816  0.33371136  0.25031090  1
  Na  Na6  1  0.00110066  0.33426491  0.50021432  1
  Na  Na7  1  -0.00049909  0.33307388  0.75020031  1
  Na  Na8  1  -0.00013377  0.66591109  0.00086165  1
  Na  Na9  1  -0.00037318  0.66622108  0.24865253  1
  Na  Na10  1  -0.00065029  0.66642158  0.49973909  1
  Na  Na11  1  -0.00132955  0.66587634  0.75125545  1
  Na  Na12  1  0.49920783  -0.00102257  0.00034733  1
  Na  Na13  1  0.50248166  0.00125691  0.24955841  1
  Na  Na14  1  0.49996008  -0.00004467  0.50000199  1
  Na  Na15  1  0.50038062  0.00026655  0.74976805  1
  Na  Na16  1  0.50112921  0.33399839  -0.00113903  1
  Na  Na17  1  0.49922614  0.33242224  0.24969860  1
  Na  Na18  1  0.50146383  0.33355589  0.50122579  1
  Na  Na19  1  0.50080952  0.33367026  0.75074109  1
  Na  Na20  1  0.49923070  0.66633136  -0.00033056  1
  Na  Na21  1  0.50021709  0.66656763  0.25075659  1
  Na  Na22  1  0.50115226  0.66720509  0.49875607  1
  Na  Na23  1  0.49954104  0.66648339  0.75031876  1
  Na  Na24  1  0.24914495  -0.00065490  0.12491796  1
  Na  Na25  1  0.25091278  0.00008439  0.37468784  1
  Na  Na26  1  0.25018755  -0.00018117  0.62442492  1
  Na  Na27  1  0.25037833  0.00021030  0.87534576  1
  Na  Na28  1  0.24998858  0.33392360  0.12621643  1
  Na  Na29  1  0.24981733  0.33294970  0.37411165  1
  Na  Na30  1  0.25051449  0.33352556  0.62434373  1
  Na  Na31  1  0.24884367  0.33327993  0.87563915  1
  Na  Na32  1  0.24854646  0.66523397  0.12415644  1
  Na  Na33  1  0.24977409  0.66703777  0.37608221  1
  Na  Na34  1  0.25113024  0.66693595  0.62527934  1
  Na  Na35  1  0.25181077  0.66687513  0.87376164  1
  Na  Na36  1  0.75048675  0.00023599  0.12615003  1
  Na  Na37  1  0.74862514  -0.00042612  0.37533404  1
  Na  Na38  1  0.75041715  0.00020386  0.62397415  1
  Na  Na39  1  0.75162773  0.00060212  0.87526149  1
  Na  Na40  1  0.74998858  0.33384814  0.12457270  1
  Na  Na41  1  0.74854118  0.33324288  0.37404555  1
  Na  Na42  1  0.74898830  0.33371693  0.62539857  1
  Na  Na43  1  0.74820932  0.33281879  0.87626954  1
  Na  Na44  1  0.75094153  0.66708580  0.12542790  1
  Na  Na45  1  0.74949449  0.66638754  0.37555703  1
  Na  Na46  1  0.74833158  0.66567068  0.62503137  1
  Na  Na47  1  0.75144504  0.66730351  0.87382750  1
  Na  Na48  1  -0.00145674  0.16794064  -0.00030266  1
  Na  Na49  1  -0.00008753  0.16665449  0.24917126  1
  Na  Na50  1  0.00103826  0.16647058  0.50078267  1
  Na  Na51  1  0.00001333  0.16711480  0.75042759  1
  Na  Na52  1  0.00169099  0.49880073  0.00019614  1
  Na  Na53  1  0.00120300  0.49949086  0.24944512  1
  Na  Na54  1  -0.00088726  0.50021902  0.49990845  1
  Na  Na55  1  -0.00242142  0.50080276  0.75079120  1
  Na  Na56  1  -0.00182842  0.83430125  0.00051263  1
  Na  Na57  1  -0.00009434  0.83337440  0.24911976  1
  Na  Na58  1  -0.00064852  0.83391481  0.50019356  1
  Na  Na59  1  0.00060822  0.83309365  0.75019302  1
  Na  Na60  1  0.50174456  0.16636994  -0.00098985  1
  Na  Na61  1  0.50050546  0.16716431  0.25057900  1
  Na  Na62  1  0.50111516  0.16687586  0.50082962  1
  Na  Na63  1  0.50292377  0.16644819  0.74991328  1
  Na  Na64  1  0.49970986  0.49902104  -0.00024210  1
  Na  Na65  1  0.50210968  0.49860817  0.24954017  1
  Na  Na66  1  0.50041012  0.49972394  0.50005345  1
  Na  Na67  1  0.49704682  0.50101150  0.75033387  1
  Na  Na68  1  0.49999509  0.83271658  0.00063534  1
  Na  Na69  1  0.49940881  0.83379647  0.24965419  1
  Na  Na70  1  0.50108554  0.83236921  0.49915868  1
  Na  Na71  1  0.49985214  0.83281389  0.74994211  1
  Na  Na72  1  0.25040139  0.16703269  0.12652605  1
  Na  Na73  1  0.25124635  0.16667678  0.37376475  1
  Na  Na74  1  0.24970281  0.16710394  0.62425278  1
  Na  Na75  1  0.24877528  0.16781093  0.87518822  1
  Na  Na76  1  0.24718807  0.50004839  0.12451166  1
  Na  Na77  1  0.24785545  0.50064238  0.37476954  1
  Na  Na78  1  0.25212503  0.49911151  0.62614141  1
  Na  Na79  1  0.25082985  0.49939954  0.87456551  1
  Na  Na80  1  0.25131775  0.83305557  0.12413626  1
  Na  Na81  1  0.25091830  0.83316934  0.37645156  1
  Na  Na82  1  0.24976482  0.83378850  0.62363696  1
  Na  Na83  1  0.24996528  0.83356534  0.87528466  1
  Na  Na84  1  0.75003125  0.16686280  0.12594169  1
  Na  Na85  1  0.74784443  0.16710995  0.37398596  1
  Na  Na86  1  0.74643312  0.16836965  0.62471557  1
  Na  Na87  1  0.75098460  0.16644953  0.87597516  1
  Na  Na88  1  0.74989155  0.49995882  0.12432584  1
  Na  Na89  1  0.74937148  0.50014690  0.37498973  1
  Na  Na90  1  0.75137226  0.49947906  0.62563270  1
  Na  Na91  1  0.75062739  0.49966969  0.87546276  1
  Na  Na92  1  0.75117017  0.83279712  0.12584064  1
  Na  Na93  1  0.74929152  0.83364370  0.37597071  1
  Na  Na94  1  0.74939098  0.83299379  0.62433058  1
  Na  Na95  1  0.74969218  0.83359087  0.87383371  1
  Mn  Mn96  1  0.35838757  0.75005492  0.50237517  1
  Mn  Mn97  1  0.60858437  0.08273625  0.87277578  1
  Mn  Mn98  1  0.35794452  0.74924630  0.00220580  1
  Mn  Mn99  1  0.85777398  0.74967259  0.75197852  1
  Mn  Mn100  1  0.39233261  0.24982053  0.87746926  1
  Mn  Mn101  1  0.89248357  0.24966292  0.37771247  1
  Mn  Mn102  1  0.39260278  0.91613209  0.62758460  1
  Mn  Mn103  1  0.35837501  0.08227408  0.25240129  1
  Mn  Mn104  1  0.10765769  0.74964638  0.87250384  1
  Mn  Mn105  1  0.14266251  0.24967569  0.49759783  1
  Mn  Mn106  1  0.35806691  0.08491061  0.00235092  1
  Mn  Mn107  1  0.89293073  0.58266192  0.12711546  1
  Mn  Mn108  1  0.39248851  0.91752376  0.12796988  1
  Mn  Mn109  1  0.89144130  0.24998676  0.62740306  1
  Mn  Mn110  1  0.64208336  0.91661797  0.49723606  1
  Mn  Mn111  1  0.64210284  0.58271806  0.74793390  1
  Mn  Mn112  1  0.35757243  0.41782950  0.25212713  1
  Mn  Mn113  1  0.14246899  0.24979048  0.24761063  1
  Mn  Mn114  1  0.60780351  0.74967078  0.12245781  1
  Mn  Mn115  1  0.64180684  0.91724164  0.74751820  1
  Mn  Mn116  1  0.10781310  0.74998967  0.12255179  1
  Mn  Mn117  1  0.64286866  0.91655666  0.99773570  1
  Mn  Mn118  1  0.10754113  0.41785799  0.62353652  1
  Mn  Mn119  1  0.85733112  0.74961268  0.50230639  1
  Mn  Mn120  1  0.85748520  0.08442503  0.75166341  1
  Mn  Mn121  1  0.60787235  0.41752086  0.62328994  1
  Mn  Mn122  1  0.35801957  0.08344866  0.75215205  1
  Mn  Mn123  1  0.85748819  0.41665226  0.00234175  1
  Mn  Mn124  1  0.89197781  0.91659280  0.87739145  1
  Mn  Mn125  1  0.39228401  0.58289466  0.37709779  1
  Mn  Mn126  1  0.10731689  0.08386841  0.87305727  1
  Mn  Mn127  1  0.64247520  0.58343461  0.24770129  1
  Mn  Mn128  1  0.85740662  0.41622879  0.50162760  1
  Mn  Mn129  1  0.39311908  0.25030589  0.62769975  1
  Mn  Mn130  1  0.14167506  0.58308453  0.49863842  1
  Mn  Mn131  1  0.14204019  0.91680153  0.99763426  1
  Mn  Mn132  1  0.39157955  0.58251596  0.12763787  1
  Mn  Mn133  1  0.64223479  0.58374305  0.99731785  1
  Mn  Mn134  1  0.10763398  0.75033709  0.37213820  1
  Mn  Mn135  1  0.14214522  0.91736238  0.49728710  1
  Mn  Mn136  1  0.64171599  0.25007715  0.24699607  1
  Mn  Mn137  1  0.35826352  0.41642089  0.50145053  1
  Mn  Mn138  1  0.85774963  0.74954710  0.25311349  1
  Mn  Mn139  1  0.85736048  0.08363100  0.25316037  1
  Mn  Mn140  1  0.14279596  0.58368064  0.74756148  1
  Mn  Mn141  1  0.10712563  0.08426187  0.12242370  1
  Mn  Mn142  1  0.10827257  0.08279217  0.62266952  1
  Mn  Mn143  1  0.85742013  0.08400246  0.50160129  1
  Fe  Fe144  1  0.89288007  0.58298667  0.87735045  1
  Fe  Fe145  1  0.10797228  0.08317457  0.37347393  1
  Fe  Fe146  1  0.10705002  0.41649823  0.87300822  1
  Fe  Fe147  1  0.60661824  0.08312873  0.37352425  1
  Fe  Fe148  1  0.64308394  0.24981292  0.99864371  1
  Fe  Fe149  1  0.60658822  0.41751583  0.87308480  1
  Fe  Fe150  1  0.60762722  0.08254278  0.62266607  1
  Fe  Fe151  1  0.14292928  0.91679263  0.74871817  1
  Fe  Fe152  1  0.14294564  0.58260260  0.99720803  1
  Fe  Fe153  1  0.14270007  0.91598215  0.24888056  1
  Fe  Fe154  1  0.39294999  0.58344466  0.62609487  1
  Fe  Fe155  1  0.39329904  0.24998809  0.12549682  1
  Fe  Fe156  1  0.85717753  0.08312619  0.00227336  1
  Fe  Fe157  1  0.64218985  0.58256507  0.49840000  1
  Fe  Fe158  1  0.39355512  0.24963312  0.37661290  1
  Fe  Fe159  1  0.35776095  0.75014741  0.75138628  1
  Fe  Fe160  1  0.14222269  0.25046014  0.99857933  1
  Fe  Fe161  1  0.85723862  0.41602197  0.75230907  1
  Fe  Fe162  1  0.64191661  0.25084948  0.49777865  1
  Fe  Fe163  1  0.60714211  0.74945480  0.87333454  1
  Fe  Fe164  1  0.60755468  0.41661364  0.37287047  1
  Fe  Fe165  1  0.10723855  0.41589268  0.12312997  1
  Fe  Fe166  1  0.89227910  0.91716057  0.12754489  1
  Fe  Fe167  1  0.85757593  0.41675085  0.25165492  1
  Fe  Fe168  1  0.89239051  0.25054719  0.87705106  1
  Fe  Fe169  1  0.35654341  0.41605142  0.00169150  1
  Fe  Fe170  1  0.39325635  0.91720725  0.37566008  1
  Fe  Fe171  1  0.60736635  0.41613196  0.12294917  1
  Fe  Fe172  1  0.14188646  0.58437729  0.24886154  1
  Fe  Fe173  1  0.39268858  0.58347254  0.87678272  1
  Fe  Fe174  1  0.60764033  0.08386976  0.12286270  1
  Fe  Fe175  1  0.35829244  0.08363420  0.50116111  1
  Fe  Fe176  1  0.35730498  0.41635718  0.75233772  1
  Fe  Fe177  1  0.85731912  0.75058123  0.00116829  1
  Fe  Fe178  1  0.89177677  0.58383188  0.62652010  1
  Fe  Fe179  1  0.89292390  0.58340649  0.37656990  1
  Fe  Fe180  1  0.64320871  0.25031364  0.74929085  1
  Fe  Fe181  1  0.60690575  0.75027492  0.37268457  1
  Fe  Fe182  1  0.89248410  0.25047241  0.12640304  1
  Fe  Fe183  1  0.10727255  0.74967430  0.62439532  1
  Fe  Fe184  1  0.60696513  0.74984663  0.62359425  1
  Fe  Fe185  1  0.14238800  0.24971500  0.74856825  1
  Fe  Fe186  1  0.35691220  0.74970983  0.25124931  1
  Fe  Fe187  1  0.89295882  0.91605786  0.62684156  1
  Fe  Fe188  1  0.39244620  0.91614051  0.87599623  1
  Fe  Fe189  1  0.64252371  0.91637088  0.24858789  1
  Fe  Fe190  1  0.10718384  0.41667524  0.37333277  1
  Fe  Fe191  1  0.89275214  0.91665915  0.37607507  1
  P  P192  1  0.05250094  0.25092656  0.10930652  1
  P  P193  1  0.05365323  0.24965643  0.36012196  1
  P  P194  1  0.05442416  0.25047321  0.61124374  1
  P  P195  1  0.05378608  0.25106738  0.86077017  1
  P  P196  1  0.05584110  0.58230124  0.11044828  1
  P  P197  1  0.05260875  0.58298300  0.35952825  1
  P  P198  1  0.05157173  0.58416795  0.61072154  1
  P  P199  1  0.05367439  0.58219878  0.86129028  1
  P  P200  1  0.05311298  0.91684642  0.11108513  1
  P  P201  1  0.05254698  0.91745783  0.35918545  1
  P  P202  1  0.05398908  0.91546051  0.61151691  1
  P  P203  1  0.05366918  0.91685372  0.85945241  1
  P  P204  1  0.55328956  0.25001354  0.10908469  1
  P  P205  1  0.55383375  0.25019486  0.36129925  1
  P  P206  1  0.55606487  0.24979059  0.61127954  1
  P  P207  1  0.55557388  0.25091373  0.86090944  1
  P  P208  1  0.55310583  0.58251839  0.10972764  1
  P  P209  1  0.55471276  0.58290675  0.36113287  1
  P  P210  1  0.55275282  0.58394970  0.60962166  1
  P  P211  1  0.55222416  0.58302153  0.86030934  1
  P  P212  1  0.55480826  0.91733462  0.11113485  1
  P  P213  1  0.55294804  0.91677229  0.35957754  1
  P  P214  1  0.55353696  0.91616593  0.60972885  1
  P  P215  1  0.55228986  0.91552660  0.86029183  1
  P  P216  1  0.44821391  0.08490335  0.13978733  1
  P  P217  1  0.44755998  0.08329679  0.39003845  1
  P  P218  1  0.44747264  0.08356018  0.63897115  1
  P  P219  1  0.44703693  0.08258952  0.88981883  1
  P  P220  1  0.44654027  0.41528471  0.13839126  1
  P  P221  1  0.44827946  0.41586361  0.38966373  1
  P  P222  1  0.44622931  0.41734040  0.64082313  1
  P  P223  1  0.44525685  0.41715293  0.88943125  1
  P  P224  1  0.44586293  0.74953299  0.14091800  1
  P  P225  1  0.44627249  0.75071931  0.38821918  1
  P  P226  1  0.44733695  0.74899592  0.64000078  1
  P  P227  1  0.44633529  0.74992214  0.88861067  1
  P  P228  1  0.94441392  0.08392032  0.13866404  1
  P  P229  1  0.94825548  0.08255667  0.39002410  1
  P  P230  1  0.94662114  0.08274389  0.63996596  1
  P  P231  1  0.94538133  0.08456585  0.89054954  1
  P  P232  1  0.94712395  0.41572939  0.14032541  1
  P  P233  1  0.94674299  0.41742049  0.38857682  1
  P  P234  1  0.94531981  0.41740527  0.64074659  1
  P  P235  1  0.94606913  0.41644144  0.88887010  1
  P  P236  1  0.94502861  0.75064975  0.13883244  1
  P  P237  1  0.94648851  0.74992759  0.38957627  1
  P  P238  1  0.94740794  0.74992769  0.64017832  1
  P  P239  1  0.94603078  0.74908849  0.89076766  1
  P  P240  1  0.19552852  0.08199117  0.23610443  1
  P  P241  1  0.19795882  0.08353515  0.48373777  1
  P  P242  1  0.19672860  0.08332748  0.73512961  1
  P  P243  1  0.19657617  0.08477965  0.98536564  1
  P  P244  1  0.19437996  0.41756901  0.23564747  1
  P  P245  1  0.19610406  0.41674868  0.48435798  1
  P  P246  1  0.19668664  0.41607587  0.73645145  1
  P  P247  1  0.19523952  0.41607236  0.98565575  1
  P  P248  1  0.19755839  0.75055465  0.23511719  1
  P  P249  1  0.19534900  0.74979500  0.48631896  1
  P  P250  1  0.19769743  0.75076264  0.73444548  1
  P  P251  1  0.19668058  0.74895741  0.98450040  1
  P  P252  1  0.69415418  0.08251087  0.23585793  1
  P  P253  1  0.69459063  0.08405099  0.48506913  1
  P  P254  1  0.69607494  0.08425311  0.73433821  1
  P  P255  1  0.69709303  0.08391740  0.98669697  1
  P  P256  1  0.69612340  0.41676317  0.23489159  1
  P  P257  1  0.69561162  0.41705306  0.48483368  1
  P  P258  1  0.69669889  0.41630788  0.73668741  1
  P  P259  1  0.69436746  0.41604405  0.98560916  1
  P  P260  1  0.69544109  0.75070860  0.23631468  1
  P  P261  1  0.69411837  0.74886266  0.48574832  1
  P  P262  1  0.69468601  0.74970786  0.73515376  1
  P  P263  1  0.69755659  0.75010351  0.98405484  1
  P  P264  1  0.30235271  0.25137257  0.01585271  1
  P  P265  1  0.30594275  0.25016135  0.26418185  1
  P  P266  1  0.30545994  0.24915727  0.51348223  1
  P  P267  1  0.30225332  0.25060126  0.76503415  1
  P  P268  1  0.30336133  0.58169950  0.01347575  1
  P  P269  1  0.30148975  0.58408147  0.26500216  1
  P  P270  1  0.30393482  0.58307631  0.51588660  1
  P  P271  1  0.30582343  0.58355317  0.76405055  1
  P  P272  1  0.30489338  0.91704223  0.01397196  1
  P  P273  1  0.30282868  0.91552084  0.26556482  1
  P  P274  1  0.30546002  0.91793790  0.51348480  1
  P  P275  1  0.30287742  0.91578510  0.76509397  1
  P  P276  1  0.80390160  0.24969347  0.01479271  1
  P  P277  1  0.80439521  0.25121050  0.26379322  1
  P  P278  1  0.80130172  0.25013315  0.51472865  1
  P  P279  1  0.80266194  0.25093798  0.76597138  1
  P  P280  1  0.80454694  0.58419160  0.01387967  1
  P  P281  1  0.80436751  0.58208257  0.26558263  1
  P  P282  1  0.80332842  0.58306877  0.51438429  1
  P  P283  1  0.80530945  0.58246172  0.76463884  1
  P  P284  1  0.80411944  0.91643841  0.01584158  1
  P  P285  1  0.80341884  0.91672202  0.26527149  1
  P  P286  1  0.80520275  0.91673430  0.51426037  1
  P  P287  1  0.80425307  0.91672941  0.76354396  1
  O  O288  1  0.05660110  0.24998306  0.18609101  1
  O  O289  1  0.05648909  0.24979009  0.43687047  1
  O  O290  1  0.05886439  0.25022944  0.68801961  1
  O  O291  1  0.05844807  0.25045854  0.93741898  1
  O  O292  1  0.05962860  0.58379751  0.18720133  1
  O  O293  1  0.05601490  0.58348686  0.43629944  1
  O  O294  1  0.05572830  0.58343697  0.68735119  1
  O  O295  1  0.05867068  0.58265658  0.93798683  1
  O  O296  1  0.05849627  0.91638233  0.18763033  1
  O  O297  1  0.05617920  0.91676777  0.43601887  1
  O  O298  1  0.05910810  0.91638238  0.68808867  1
  O  O299  1  0.05662615  0.91686537  0.93629354  1
  O  O300  1  0.55613819  0.25020184  0.18588191  1
  O  O301  1  0.55801440  0.25051785  0.43799747  1
  O  O302  1  0.55996080  0.25066385  0.68809341  1
  O  O303  1  0.55964016  0.24992715  0.93762959  1
  O  O304  1  0.55657221  0.58314522  0.18650100  1
  O  O305  1  0.55824755  0.58283695  0.43779933  1
  O  O306  1  0.55611995  0.58300346  0.68646110  1
  O  O307  1  0.55592730  0.58295618  0.93691918  1
  O  O308  1  0.55885019  0.91665946  0.18785448  1
  O  O309  1  0.55617675  0.91643358  0.43617192  1
  O  O310  1  0.55606338  0.91655550  0.68663753  1
  O  O311  1  0.55611268  0.91602080  0.93695164  1
  O  O312  1  0.44432151  0.08391720  0.06308116  1
  O  O313  1  0.44432083  0.08335583  0.31341629  1
  O  O314  1  0.44260766  0.08383163  0.56236959  1
  O  O315  1  0.44394949  0.08376392  0.81301986  1
  O  O316  1  0.44146853  0.41626190  0.06178734  1
  O  O317  1  0.44430423  0.41663328  0.31297037  1
  O  O318  1  0.44347199  0.41625989  0.56394072  1
  O  O319  1  0.44051676  0.41606812  0.81273494  1
  O  O320  1  0.44269656  0.74927202  0.06409649  1
  O  O321  1  0.44113813  0.74992195  0.31150940  1
  O  O322  1  0.44408248  0.74976669  0.56352503  1
  O  O323  1  0.44185866  0.75013368  0.81189820  1
  O  O324  1  0.94049215  0.08377616  0.06190492  1
  O  O325  1  0.94426432  0.08338498  0.31331434  1
  O  O326  1  0.94338293  0.08363653  0.56320025  1
  O  O327  1  0.94276076  0.08395165  0.81378300  1
  O  O328  1  0.94329862  0.41640176  0.06350296  1
  O  O329  1  0.94221823  0.41667484  0.31197545  1
  O  O330  1  0.94256536  0.41644520  0.56388572  1
  O  O331  1  0.94142976  0.41618145  0.81228403  1
  O  O332  1  0.94106706  0.75016358  0.06200863  1
  O  O333  1  0.94389835  0.74981350  0.31306704  1
  O  O334  1  0.94389188  0.74996229  0.56318261  1
  O  O335  1  0.94320305  0.74989188  0.81411174  1
  O  O336  1  0.19345255  0.08407834  0.06215960  1
  O  O337  1  0.19136042  0.08296502  0.31283848  1
  O  O338  1  0.19373459  0.08334748  0.56045386  1
  O  O339  1  0.19360673  0.08342542  0.81185801  1
  O  O340  1  0.19097391  0.41593876  0.06239200  1
  O  O341  1  0.19015007  0.41654325  0.31240077  1
  O  O342  1  0.19315445  0.41689714  0.56118450  1
  O  O343  1  0.19160850  0.41678851  0.81307802  1
  O  O344  1  0.19355937  0.74958959  0.06130520  1
  O  O345  1  0.19432726  0.75059042  0.31186249  1
  O  O346  1  0.19061260  0.74967107  0.56309139  1
  O  O347  1  0.19382989  0.74987828  0.81113540  1
  O  O348  1  0.69227819  0.08360268  0.06332091  1
  O  O349  1  0.68958661  0.08324218  0.31262746  1
  O  O350  1  0.69088681  0.08290645  0.56185853  1
  O  O351  1  0.69380057  0.08276733  0.81125803  1
  O  O352  1  0.69038008  0.41690382  0.06237122  1
  O  O353  1  0.69110455  0.41646202  0.31161063  1
  O  O354  1  0.69311056  0.41747492  0.56119500  1
  O  O355  1  0.69167223  0.41761284  0.81346391  1
  O  O356  1  0.69367695  0.74966161  0.06077018  1
  O  O357  1  0.69087831  0.75032841  0.31315997  1
  O  O358  1  0.69025262  0.74958367  0.56246776  1
  O  O359  1  0.69014734  0.74972805  0.81192980  1
  O  O360  1  0.31016206  0.25017123  0.18752981  1
  O  O361  1  0.30988203  0.24985469  0.43672848  1
  O  O362  1  0.30644029  0.25025735  0.68833579  1
  O  O363  1  0.30625454  0.25055257  0.93914883  1
  O  O364  1  0.30519056  0.58272878  0.18827712  1
  O  O365  1  0.30690445  0.58323125  0.43905557  1
  O  O366  1  0.30975903  0.58351745  0.68728946  1
  O  O367  1  0.30854560  0.58265745  0.93683644  1
  O  O368  1  0.30640163  0.91680336  0.18877647  1
  O  O369  1  0.31009261  0.91715274  0.43679070  1
  O  O370  1  0.30652378  0.91630612  0.68831296  1
  O  O371  1  0.30937816  0.91691319  0.93722987  1
  O  O372  1  0.80872778  0.25081970  0.18710610  1
  O  O373  1  0.80573950  0.24978407  0.43800782  1
  O  O374  1  0.80583339  0.25063068  0.68927343  1
  O  O375  1  0.80846046  0.25053040  0.93810275  1
  O  O376  1  0.80749309  0.58277668  0.18877698  1
  O  O377  1  0.80865240  0.58343464  0.43774689  1
  O  O378  1  0.80903838  0.58352120  0.68782151  1
  O  O379  1  0.80864607  0.58318696  0.93711711  1
  O  O380  1  0.80841516  0.91679776  0.18860503  1
  O  O381  1  0.80970488  0.91673208  0.43747758  1
  O  O382  1  0.80865218  0.91613309  0.68684214  1
  O  O383  1  0.80661932  0.91662171  0.93891090  1
  O  O384  1  0.23232998  0.25087595  0.04043024  1
  O  O385  1  0.23558606  0.24997654  0.28774672  1
  O  O386  1  0.23546643  0.24993640  0.53765742  1
  O  O387  1  0.23215264  0.25030192  0.78939831  1
  O  O388  1  0.23295057  0.58184233  0.03685366  1
  O  O389  1  0.23150639  0.58405325  0.28970477  1
  O  O390  1  0.23426912  0.58284548  0.54111295  1
  O  O391  1  0.23571295  0.58338450  0.78821656  1
  O  O392  1  0.23480780  0.91668584  0.03793222  1
  O  O393  1  0.23291400  0.91630956  0.29041950  1
  O  O394  1  0.23527886  0.91737982  0.53730522  1
  O  O395  1  0.23280924  0.91648211  0.78962392  1
  O  O396  1  0.73354489  0.25040535  0.03858319  1
  O  O397  1  0.73420669  0.25026578  0.28756424  1
  O  O398  1  0.73122395  0.25093542  0.53876759  1
  O  O399  1  0.73271308  0.24997961  0.79084454  1
  O  O400  1  0.73464912  0.58346469  0.03835721  1
  O  O401  1  0.73454076  0.58312225  0.29025910  1
  O  O402  1  0.73295976  0.58267573  0.53778720  1
  O  O403  1  0.73518876  0.58324650  0.78877940  1
  O  O404  1  0.73450928  0.91648427  0.04126686  1
  O  O405  1  0.73298697  0.91685121  0.28871131  1
  O  O406  1  0.73498905  0.91650083  0.53763998  1
  O  O407  1  0.73421686  0.91712937  0.78785477  1
  O  O408  1  0.26554472  0.08265899  0.21190813  1
  O  O409  1  0.26804574  0.08348787  0.45955645  1
  O  O410  1  0.26636024  0.08337935  0.70961237  1
  O  O411  1  0.26619617  0.08457495  0.96009788  1
  O  O412  1  0.26452532  0.41701170  0.21175115  1
  O  O413  1  0.26579955  0.41676604  0.45919384  1
  O  O414  1  0.26712881  0.41660997  0.71292725  1
  O  O415  1  0.26555060  0.41628670  0.96165204  1
  O  O416  1  0.26730004  0.74983929  0.20957747  1
  O  O417  1  0.26540018  0.74994961  0.46270703  1
  O  O418  1  0.26788126  0.75015673  0.71011101  1
  O  O419  1  0.26637714  0.74949394  0.95951946  1
  O  O420  1  0.76440015  0.08358904  0.21248070  1
  O  O421  1  0.76451354  0.08333293  0.46040496  1
  O  O422  1  0.76552377  0.08420225  0.70860223  1
  O  O423  1  0.76739641  0.08345046  0.96283804  1
  O  O424  1  0.76645490  0.41692530  0.21134914  1
  O  O425  1  0.76531662  0.41659798  0.45910385  1
  O  O426  1  0.76693015  0.41639798  0.71282437  1
  O  O427  1  0.76460926  0.41646378  0.96188873  1
  O  O428  1  0.76539209  0.74973365  0.21249431  1
  O  O429  1  0.76435894  0.74990727  0.46164086  1
  O  O430  1  0.76474643  0.74927887  0.71135365  1
  O  O431  1  0.76762651  0.75049461  0.95969102  1
  O  O432  1  0.01444019  0.08383456  0.16286694  1
  O  O433  1  0.01820445  0.08288543  0.41485303  1
  O  O434  1  0.01627813  0.08309072  0.66513455  1
  O  O435  1  0.01503137  0.08383029  0.91588494  1
  O  O436  1  0.01732002  0.41635851  0.16425667  1
  O  O437  1  0.01696563  0.41716464  0.41277549  1
  O  O438  1  0.01500581  0.41710914  0.66601036  1
  O  O439  1  0.01630748  0.41650307  0.91286400  1
  O  O440  1  0.01507659  0.74990675  0.16305661  1
  O  O441  1  0.01602514  0.75014149  0.41534700  1
  O  O442  1  0.01719712  0.74963022  0.66534487  1
  O  O443  1  0.01569980  0.74985213  0.91608223  1
  O  O444  1  0.51822586  0.08466771  0.16430686  1
  O  O445  1  0.51768491  0.08327692  0.41471916  1
  O  O446  1  0.51779866  0.08326043  0.66268654  1
  O  O447  1  0.51677232  0.08269742  0.91488838  1
  O  O448  1  0.51689707  0.41559507  0.16216229  1
  O  O449  1  0.51823957  0.41644841  0.41437753  1
  O  O450  1  0.51583768  0.41722126  0.66585638  1
  O  O451  1  0.51576897  0.41671113  0.91263305  1
  O  O452  1  0.51568006  0.74982488  0.16546630  1
  O  O453  1  0.51674252  0.75024300  0.41161977  1
  O  O454  1  0.51737905  0.74966250  0.66480020  1
  O  O455  1  0.51654056  0.74926951  0.91297585  1
  O  O456  1  0.48346861  0.25000219  0.08376382  1
  O  O457  1  0.48367854  0.24970614  0.33699072  1
  O  O458  1  0.48593725  0.25049200  0.58723444  1
  O  O459  1  0.48549450  0.25034531  0.83678254  1
  O  O460  1  0.48335444  0.58273874  0.08485790  1
  O  O461  1  0.48489416  0.58278836  0.33607876  1
  O  O462  1  0.48273238  0.58344744  0.58489651  1
  O  O463  1  0.48219677  0.58324250  0.83576758  1
  O  O464  1  0.48480021  0.91647924  0.08691679  1
  O  O465  1  0.48288907  0.91722457  0.33466515  1
  O  O466  1  0.48405525  0.91595076  0.58419875  1
  O  O467  1  0.48240286  0.91624164  0.83526272  1
  O  O468  1  0.98235572  0.25072532  0.08525855  1
  O  O469  1  0.98406475  0.24980356  0.33462709  1
  O  O470  1  0.98439126  0.25051542  0.58712351  1
  O  O471  1  0.98334938  0.25043528  0.83721335  1
  O  O472  1  0.98571193  0.58238452  0.08646955  1
  O  O473  1  0.98264063  0.58329431  0.33468520  1
  O  O474  1  0.98156009  0.58357823  0.58606215  1
  O  O475  1  0.98326164  0.58269124  0.83796353  1
  O  O476  1  0.98267026  0.91728569  0.08782559  1
  O  O477  1  0.98245711  0.91658389  0.33471077  1
  O  O478  1  0.98364035  0.91609779  0.58779866  1
  O  O479  1  0.98384115  0.91660930  0.83480343  1
  O  O480  1  0.08627399  0.31608598  0.07683602  1
  O  O481  1  0.08787817  0.31474061  0.32779285  1
  O  O482  1  0.08795739  0.31560160  0.57841943  1
  O  O483  1  0.08696826  0.31625720  0.82750576  1
  O  O484  1  0.08960280  0.64700445  0.07682148  1
  O  O485  1  0.08663040  0.64801392  0.32663946  1
  O  O486  1  0.08526645  0.64929790  0.57815354  1
  O  O487  1  0.08694785  0.64717808  0.82774788  1
  O  O488  1  0.08641089  0.98184959  0.07767528  1
  O  O489  1  0.08624981  0.98260274  0.32677819  1
  O  O490  1  0.08744739  0.98029072  0.57759554  1
  O  O491  1  0.08767038  0.98193610  0.82704149  1
  O  O492  1  0.58762636  0.31492269  0.07668353  1
  O  O493  1  0.58708074  0.31524416  0.32778504  1
  O  O494  1  0.58985773  0.31454927  0.57798391  1
  O  O495  1  0.58888386  0.31634609  0.82821946  1
  O  O496  1  0.58708967  0.64763479  0.07707162  1
  O  O497  1  0.58840162  0.64811371  0.32835621  1
  O  O498  1  0.58660283  0.64908854  0.57733184  1
  O  O499  1  0.58626340  0.64790304  0.82762200  1
  O  O500  1  0.58780653  0.98286237  0.07834586  1
  O  O501  1  0.58715385  0.98182553  0.32727725  1
  O  O502  1  0.58775095  0.98119148  0.57743270  1
  O  O503  1  0.58657694  0.98051815  0.82765621  1
  O  O504  1  0.41436850  0.01997280  0.17299865  1
  O  O505  1  0.41365844  0.01817944  0.42255958  1
  O  O506  1  0.41401590  0.01849976  0.67205516  1
  O  O507  1  0.41294885  0.01746220  0.92166020  1
  O  O508  1  0.41350118  0.34999135  0.17124858  1
  O  O509  1  0.41480916  0.35067133  0.42233291  1
  O  O510  1  0.41190378  0.35253169  0.67379617  1
  O  O511  1  0.41176579  0.35238691  0.92324982  1
  O  O512  1  0.41175041  0.68453331  0.17351101  1
  O  O513  1  0.41299082  0.68586494  0.42190554  1
  O  O514  1  0.41357900  0.68381186  0.67257076  1
  O  O515  1  0.41261232  0.68480304  0.92158366  1
  O  O516  1  0.91082970  0.01890782  0.17184573  1
  O  O517  1  0.91432596  0.01739103  0.42218270  1
  O  O518  1  0.91265590  0.01754256  0.67202987  1
  O  O519  1  0.91065693  0.01978797  0.92304424  1
  O  O520  1  0.91345743  0.35063020  0.17293469  1
  O  O521  1  0.91335098  0.35250876  0.42229688  1
  O  O522  1  0.91085697  0.35253811  0.67345565  1
  O  O523  1  0.91272870  0.35135428  0.92226496  1
  O  O524  1  0.91133053  0.68565239  0.17177764  1
  O  O525  1  0.91230451  0.68466455  0.42197816  1
  O  O526  1  0.91314694  0.68495653  0.67233664  1
  O  O527  1  0.91210358  0.68379438  0.92293436  1
  O  O528  1  0.16227012  0.01662660  0.20352135  1
  O  O529  1  0.16383003  0.01861001  0.45095348  1
  O  O530  1  0.16287368  0.01799920  0.70276865  1
  O  O531  1  0.16231375  0.01989252  0.95278942  1
  O  O532  1  0.16068269  0.35260169  0.20207380  1
  O  O533  1  0.16184208  0.35184497  0.45182303  1
  O  O534  1  0.16362329  0.35100133  0.70323029  1
  O  O535  1  0.16181589  0.35090898  0.95254207  1
  O  O536  1  0.16294477  0.68570473  0.20286498  1
  O  O537  1  0.16204471  0.68470443  0.45312798  1
  O  O538  1  0.16347396  0.68585811  0.70151543  1
  O  O539  1  0.16305815  0.68364401  0.95212870  1
  O  O540  1  0.66131677  0.01716457  0.20282469  1
  O  O541  1  0.66042073  0.01930844  0.45187707  1
  O  O542  1  0.66148935  0.01950249  0.70152788  1
  O  O543  1  0.66384598  0.01893333  0.95303659  1
  O  O544  1  0.66263336  0.35176680  0.20148771  1
  O  O545  1  0.66111977  0.35204671  0.45221801  1
  O  O546  1  0.66339407  0.35112679  0.70407026  1
  O  O547  1  0.66103899  0.35078331  0.95299107  1
  O  O548  1  0.66172497  0.68585142  0.20296974  1
  O  O549  1  0.66108056  0.68349029  0.45296934  1
  O  O550  1  0.66084122  0.68478655  0.70211573  1
  O  O551  1  0.66374137  0.68515313  0.95093590  1
  O  O552  1  0.33617002  0.31662159  0.04824407  1
  O  O553  1  0.33923737  0.31520069  0.29755910  1
  O  O554  1  0.33920304  0.31403486  0.54676751  1
  O  O555  1  0.33590929  0.31554938  0.79799992  1
  O  O556  1  0.33655286  0.64658568  0.04721777  1
  O  O557  1  0.33546736  0.64918718  0.29720985  1
  O  O558  1  0.33829053  0.64796393  0.54825931  1
  O  O559  1  0.33927123  0.64885897  0.79697085  1
  O  O560  1  0.33805697  0.98225809  0.04725825  1
  O  O561  1  0.33754161  0.98020121  0.29832140  1
  O  O562  1  0.33848598  0.98336628  0.54638909  1
  O  O563  1  0.33726175  0.98054022  0.79786172  1
  O  O564  1  0.83761518  0.31462708  0.04823278  1
  O  O565  1  0.83728242  0.31657735  0.29685569  1
  O  O566  1  0.83538290  0.31496426  0.54743502  1
  O  O567  1  0.83634682  0.31602837  0.79888938  1
  O  O568  1  0.83782434  0.64949863  0.04647245  1
  O  O569  1  0.83895247  0.64658957  0.29855576  1
  O  O570  1  0.83637376  0.64824528  0.54817632  1
  O  O571  1  0.83948619  0.64711107  0.79782882  1
  O  O572  1  0.83841679  0.98144680  0.04820609  1
  O  O573  1  0.83680053  0.98173103  0.29871623  1
  O  O574  1  0.83865573  0.98167499  0.54744532  1
  O  O575  1  0.83785306  0.98181304  0.79639460  1
  O  O576  1  0.41445173  0.15004290  0.17199541  1
  O  O577  1  0.41375473  0.14828130  0.42299763  1
  O  O578  1  0.41441898  0.14854618  0.67270283  1
  O  O579  1  0.41316078  0.14776889  0.92252758  1
  O  O580  1  0.41315982  0.48008924  0.17244376  1
  O  O581  1  0.41412639  0.48075944  0.42240486  1
  O  O582  1  0.41196364  0.48260395  0.67244961  1
  O  O583  1  0.41215997  0.48242830  0.92243716  1
  O  O584  1  0.41147783  0.81448986  0.17320566  1
  O  O585  1  0.41354853  0.81603406  0.42136910  1
  O  O586  1  0.41295295  0.81370542  0.67317711  1
  O  O587  1  0.41327088  0.81511074  0.92180485  1
  O  O588  1  0.91110777  0.14920567  0.17153827  1
  O  O589  1  0.91417681  0.14752875  0.42296385  1
  O  O590  1  0.91249212  0.14782607  0.67253468  1
  O  O591  1  0.91144100  0.14994823  0.92254971  1
  O  O592  1  0.91305694  0.48052660  0.17331684  1
  O  O593  1  0.91334920  0.48265367  0.42148901  1
  O  O594  1  0.91115257  0.48260851  0.67258399  1
  O  O595  1  0.91265667  0.48143152  0.92228852  1
  O  O596  1  0.91176698  0.81581561  0.17181146  1
  O  O597  1  0.91211429  0.81499301  0.42184611  1
  O  O598  1  0.91350822  0.81499870  0.67262838  1
  O  O599  1  0.91128721  0.81391796  0.92324954  1
  O  O600  1  0.08640810  0.18619020  0.07606935  1
  O  O601  1  0.08772363  0.18448452  0.32774323  1
  O  O602  1  0.08809464  0.18546077  0.57814001  1
  O  O603  1  0.08748076  0.18625034  0.82724242  1
  O  O604  1  0.08918690  0.51683480  0.07802195  1
  O  O605  1  0.08678781  0.51807306  0.32713126  1
  O  O606  1  0.08547960  0.51920523  0.57774077  1
  O  O607  1  0.08670558  0.51713492  0.82786255  1
  O  O608  1  0.08607010  0.85177929  0.07734328  1
  O  O609  1  0.08688789  0.85262993  0.32633056  1
  O  O610  1  0.08686371  0.85013326  0.57837202  1
  O  O611  1  0.08801429  0.85196566  0.82698300  1
  O  O612  1  0.58774427  0.18497558  0.07685590  1
  O  O613  1  0.58743093  0.18515132  0.32836124  1
  O  O614  1  0.58924353  0.18448913  0.57836281  1
  O  O615  1  0.58970640  0.18622749  0.82766288  1
  O  O616  1  0.58706164  0.51740040  0.07753316  1
  O  O617  1  0.58850094  0.51779148  0.32824519  1
  O  O618  1  0.58706977  0.51919906  0.57690410  1
  O  O619  1  0.58576960  0.51780412  0.82734467  1
  O  O620  1  0.58862397  0.85249562  0.07789820  1
  O  O621  1  0.58686734  0.85178439  0.32662245  1
  O  O622  1  0.58779479  0.85103732  0.57783681  1
  O  O623  1  0.58598126  0.85041640  0.82770256  1
  O  O624  1  0.33681106  0.18670134  0.04885722  1
  O  O625  1  0.33950352  0.18518581  0.29739898  1
  O  O626  1  0.33858064  0.18377187  0.54642363  1
  O  O627  1  0.33606830  0.18555231  0.79790972  1
  O  O628  1  0.33628492  0.51642926  0.04681149  1
  O  O629  1  0.33538795  0.51913867  0.29806362  1
  O  O630  1  0.33845214  0.51808421  0.54799457  1
  O  O631  1  0.33951659  0.51865113  0.79731651  1
  O  O632  1  0.33855961  0.85207387  0.04695713  1
  O  O633  1  0.33656133  0.85017948  0.29769286  1
  O  O634  1  0.33891833  0.85304759  0.54693259  1
  O  O635  1  0.33658577  0.85047774  0.79755685  1
  O  O636  1  0.83708843  0.18465139  0.04798484  1
  O  O637  1  0.83798655  0.18634192  0.29725514  1
  O  O638  1  0.83450923  0.18495971  0.54785792  1
  O  O639  1  0.83719837  0.18616076  0.79854715  1
  O  O640  1  0.83842375  0.51921906  0.04704994  1
  O  O641  1  0.83783095  0.51655400  0.29779489  1
  O  O642  1  0.83703423  0.51829565  0.54762896  1
  O  O643  1  0.83858892  0.51713756  0.79745478  1
  O  O644  1  0.83831667  0.85124174  0.04790903  1
  O  O645  1  0.83677244  0.85182863  0.29865636  1
  O  O646  1  0.83867554  0.85163720  0.54761874  1
  O  O647  1  0.83747375  0.85170337  0.79694786  1
  O  O648  1  0.16171585  0.14699636  0.20287343  1
  O  O649  1  0.16402552  0.14847745  0.45094214  1
  O  O650  1  0.16261312  0.14846618  0.70282114  1
  O  O651  1  0.16257679  0.15013366  0.95341795  1
  O  O652  1  0.16106853  0.48276033  0.20294535  1
  O  O653  1  0.16166509  0.48174158  0.45213766  1
  O  O654  1  0.16349428  0.48116869  0.70283035  1
  O  O655  1  0.16156908  0.48091739  0.95213977  1
  O  O656  1  0.16387166  0.81590409  0.20260062  1
  O  O657  1  0.16194846  0.81483377  0.45305199  1
  O  O658  1  0.16397634  0.81590657  0.70193623  1
  O  O659  1  0.16240156  0.81395678  0.95222403  1
  O  O660  1  0.66033035  0.14729504  0.20227578  1
  O  O661  1  0.66118124  0.14949179  0.45267970  1
  O  O662  1  0.66171506  0.14961761  0.70318520  1
  O  O663  1  0.66396318  0.14902931  0.95349268  1
  O  O664  1  0.66252145  0.48165273  0.20166782  1
  O  O665  1  0.66157539  0.48216814  0.45204651  1
  O  O666  1  0.66347938  0.48112978  0.70280795  1
  O  O667  1  0.66067523  0.48077515  0.95190023  1
  O  O668  1  0.66251507  0.81606885  0.20330514  1
  O  O669  1  0.66014208  0.81359339  0.45230875  1
  O  O670  1  0.66126150  0.81477484  0.70191296  1
  O  O671  1  0.66339605  0.81505028  0.95147083  1
