# generated using pymatgen
data_Na2MnFe(PO4)2
_symmetry_space_group_name_H-M   'P 1'
_cell_length_a   21.09408619
_cell_length_b   18.94817145
_cell_length_c   20.05179039
_cell_angle_alpha   89.99942086
_cell_angle_beta   89.99128995
_cell_angle_gamma   89.99858656
_symmetry_Int_Tables_number   1
_chemical_formula_structural   Na2MnFe(PO4)2
_chemical_formula_sum   'Na96 Mn48 Fe48 P96 O384'
_cell_volume   8014.58746594
_cell_formula_units_Z   48
loop_
 _symmetry_equiv_pos_site_id
 _symmetry_equiv_pos_as_xyz
  1  'x, y, z'
loop_
 _atom_site_type_symbol
 _atom_site_label
 _atom_site_symmetry_multiplicity
 _atom_site_fract_x
 _atom_site_fract_y
 _atom_site_fract_z
 _atom_site_occupancy
  Na  Na0  1  0.00107689  -0.00040089  0.00049461  1
  Na  Na1  1  0.00367796  0.00035009  0.25032661  1
  Na  Na2  1  0.00176317  -0.00018989  0.49937750  1
  Na  Na3  1  -0.00089300  -0.00131538  0.75083815  1
  Na  Na4  1  -0.00106001  0.33313841  0.00002095  1
  Na  Na5  1  -0.00149387  0.33346502  0.24920063  1
  Na  Na6  1  -0.00021741  0.33341735  0.50025730  1
  Na  Na7  1  0.00170854  0.33455919  0.75001343  1
  Na  Na8  1  0.00168356  0.66708291  0.00071411  1
  Na  Na9  1  0.00158871  0.66727959  0.24965817  1
  Na  Na10  1  -0.00098780  0.66666195  0.49942694  1
  Na  Na11  1  -0.00159465  0.66606329  0.75026149  1
  Na  Na12  1  0.50017145  -0.00074447  0.00048591  1
  Na  Na13  1  0.49954454  -0.00084018  0.24991412  1
  Na  Na14  1  0.49942112  -0.00087513  0.49969540  1
  Na  Na15  1  0.50119151  0.00019237  0.74963667  1
  Na  Na16  1  0.50225742  0.33421602  -0.00044621  1
  Na  Na17  1  0.49986523  0.33383012  0.25011918  1
  Na  Na18  1  0.49977141  0.33352929  0.49950123  1
  Na  Na19  1  0.50324533  0.33459763  0.75079867  1
  Na  Na20  1  0.50008965  0.66649529  0.00143757  1
  Na  Na21  1  0.49788136  0.66638414  0.25026534  1
  Na  Na22  1  0.49663614  0.66602311  0.49888613  1
  Na  Na23  1  0.49989843  0.66706760  0.74916752  1
  Na  Na24  1  0.24799831  -0.00072167  0.12590231  1
  Na  Na25  1  0.24728192  -0.00140132  0.37397990  1
  Na  Na26  1  0.24874180  -0.00063858  0.62423465  1
  Na  Na27  1  0.24933088  0.00002412  0.87576072  1
  Na  Na28  1  0.25142812  0.33481805  0.12564690  1
  Na  Na29  1  0.25094673  0.33431275  0.37605698  1
  Na  Na30  1  0.24881889  0.33309902  0.62477132  1
  Na  Na31  1  0.24740892  0.33290665  0.87389492  1
  Na  Na32  1  0.24840087  0.66618346  0.12467351  1
  Na  Na33  1  0.25102568  0.66735540  0.37611465  1
  Na  Na34  1  0.25069012  0.66697724  0.62501398  1
  Na  Na35  1  0.24911312  0.66641293  0.87465729  1
  Na  Na36  1  0.75070212  -0.00039142  0.12530687  1
  Na  Na37  1  0.74993528  -0.00146345  0.37446485  1
  Na  Na38  1  0.75147685  0.00004188  0.62575174  1
  Na  Na39  1  0.74948346  -0.00062698  0.87406965  1
  Na  Na40  1  0.74939667  0.33393816  0.12650255  1
  Na  Na41  1  0.74989988  0.33354538  0.37505727  1
  Na  Na42  1  0.74932692  0.33344381  0.62432625  1
  Na  Na43  1  0.74731607  0.33286524  0.87430662  1
  Na  Na44  1  0.74990181  0.66617329  0.12401713  1
  Na  Na45  1  0.75259644  0.66750244  0.37620812  1
  Na  Na46  1  0.75226752  0.66721546  0.62482364  1
  Na  Na47  1  0.75075688  0.66674580  0.87420126  1
  Na  Na48  1  -0.00008503  0.16676875  -0.00031845  1
  Na  Na49  1  -0.00014163  0.16708961  0.24964388  1
  Na  Na50  1  -0.00016841  0.16756599  0.50059533  1
  Na  Na51  1  0.00023575  0.16712571  0.74992951  1
  Na  Na52  1  0.00015675  0.50027659  0.00140484  1
  Na  Na53  1  0.00092420  0.50004676  0.24839578  1
  Na  Na54  1  0.00006254  0.50027955  0.49972753  1
  Na  Na55  1  -0.00042099  0.50017667  0.75091001  1
  Na  Na56  1  0.00174197  0.83246219  0.00010224  1
  Na  Na57  1  0.00106646  0.83311510  0.25095811  1
  Na  Na58  1  0.00062112  0.83214275  0.49878617  1
  Na  Na59  1  0.00008438  0.83250766  0.75029284  1
  Na  Na60  1  0.50279965  0.16612129  -0.00020000  1
  Na  Na61  1  0.49864346  0.16732350  0.24987204  1
  Na  Na62  1  0.49774176  0.16777780  0.50060758  1
  Na  Na63  1  0.50173537  0.16711165  0.75060608  1
  Na  Na64  1  0.50128348  0.49979173  0.00110755  1
  Na  Na65  1  0.50110526  0.49971927  0.24978804  1
  Na  Na66  1  0.50069576  0.49971255  0.49909924  1
  Na  Na67  1  0.49999352  0.50092270  0.74967628  1
  Na  Na68  1  0.49947691  0.83304696  0.00083380  1
  Na  Na69  1  0.49730071  0.83381864  0.25038756  1
  Na  Na70  1  0.49877828  0.83270378  0.49862777  1
  Na  Na71  1  0.50115227  0.83200259  0.74909607  1
  Na  Na72  1  0.24954255  0.16661193  0.12564452  1
  Na  Na73  1  0.25083004  0.16677095  0.37504601  1
  Na  Na74  1  0.25105581  0.16722690  0.62421175  1
  Na  Na75  1  0.24896928  0.16733941  0.87544934  1
  Na  Na76  1  0.24836754  0.50094644  0.12455330  1
  Na  Na77  1  0.24958378  0.50001216  0.37613286  1
  Na  Na78  1  0.25009100  0.50008680  0.62507122  1
  Na  Na79  1  0.24939597  0.50046807  0.87362705  1
  Na  Na80  1  0.24955977  0.83265987  0.12576460  1
  Na  Na81  1  0.24886895  0.83304925  0.37499810  1
  Na  Na82  1  0.24761375  0.83311069  0.62464111  1
  Na  Na83  1  0.24677344  0.83368179  0.87543980  1
  Na  Na84  1  0.74963030  0.16702768  0.12555222  1
  Na  Na85  1  0.75195767  0.16676141  0.37480638  1
  Na  Na86  1  0.75145877  0.16684284  0.62489053  1
  Na  Na87  1  0.74753376  0.16803991  0.87413580  1
  Na  Na88  1  0.74905847  0.50026352  0.12513534  1
  Na  Na89  1  0.74900526  0.50052454  0.37572347  1
  Na  Na90  1  0.74996882  0.50042801  0.62462560  1
  Na  Na91  1  0.75107212  0.49951105  0.87447453  1
  Na  Na92  1  0.75107482  0.83280630  0.12517894  1
  Na  Na93  1  0.75174540  0.83258380  0.37526349  1
  Na  Na94  1  0.75157836  0.83206856  0.62542900  1
  Na  Na95  1  0.74912272  0.83331322  0.87404174  1
  Mn  Mn96  1  0.10751599  0.08305850  0.62252419  1
  Mn  Mn97  1  0.85725136  0.41781484  0.25247969  1
  Mn  Mn98  1  0.89253898  0.91617103  0.87802140  1
  Mn  Mn99  1  0.64237295  0.58332154  0.99715148  1
  Mn  Mn100  1  0.85777055  0.41687031  0.75216387  1
  Mn  Mn101  1  0.35763077  0.75048795  0.75212817  1
  Mn  Mn102  1  0.64243426  0.24936947  0.49773866  1
  Mn  Mn103  1  0.60716184  0.74977905  0.37264654  1
  Mn  Mn104  1  0.85747342  0.08388305  0.00235756  1
  Mn  Mn105  1  0.39150333  0.58316765  0.12757585  1
  Mn  Mn106  1  0.39328272  0.25066027  0.87724306  1
  Mn  Mn107  1  0.85810187  0.41720891  0.50192395  1
  Mn  Mn108  1  0.85778745  0.08338296  0.75231073  1
  Mn  Mn109  1  0.60746889  0.08318473  0.37285369  1
  Mn  Mn110  1  0.64253473  0.58341211  0.74755554  1
  Mn  Mn111  1  0.14218073  0.25057549  0.24793851  1
  Mn  Mn112  1  0.89352744  0.91678995  0.37708120  1
  Mn  Mn113  1  0.10794522  0.41625143  0.12252877  1
  Mn  Mn114  1  0.89179568  0.25075906  0.87731429  1
  Mn  Mn115  1  0.60803593  0.08344757  0.12296740  1
  Mn  Mn116  1  0.64245961  0.91636662  0.74719780  1
  Mn  Mn117  1  0.85873659  0.08245911  0.25229846  1
  Mn  Mn118  1  0.85929338  0.08266036  0.50211765  1
  Mn  Mn119  1  0.89270425  0.58394915  0.12759252  1
  Mn  Mn120  1  0.35782375  0.41644101  0.75218345  1
  Mn  Mn121  1  0.64198591  0.91691596  0.99816342  1
  Mn  Mn122  1  0.85820513  0.74997291  0.00225414  1
  Mn  Mn123  1  0.39166884  0.91667366  0.62737702  1
  Mn  Mn124  1  0.14148961  0.25051338  0.99795919  1
  Mn  Mn125  1  0.35695462  0.08336476  0.25252253  1
  Mn  Mn126  1  0.64217746  0.24971919  0.24818564  1
  Mn  Mn127  1  0.14213842  0.24965608  0.49753931  1
  Mn  Mn128  1  0.60787126  0.08317037  0.62155726  1
  Mn  Mn129  1  0.35800474  0.08337581  0.75258455  1
  Mn  Mn130  1  0.35794708  0.41736786  0.50265378  1
  Mn  Mn131  1  0.39257797  0.24992423  0.12662850  1
  Mn  Mn132  1  0.64287777  0.91651651  0.49787672  1
  Mn  Mn133  1  0.35780702  0.41679528  0.00123946  1
  Mn  Mn134  1  0.10805320  0.08386903  0.87234856  1
  Mn  Mn135  1  0.14182928  0.58284068  0.74747122  1
  Mn  Mn136  1  0.35724420  0.08265938  0.50200895  1
  Mn  Mn137  1  0.35687524  0.75020376  0.00155037  1
  Mn  Mn138  1  0.14178115  0.58369660  0.49790282  1
  Mn  Mn139  1  0.14133602  0.91723346  0.74731522  1
  Mn  Mn140  1  0.64246335  0.58405622  0.49761996  1
  Mn  Mn141  1  0.60747867  0.74984338  0.12387707  1
  Mn  Mn142  1  0.35791470  0.08316188  0.00206703  1
  Mn  Mn143  1  0.39230565  0.91608878  0.87739663  1
  Fe  Fe144  1  0.10618464  0.74924089  0.62339772  1
  Fe  Fe145  1  0.10731762  0.74890076  0.37284764  1
  Fe  Fe146  1  0.14247698  0.24991048  0.74779055  1
  Fe  Fe147  1  0.89375037  0.91670654  0.12691099  1
  Fe  Fe148  1  0.10676019  0.74898528  0.87291692  1
  Fe  Fe149  1  0.89316433  0.25024711  0.62697032  1
  Fe  Fe150  1  0.39202673  0.58317942  0.37630184  1
  Fe  Fe151  1  0.89325229  0.58291681  0.87703944  1
  Fe  Fe152  1  0.14195523  0.91632079  0.49818897  1
  Fe  Fe153  1  0.60703255  0.41747446  0.62310373  1
  Fe  Fe154  1  0.89312865  0.58281140  0.37562683  1
  Fe  Fe155  1  0.39163301  0.91677119  0.37674151  1
  Fe  Fe156  1  0.14241426  0.58335773  0.99734057  1
  Fe  Fe157  1  0.85764323  0.74996030  0.75181424  1
  Fe  Fe158  1  0.60787313  0.08279787  0.87319156  1
  Fe  Fe159  1  0.10695864  0.08342657  0.12324872  1
  Fe  Fe160  1  0.39156345  0.91670073  0.12720670  1
  Fe  Fe161  1  0.14246972  0.91632699  0.99890465  1
  Fe  Fe162  1  0.35604011  0.75044842  0.50193036  1
  Fe  Fe163  1  0.14293638  0.91564532  0.24784285  1
  Fe  Fe164  1  0.89330468  0.25066615  0.37633388  1
  Fe  Fe165  1  0.60806230  0.41762259  0.87309971  1
  Fe  Fe166  1  0.39315833  0.58343082  0.87645813  1
  Fe  Fe167  1  0.39320839  0.58295776  0.62657438  1
  Fe  Fe168  1  0.10725634  0.41678080  0.37312739  1
  Fe  Fe169  1  0.10769658  0.08424136  0.37315249  1
  Fe  Fe170  1  0.85858400  0.75023261  0.50213989  1
  Fe  Fe171  1  0.64253414  0.58458460  0.24936106  1
  Fe  Fe172  1  0.60662612  0.41700604  0.37332628  1
  Fe  Fe173  1  0.64303479  0.25011149  0.99869734  1
  Fe  Fe174  1  0.85809692  0.74971235  0.25117963  1
  Fe  Fe175  1  0.35599362  0.74942791  0.25171769  1
  Fe  Fe176  1  0.60735792  0.41680015  0.12336476  1
  Fe  Fe177  1  0.89344736  0.91633921  0.62601305  1
  Fe  Fe178  1  0.89300169  0.58318090  0.62672883  1
  Fe  Fe179  1  0.64263566  0.25007473  0.74723619  1
  Fe  Fe180  1  0.39316236  0.25077317  0.62757018  1
  Fe  Fe181  1  0.10770086  0.75053345  0.12344769  1
  Fe  Fe182  1  0.14292893  0.58330424  0.24943405  1
  Fe  Fe183  1  0.60741135  0.74942687  0.62244269  1
  Fe  Fe184  1  0.10674762  0.41700923  0.87356892  1
  Fe  Fe185  1  0.35767078  0.41746354  0.25199214  1
  Fe  Fe186  1  0.64262849  0.91557109  0.24826719  1
  Fe  Fe187  1  0.39247447  0.25012584  0.37649575  1
  Fe  Fe188  1  0.89191606  0.24929783  0.12629853  1
  Fe  Fe189  1  0.10669562  0.41718217  0.62358183  1
  Fe  Fe190  1  0.85676586  0.41617268  0.00136586  1
  Fe  Fe191  1  0.60741070  0.74975882  0.87318397  1
  P  P192  1  0.05179799  0.24954157  0.11020795  1
  P  P193  1  0.05242921  0.25076421  0.36003521  1
  P  P194  1  0.05348634  0.25088805  0.61125966  1
  P  P195  1  0.05380732  0.25133160  0.85935418  1
  P  P196  1  0.05603347  0.58430213  0.11106983  1
  P  P197  1  0.05292244  0.58325478  0.35952431  1
  P  P198  1  0.05198290  0.58351130  0.61025831  1
  P  P199  1  0.05353052  0.58295883  0.86140944  1
  P  P200  1  0.05458862  0.91615347  0.11136631  1
  P  P201  1  0.05619501  0.91597872  0.36074912  1
  P  P202  1  0.05268095  0.91520588  0.60933146  1
  P  P203  1  0.05469921  0.91552900  0.86148768  1
  P  P204  1  0.55437186  0.25108406  0.10965771  1
  P  P205  1  0.55204272  0.25047411  0.36036286  1
  P  P206  1  0.55354077  0.25122493  0.61094532  1
  P  P207  1  0.55639308  0.25032227  0.86094446  1
  P  P208  1  0.55465986  0.58303880  0.11180459  1
  P  P209  1  0.55231963  0.58338334  0.35971264  1
  P  P210  1  0.55262481  0.58371019  0.60961548  1
  P  P211  1  0.55276847  0.58388115  0.86005190  1
  P  P212  1  0.55288943  0.91596565  0.11165314  1
  P  P213  1  0.55231873  0.91599684  0.35956494  1
  P  P214  1  0.55316475  0.91520357  0.60928933  1
  P  P215  1  0.55366550  0.91588479  0.85998841  1
  P  P216  1  0.44642787  0.08263103  0.14009842  1
  P  P217  1  0.44605511  0.08293107  0.38980886  1
  P  P218  1  0.44657652  0.08410421  0.64008854  1
  P  P219  1  0.44851940  0.08347459  0.89000418  1
  P  P220  1  0.44703983  0.41672007  0.14036933  1
  P  P221  1  0.44587274  0.41726486  0.38857477  1
  P  P222  1  0.44774043  0.41698297  0.63987901  1
  P  P223  1  0.44855325  0.41780366  0.88967570  1
  P  P224  1  0.44476136  0.75042419  0.14078335  1
  P  P225  1  0.44326194  0.74991147  0.38873502  1
  P  P226  1  0.44614380  0.74922530  0.63819715  1
  P  P227  1  0.44787176  0.74891935  0.88997028  1
  P  P228  1  0.94779177  0.08274561  0.13968468  1
  P  P229  1  0.94875180  0.08385069  0.38956032  1
  P  P230  1  0.94689052  0.08279485  0.64003446  1
  P  P231  1  0.94682722  0.08354123  0.89028582  1
  P  P232  1  0.94491741  0.41607728  0.13854537  1
  P  P233  1  0.94777568  0.41737613  0.38927748  1
  P  P234  1  0.94748442  0.41699530  0.63984409  1
  P  P235  1  0.94692868  0.41752235  0.89067392  1
  P  P236  1  0.94780140  0.75084615  0.14054003  1
  P  P237  1  0.94609070  0.74885294  0.38862391  1
  P  P238  1  0.94594643  0.75000594  0.63911379  1
  P  P239  1  0.94679215  0.74873489  0.88911806  1
  P  P240  1  0.19418338  0.08301632  0.23574781  1
  P  P241  1  0.19570167  0.08274281  0.48411880  1
  P  P242  1  0.19677656  0.08447074  0.73440477  1
  P  P243  1  0.19508704  0.08258512  0.98655436  1
  P  P244  1  0.19667926  0.41762221  0.23656242  1
  P  P245  1  0.19447335  0.41699120  0.48580183  1
  P  P246  1  0.19457439  0.41623377  0.73515674  1
  P  P247  1  0.19598072  0.41766243  0.98389812  1
  P  P248  1  0.19558867  0.74912845  0.23623101  1
  P  P249  1  0.19487522  0.75007826  0.48579405  1
  P  P250  1  0.19438606  0.74938468  0.73504146  1
  P  P251  1  0.19412304  0.74996757  0.98577236  1
  P  P252  1  0.69693290  0.08212654  0.23536195  1
  P  P253  1  0.69794457  0.08320617  0.48441385  1
  P  P254  1  0.69528173  0.08395637  0.73552076  1
  P  P255  1  0.69634287  0.08397915  0.98442282  1
  P  P256  1  0.69418529  0.41807785  0.23633221  1
  P  P257  1  0.69469402  0.41685027  0.48532630  1
  P  P258  1  0.69485556  0.41669252  0.73493029  1
  P  P259  1  0.69621582  0.41613928  0.98568637  1
  P  P260  1  0.69810902  0.74962000  0.23550955  1
  P  P261  1  0.69731570  0.74994497  0.48592756  1
  P  P262  1  0.69624773  0.74937026  0.73498068  1
  P  P263  1  0.69621845  0.75006571  0.98416986  1
  P  P264  1  0.30289208  0.25038333  0.01500203  1
  P  P265  1  0.30396481  0.25120833  0.26563798  1
  P  P266  1  0.30538384  0.25047579  0.51466533  1
  P  P267  1  0.30336810  0.25041840  0.76419726  1
  P  P268  1  0.30303802  0.58344116  0.01344064  1
  P  P269  1  0.30231200  0.58329193  0.26562455  1
  P  P270  1  0.30488092  0.58411374  0.51461866  1
  P  P271  1  0.30523454  0.58341563  0.76435736  1
  P  P272  1  0.30219857  0.91635211  0.01586808  1
  P  P273  1  0.30328759  0.91576654  0.26430837  1
  P  P274  1  0.30242675  0.91565775  0.51358497  1
  P  P275  1  0.30245099  0.91640810  0.76544425  1
  P  P276  1  0.80221456  0.25113220  0.01543031  1
  P  P277  1  0.80532501  0.25007380  0.26478117  1
  P  P278  1  0.80592461  0.25042397  0.51448720  1
  P  P279  1  0.80329166  0.25059905  0.76376075  1
  P  P280  1  0.80488725  0.58232009  0.01369430  1
  P  P281  1  0.80272406  0.58427546  0.26559191  1
  P  P282  1  0.80585388  0.58388562  0.51428293  1
  P  P283  1  0.80573925  0.58401921  0.76427217  1
  P  P284  1  0.80399664  0.91657406  0.01588796  1
  P  P285  1  0.80421960  0.91535845  0.26381414  1
  P  P286  1  0.80486536  0.91566213  0.51564416  1
  P  P287  1  0.80530435  0.91548965  0.76364432  1
  O  O288  1  0.05584002  0.25054179  0.18682169  1
  O  O289  1  0.05583944  0.25063912  0.43672541  1
  O  O290  1  0.05820524  0.25022559  0.68785724  1
  O  O291  1  0.05648732  0.25034183  0.93614093  1
  O  O292  1  0.06019579  0.58337653  0.18778665  1
  O  O293  1  0.05599107  0.58357948  0.43621226  1
  O  O294  1  0.05539897  0.58352845  0.68691390  1
  O  O295  1  0.05778110  0.58315948  0.93807674  1
  O  O296  1  0.05906163  0.91575282  0.18809661  1
  O  O297  1  0.05939652  0.91576886  0.43756819  1
  O  O298  1  0.05567536  0.91597126  0.68609090  1
  O  O299  1  0.05860760  0.91628497  0.93821621  1
  O  O300  1  0.55677061  0.25015611  0.18644379  1
  O  O301  1  0.55584096  0.24980902  0.43702085  1
  O  O302  1  0.55843320  0.25044207  0.68760201  1
  O  O303  1  0.56002587  0.25028528  0.93773638  1
  O  O304  1  0.55880270  0.58426414  0.18845891  1
  O  O305  1  0.55627310  0.58432741  0.43635517  1
  O  O306  1  0.55635608  0.58417862  0.68625084  1
  O  O307  1  0.55611506  0.58364480  0.93677166  1
  O  O308  1  0.55836680  0.91568145  0.18825067  1
  O  O309  1  0.55685162  0.91566370  0.43620145  1
  O  O310  1  0.55673333  0.91567188  0.68602759  1
  O  O311  1  0.55610371  0.91598803  0.93677853  1
  O  O312  1  0.44369818  0.08287447  0.06332071  1
  O  O313  1  0.44321788  0.08281291  0.31304997  1
  O  O314  1  0.44295431  0.08315110  0.56333459  1
  O  O315  1  0.44453800  0.08368565  0.81333232  1
  O  O316  1  0.44322836  0.41704818  0.06368080  1
  O  O317  1  0.44138365  0.41750841  0.31193401  1
  O  O318  1  0.44421914  0.41672742  0.56317915  1
  O  O319  1  0.44441565  0.41707246  0.81306828  1
  O  O320  1  0.44192573  0.74974445  0.06402443  1
  O  O321  1  0.43910419  0.74986184  0.31199357  1
  O  O322  1  0.44083897  0.75032088  0.56160575  1
  O  O323  1  0.44416024  0.74968800  0.81328908  1
  O  O324  1  0.94406661  0.08267998  0.06304071  1
  O  O325  1  0.94513031  0.08278270  0.31289642  1
  O  O326  1  0.94476162  0.08295963  0.56322942  1
  O  O327  1  0.94337323  0.08339078  0.81353408  1
  O  O328  1  0.94074469  0.41654646  0.06188212  1
  O  O329  1  0.94404034  0.41761781  0.31261351  1
  O  O330  1  0.94418055  0.41691710  0.56319444  1
  O  O331  1  0.94334604  0.41677951  0.81396636  1
  O  O332  1  0.94403707  0.75009218  0.06387237  1
  O  O333  1  0.94146463  0.74961448  0.31198559  1
  O  O334  1  0.94223066  0.75005936  0.56232336  1
  O  O335  1  0.94208762  0.74955960  0.81249087  1
  O  O336  1  0.19071125  0.08347972  0.06332012  1
  O  O337  1  0.19026740  0.08427958  0.31254230  1
  O  O338  1  0.19280482  0.08377527  0.56090569  1
  O  O339  1  0.19379680  0.08402039  0.81120876  1
  O  O340  1  0.19339168  0.41689471  0.06076934  1
  O  O341  1  0.19147536  0.41671385  0.31320576  1
  O  O342  1  0.18969764  0.41713743  0.56251167  1
  O  O343  1  0.19025839  0.41731031  0.81183393  1
  O  O344  1  0.19098504  0.74987880  0.06261387  1
  O  O345  1  0.19140014  0.74910445  0.31293980  1
  O  O346  1  0.18994810  0.74914330  0.56244768  1
  O  O347  1  0.19001532  0.74891470  0.81180037  1
  O  O348  1  0.69364692  0.08297091  0.06124223  1
  O  O349  1  0.69369499  0.08278848  0.31210721  1
  O  O350  1  0.69438388  0.08357858  0.56120412  1
  O  O351  1  0.69100364  0.08311363  0.81225854  1
  O  O352  1  0.69179174  0.41715177  0.06237381  1
  O  O353  1  0.68992340  0.41707649  0.31312660  1
  O  O354  1  0.69034113  0.41715173  0.56208867  1
  O  O355  1  0.69082368  0.41785545  0.81173856  1
  O  O356  1  0.69269990  0.74984094  0.06091467  1
  O  O357  1  0.69441607  0.74980055  0.31217028  1
  O  O358  1  0.69176673  0.74940094  0.56251561  1
  O  O359  1  0.69102801  0.74922208  0.81161528  1
  O  O360  1  0.30695738  0.25059589  0.18887007  1
  O  O361  1  0.30991027  0.25074026  0.43790811  1
  O  O362  1  0.30889777  0.25093205  0.68754490  1
  O  O363  1  0.30648572  0.25036631  0.93823108  1
  O  O364  1  0.30531449  0.58300442  0.18886231  1
  O  O365  1  0.30888177  0.58287331  0.43790199  1
  O  O366  1  0.30989855  0.58318583  0.68762193  1
  O  O367  1  0.30858212  0.58335140  0.93684983  1
  O  O368  1  0.30794571  0.91663281  0.18765060  1
  O  O369  1  0.30716275  0.91638084  0.43694599  1
  O  O370  1  0.30580849  0.91597153  0.68862873  1
  O  O371  1  0.30624461  0.91636372  0.93914886  1
  O  O372  1  0.80947309  0.24982758  0.18801144  1
  O  O373  1  0.81066205  0.25064730  0.43770665  1
  O  O374  1  0.80911375  0.25081718  0.68714990  1
  O  O375  1  0.80548108  0.25067210  0.93868410  1
  O  O376  1  0.80644172  0.58333479  0.18887451  1
  O  O377  1  0.81010216  0.58277687  0.43757846  1
  O  O378  1  0.80995195  0.58303994  0.68747895  1
  O  O379  1  0.80914567  0.58299584  0.93696367  1
  O  O380  1  0.80963261  0.91631339  0.18722608  1
  O  O381  1  0.80793716  0.91623030  0.43882815  1
  O  O382  1  0.80980346  0.91602216  0.68698519  1
  O  O383  1  0.80700894  0.91637266  0.93906714  1
  O  O384  1  0.23324526  0.25080254  0.04015095  1
  O  O385  1  0.23421738  0.25065052  0.29070176  1
  O  O386  1  0.23509310  0.25037190  0.53800057  1
  O  O387  1  0.23294727  0.25045765  0.78737001  1
  O  O388  1  0.23263908  0.58375651  0.03675079  1
  O  O389  1  0.23238489  0.58348152  0.29077831  1
  O  O390  1  0.23477784  0.58347988  0.53868661  1
  O  O391  1  0.23492134  0.58335702  0.78756451  1
  O  O392  1  0.23206788  0.91593217  0.04006292  1
  O  O393  1  0.23271197  0.91578510  0.28745419  1
  O  O394  1  0.23206592  0.91598640  0.53736321  1
  O  O395  1  0.23275449  0.91667371  0.79022225  1
  O  O396  1  0.73228036  0.25049519  0.04034799  1
  O  O397  1  0.73518031  0.25007231  0.28867214  1
  O  O398  1  0.73572068  0.25024786  0.53799931  1
  O  O399  1  0.73282959  0.25065305  0.78666496  1
  O  O400  1  0.73487431  0.58312160  0.03782497  1
  O  O401  1  0.73277306  0.58405819  0.29040815  1
  O  O402  1  0.73573761  0.58367820  0.53827611  1
  O  O403  1  0.73561120  0.58329501  0.78811280  1
  O  O404  1  0.73422191  0.91626725  0.04067901  1
  O  O405  1  0.73387120  0.91537051  0.28748507  1
  O  O406  1  0.73525733  0.91596721  0.54088448  1
  O  O407  1  0.73521983  0.91588296  0.78754817  1
  O  O408  1  0.26428084  0.08325223  0.21175620  1
  O  O409  1  0.26533892  0.08271064  0.45895782  1
  O  O410  1  0.26621794  0.08359840  0.70878072  1
  O  O411  1  0.26498565  0.08306433  0.96202362  1
  O  O412  1  0.26701319  0.41772718  0.21286298  1
  O  O413  1  0.26478661  0.41725397  0.46267781  1
  O  O414  1  0.26468586  0.41685124  0.71115278  1
  O  O415  1  0.26550037  0.41689010  0.95830426  1
  O  O416  1  0.26589647  0.74948833  0.21216356  1
  O  O417  1  0.26527884  0.74983096  0.46237165  1
  O  O418  1  0.26447582  0.74971429  0.71122998  1
  O  O419  1  0.26395810  0.74991901  0.96077399  1
  O  O420  1  0.76661489  0.08284129  0.21024286  1
  O  O421  1  0.76765378  0.08286802  0.45955179  1
  O  O422  1  0.76532486  0.08370590  0.71148920  1
  O  O423  1  0.76587417  0.08360564  0.95875418  1
  O  O424  1  0.76434047  0.41745761  0.21248801  1
  O  O425  1  0.76489153  0.41698254  0.46167197  1
  O  O426  1  0.76494709  0.41719683  0.71092302  1
  O  O427  1  0.76640634  0.41646448  0.96136793  1
  O  O428  1  0.76801602  0.74943212  0.21039618  1
  O  O429  1  0.76785018  0.75009500  0.46299838  1
  O  O430  1  0.76680836  0.74939400  0.71200765  1
  O  O431  1  0.76608610  0.75009137  0.95961096  1
  O  O432  1  0.01781786  0.08317519  0.16438331  1
  O  O433  1  0.01873494  0.08364496  0.41432524  1
  O  O434  1  0.01633613  0.08281652  0.66597632  1
  O  O435  1  0.01654401  0.08367095  0.91501330  1
  O  O436  1  0.01501163  0.41680420  0.16264998  1
  O  O437  1  0.01771738  0.41721034  0.41415064  1
  O  O438  1  0.01740829  0.41732602  0.66483291  1
  O  O439  1  0.01695303  0.41693084  0.91519262  1
  O  O440  1  0.01800127  0.75044250  0.16463462  1
  O  O441  1  0.01660351  0.74923480  0.41195101  1
  O  O442  1  0.01614509  0.74937204  0.66348018  1
  O  O443  1  0.01702204  0.74905380  0.91304183  1
  O  O444  1  0.51600847  0.08324771  0.16550369  1
  O  O445  1  0.51556408  0.08303084  0.41552987  1
  O  O446  1  0.51636890  0.08384727  0.66471241  1
  O  O447  1  0.51860904  0.08289104  0.91430034  1
  O  O448  1  0.51716789  0.41673910  0.16452263  1
  O  O449  1  0.51618959  0.41717020  0.41254048  1
  O  O450  1  0.51770144  0.41761859  0.66463141  1
  O  O451  1  0.51870846  0.41736905  0.91391399  1
  O  O452  1  0.51446695  0.74995720  0.16591142  1
  O  O453  1  0.51345532  0.74958190  0.41264124  1
  O  O454  1  0.51652781  0.74930846  0.66171936  1
  O  O455  1  0.51771052  0.74943991  0.91502982  1
  O  O456  1  0.48488480  0.25035581  0.08397967  1
  O  O457  1  0.48199328  0.25054760  0.33580609  1
  O  O458  1  0.48322291  0.25093054  0.58727992  1
  O  O459  1  0.48636796  0.25098771  0.83646959  1
  O  O460  1  0.48464383  0.58309186  0.08755492  1
  O  O461  1  0.48209236  0.58346662  0.33564276  1
  O  O462  1  0.48264562  0.58306970  0.58486413  1
  O  O463  1  0.48297158  0.58368423  0.83484660  1
  O  O464  1  0.48247876  0.91598294  0.08825486  1
  O  O465  1  0.48188104  0.91613704  0.33618392  1
  O  O466  1  0.48338354  0.91558114  0.58455189  1
  O  O467  1  0.48422015  0.91597901  0.83400323  1
  O  O468  1  0.98176559  0.24960899  0.08561760  1
  O  O469  1  0.98248403  0.25082713  0.33510484  1
  O  O470  1  0.98316513  0.25044823  0.58749182  1
  O  O471  1  0.98409731  0.25094082  0.83425489  1
  O  O472  1  0.98584770  0.58373895  0.08736143  1
  O  O473  1  0.98299706  0.58354509  0.33441037  1
  O  O474  1  0.98205116  0.58364201  0.58539114  1
  O  O475  1  0.98343079  0.58289517  0.83707374  1
  O  O476  1  0.98430269  0.91595943  0.08735814  1
  O  O477  1  0.98620083  0.91622760  0.33624440  1
  O  O478  1  0.98286118  0.91587561  0.58421930  1
  O  O479  1  0.98482828  0.91559907  0.83698474  1
  O  O480  1  0.08554778  0.31459052  0.07729475  1
  O  O481  1  0.08621884  0.31587938  0.32735758  1
  O  O482  1  0.08655441  0.31602942  0.57809599  1
  O  O483  1  0.08781777  0.31668928  0.82757873  1
  O  O484  1  0.08910689  0.64971227  0.07833502  1
  O  O485  1  0.08730725  0.64814632  0.32700581  1
  O  O486  1  0.08579830  0.64848544  0.57740403  1
  O  O487  1  0.08701072  0.64779622  0.82793664  1
  O  O488  1  0.08791831  0.98129720  0.07834471  1
  O  O489  1  0.09011749  0.98089117  0.32808729  1
  O  O490  1  0.08738552  0.97989085  0.57679257  1
  O  O491  1  0.08814333  0.98058133  0.82820156  1
  O  O492  1  0.58836342  0.31655129  0.07793789  1
  O  O493  1  0.58595751  0.31547726  0.32792451  1
  O  O494  1  0.58666932  0.31647293  0.57801233  1
  O  O495  1  0.59045182  0.31530248  0.82819609  1
  O  O496  1  0.58820757  0.64782539  0.07825947  1
  O  O497  1  0.58608499  0.64830088  0.32644695  1
  O  O498  1  0.58613487  0.64876079  0.57643113  1
  O  O499  1  0.58665703  0.64898158  0.82747009  1
  O  O500  1  0.58614064  0.98102670  0.07831481  1
  O  O501  1  0.58618168  0.98088576  0.32673198  1
  O  O502  1  0.58717808  0.98034155  0.57682490  1
  O  O503  1  0.58813775  0.98090773  0.82788150  1
  O  O504  1  0.41229901  0.01758544  0.17240031  1
  O  O505  1  0.41190002  0.01763332  0.42195511  1
  O  O506  1  0.41265970  0.01896704  0.67267004  1
  O  O507  1  0.41433977  0.01853693  0.92252155  1
  O  O508  1  0.41310426  0.35177264  0.17301728  1
  O  O509  1  0.41253960  0.35230008  0.42186298  1
  O  O510  1  0.41425787  0.35192640  0.67297284  1
  O  O511  1  0.41481946  0.35287370  0.92274983  1
  O  O512  1  0.41027030  0.68550442  0.17327033  1
  O  O513  1  0.40952995  0.68491244  0.42167747  1
  O  O514  1  0.41304199  0.68393750  0.67118598  1
  O  O515  1  0.41404754  0.68370998  0.92236486  1
  O  O516  1  0.91463055  0.01746406  0.17279929  1
  O  O517  1  0.91506184  0.01873793  0.42236915  1
  O  O518  1  0.91278762  0.01745542  0.67179503  1
  O  O519  1  0.91299366  0.01856733  0.92291572  1
  O  O520  1  0.91165976  0.35095046  0.17141672  1
  O  O521  1  0.91377362  0.35247294  0.42197234  1
  O  O522  1  0.91376740  0.35196334  0.67270193  1
  O  O523  1  0.91252631  0.35270708  0.92338954  1
  O  O524  1  0.91381333  0.68595677  0.17358381  1
  O  O525  1  0.91291231  0.68376204  0.42173202  1
  O  O526  1  0.91197222  0.68515247  0.67204353  1
  O  O527  1  0.91370397  0.68351925  0.92220762  1
  O  O528  1  0.16078024  0.01761386  0.20339185  1
  O  O529  1  0.16129007  0.01774868  0.45234565  1
  O  O530  1  0.16212100  0.01951754  0.70226773  1
  O  O531  1  0.16184431  0.01710297  0.95407086  1
  O  O532  1  0.16353019  0.35270111  0.20263931  1
  O  O533  1  0.16132538  0.35199232  0.45228701  1
  O  O534  1  0.16122109  0.35102037  0.70232881  1
  O  O535  1  0.16100127  0.35302595  0.95170852  1
  O  O536  1  0.16242255  0.68405993  0.20308162  1
  O  O537  1  0.16164879  0.68511318  0.45197838  1
  O  O538  1  0.16098285  0.68436468  0.70163529  1
  O  O539  1  0.16024852  0.68495257  0.95279339  1
  O  O540  1  0.66319867  0.01683729  0.20313252  1
  O  O541  1  0.66374370  0.01812657  0.45235828  1
  O  O542  1  0.66188729  0.01891157  0.70225769  1
  O  O543  1  0.66179352  0.01910938  0.95191211  1
  O  O544  1  0.66047190  0.35325390  0.20289187  1
  O  O545  1  0.66122919  0.35184079  0.45219842  1
  O  O546  1  0.66136561  0.35153206  0.70226254  1
  O  O547  1  0.66282002  0.35097332  0.95298674  1
  O  O548  1  0.66412467  0.68450500  0.20305054  1
  O  O549  1  0.66429832  0.68505309  0.45206712  1
  O  O550  1  0.66320999  0.68431527  0.70128712  1
  O  O551  1  0.66227095  0.68509425  0.95130024  1
  O  O552  1  0.33719072  0.31539849  0.04717800  1
  O  O553  1  0.33786989  0.31636533  0.29795212  1
  O  O554  1  0.33863812  0.31552382  0.54813087  1
  O  O555  1  0.33647367  0.31540719  0.79786372  1
  O  O556  1  0.33621582  0.64835038  0.04706870  1
  O  O557  1  0.33638593  0.64835804  0.29791743  1
  O  O558  1  0.33809246  0.64953090  0.54711596  1
  O  O559  1  0.33848272  0.64842758  0.79773979  1
  O  O560  1  0.33589570  0.98135717  0.04879039  1
  O  O561  1  0.33635802  0.98072494  0.29813421  1
  O  O562  1  0.33580799  0.98048870  0.54715387  1
  O  O563  1  0.33661746  0.98140012  0.79772231  1
  O  O564  1  0.83602685  0.31617676  0.04795269  1
  O  O565  1  0.83871378  0.31522571  0.29784977  1
  O  O566  1  0.83913977  0.31555563  0.54785154  1
  O  O567  1  0.83610890  0.31564792  0.79755362  1
  O  O568  1  0.83873772  0.64715955  0.04699781  1
  O  O569  1  0.83705114  0.64924052  0.29771704  1
  O  O570  1  0.83944823  0.64904528  0.54694454  1
  O  O571  1  0.83905698  0.64931928  0.79697626  1
  O  O572  1  0.83803808  0.98169339  0.04822767  1
  O  O573  1  0.83747757  0.98028659  0.29763909  1
  O  O574  1  0.83935886  0.98049930  0.54811055  1
  O  O575  1  0.83880838  0.98034130  0.79707940  1
  O  O576  1  0.41194969  0.14763608  0.17218265  1
  O  O577  1  0.41182229  0.14806953  0.42178031  1
  O  O578  1  0.41292420  0.14941974  0.67240902  1
  O  O579  1  0.41511514  0.14867879  0.92282971  1
  O  O580  1  0.41308676  0.48161440  0.17342757  1
  O  O581  1  0.41266881  0.48238215  0.42192652  1
  O  O582  1  0.41355144  0.48201259  0.67210805  1
  O  O583  1  0.41503955  0.48301065  0.92234304  1
  O  O584  1  0.41049391  0.81542654  0.17293234  1
  O  O585  1  0.40985278  0.81509870  0.42186884  1
  O  O586  1  0.41285139  0.81397349  0.67223935  1
  O  O587  1  0.41359214  0.81377733  0.92272189  1
  O  O588  1  0.91357909  0.14767747  0.17207106  1
  O  O589  1  0.91489311  0.14891777  0.42176078  1
  O  O590  1  0.91250061  0.14790508  0.67207706  1
  O  O591  1  0.91281257  0.14877620  0.92243373  1
  O  O592  1  0.91136978  0.48108428  0.17187185  1
  O  O593  1  0.91401259  0.48251632  0.42191348  1
  O  O594  1  0.91354932  0.48205478  0.67232572  1
  O  O595  1  0.91317875  0.48263029  0.92318072  1
  O  O596  1  0.91408237  0.81579334  0.17332897  1
  O  O597  1  0.91277578  0.81372807  0.42240781  1
  O  O598  1  0.91286163  0.81523026  0.67229273  1
  O  O599  1  0.91348528  0.81354776  0.92284729  1
  O  O600  1  0.08563476  0.18451830  0.07778094  1
  O  O601  1  0.08625266  0.18572086  0.32748265  1
  O  O602  1  0.08688786  0.18598975  0.57767524  1
  O  O603  1  0.08841459  0.18665866  0.82657532  1
  O  O604  1  0.08983921  0.51959967  0.07751159  1
  O  O605  1  0.08694994  0.51821383  0.32702499  1
  O  O606  1  0.08590995  0.51855969  0.57765987  1
  O  O607  1  0.08689022  0.51779196  0.82835779  1
  O  O608  1  0.08819720  0.85120901  0.07814779  1
  O  O609  1  0.08963647  0.85070770  0.32785907  1
  O  O610  1  0.08645964  0.84993995  0.57710337  1
  O  O611  1  0.08817562  0.85033416  0.82879828  1
  O  O612  1  0.58935528  0.18649476  0.07725391  1
  O  O613  1  0.58571391  0.18545752  0.32736893  1
  O  O614  1  0.58692860  0.18635896  0.57722335  1
  O  O615  1  0.58961896  0.18503639  0.82791413  1
  O  O616  1  0.58822645  0.51775514  0.07915891  1
  O  O617  1  0.58637653  0.51845178  0.32735295  1
  O  O618  1  0.58673400  0.51864600  0.57733167  1
  O  O619  1  0.58703519  0.51897229  0.82749657  1
  O  O620  1  0.58611347  0.85105041  0.07813606  1
  O  O621  1  0.58577530  0.85091168  0.32635854  1
  O  O622  1  0.58701346  0.85004985  0.57688609  1
  O  O623  1  0.58785452  0.85061040  0.82792359  1
  O  O624  1  0.33667785  0.18521496  0.04747186  1
  O  O625  1  0.33832939  0.18624182  0.29814651  1
  O  O626  1  0.33882936  0.18545013  0.54765580  1
  O  O627  1  0.33650213  0.18539875  0.79763609  1
  O  O628  1  0.33599366  0.51837018  0.04711805  1
  O  O629  1  0.33651764  0.51849830  0.29845201  1
  O  O630  1  0.33887578  0.51946753  0.54814535  1
  O  O631  1  0.33870255  0.51853235  0.79780406  1
  O  O632  1  0.33614205  0.85136933  0.04852830  1
  O  O633  1  0.33636077  0.85073693  0.29754499  1
  O  O634  1  0.33543925  0.85046672  0.54684353  1
  O  O635  1  0.33616959  0.85127835  0.79813332  1
  O  O636  1  0.83654872  0.18623713  0.04817453  1
  O  O637  1  0.83916264  0.18524807  0.29786791  1
  O  O638  1  0.83963576  0.18554504  0.54764469  1
  O  O639  1  0.83627495  0.18566847  0.79746355  1
  O  O640  1  0.83789535  0.51708487  0.04668349  1
  O  O641  1  0.83676891  0.51942818  0.29875859  1
  O  O642  1  0.83939744  0.51902889  0.54793082  1
  O  O643  1  0.83963134  0.51935473  0.79775447  1
  O  O644  1  0.83850866  0.85177318  0.04832105  1
  O  O645  1  0.83759680  0.85028413  0.29686178  1
  O  O646  1  0.83911498  0.85055391  0.54774133  1
  O  O647  1  0.83840427  0.85010144  0.79663025  1
  O  O648  1  0.16045329  0.14777088  0.20226699  1
  O  O649  1  0.16163310  0.14784589  0.45142809  1
  O  O650  1  0.16289908  0.14969314  0.70220738  1
  O  O651  1  0.16135202  0.14743834  0.95328448  1
  O  O652  1  0.16324900  0.48265119  0.20361291  1
  O  O653  1  0.16098304  0.48186831  0.45240462  1
  O  O654  1  0.16072752  0.48106216  0.70163949  1
  O  O655  1  0.16195973  0.48295664  0.95187791  1
  O  O656  1  0.16200738  0.81408553  0.20289974  1
  O  O657  1  0.16155236  0.81494197  0.45248883  1
  O  O658  1  0.16043433  0.81420157  0.70208662  1
  O  O659  1  0.16027359  0.81509971  0.95335102  1
  O  O660  1  0.66263784  0.14716097  0.20304645  1
  O  O661  1  0.66406791  0.14830189  0.45188380  1
  O  O662  1  0.66203990  0.14925245  0.70266970  1
  O  O663  1  0.66226680  0.14931351  0.95278055  1
  O  O664  1  0.66113912  0.48346679  0.20360454  1
  O  O665  1  0.66101223  0.48175047  0.45214836  1
  O  O666  1  0.66108255  0.48154710  0.70156514  1
  O  O667  1  0.66257662  0.48092467  0.95185475  1
  O  O668  1  0.66413432  0.81458034  0.20270055  1
  O  O669  1  0.66414547  0.81484929  0.45238193  1
  O  O670  1  0.66292206  0.81422559  0.70141337  1
  O  O671  1  0.66213763  0.81503598  0.95169203  1
