# generated using pymatgen
data_Na2MnFe(PO4)2
_symmetry_space_group_name_H-M   'P 1'
_cell_length_a   21.07847968
_cell_length_b   18.93031469
_cell_length_c   20.03829997
_cell_angle_alpha   90.00025124
_cell_angle_beta   90.00041290
_cell_angle_gamma   89.99880134
_symmetry_Int_Tables_number   1
_chemical_formula_structural   Na2MnFe(PO4)2
_chemical_formula_sum   'Na96 Mn48 Fe48 P96 O384'
_cell_volume   7995.72760666
_cell_formula_units_Z   48
loop_
 _symmetry_equiv_pos_site_id
 _symmetry_equiv_pos_as_xyz
  1  'x, y, z'
loop_
 _atom_site_type_symbol
 _atom_site_label
 _atom_site_symmetry_multiplicity
 _atom_site_fract_x
 _atom_site_fract_y
 _atom_site_fract_z
 _atom_site_occupancy
  Na  Na0  1  -0.00179023  -0.00047313  0.00011169  1
  Na  Na1  1  -0.00112753  -0.00056198  0.25107139  1
  Na  Na2  1  0.00137822  0.00055589  0.49889235  1
  Na  Na3  1  -0.00102503  -0.00050028  0.74972447  1
  Na  Na4  1  0.00225549  0.33397617  -0.00101625  1
  Na  Na5  1  0.00128004  0.33304526  0.25032480  1
  Na  Na6  1  0.00164121  0.33408474  0.49987107  1
  Na  Na7  1  0.00048711  0.33330443  0.75074993  1
  Na  Na8  1  -0.00285308  0.66601910  0.00065678  1
  Na  Na9  1  -0.00185691  0.66685724  0.24993614  1
  Na  Na10  1  -0.00200196  0.66665126  0.49957359  1
  Na  Na11  1  -0.00157466  0.66677510  0.74952608  1
  Na  Na12  1  0.49919257  0.00005926  0.00071427  1
  Na  Na13  1  0.50093636  0.00037298  0.24989138  1
  Na  Na14  1  0.50235390  0.00075426  0.49949636  1
  Na  Na15  1  0.50012425  -0.00009419  0.74995526  1
  Na  Na16  1  0.50195856  0.33350264  0.00053122  1
  Na  Na17  1  0.50354438  0.33380425  0.25022190  1
  Na  Na18  1  0.50327337  0.33396705  0.50038997  1
  Na  Na19  1  0.50019268  0.33247142  0.74959502  1
  Na  Na20  1  0.49852603  0.66593941  0.00093097  1
  Na  Na21  1  0.49911749  0.66671870  0.24987266  1
  Na  Na22  1  0.49845730  0.66635961  0.50027385  1
  Na  Na23  1  0.50018419  0.66692828  0.74902000  1
  Na  Na24  1  0.25208247  0.00119360  0.12564501  1
  Na  Na25  1  0.24845795  -0.00082433  0.37520595  1
  Na  Na26  1  0.25107933  0.00045040  0.62441288  1
  Na  Na27  1  0.25218550  0.00053123  0.87490473  1
  Na  Na28  1  0.24918349  0.33315384  0.12525817  1
  Na  Na29  1  0.24806094  0.33310585  0.37429403  1
  Na  Na30  1  0.24756104  0.33287707  0.62533351  1
  Na  Na31  1  0.24885355  0.33316264  0.87543721  1
  Na  Na32  1  0.25327168  0.66755981  0.12632093  1
  Na  Na33  1  0.25199083  0.66695400  0.37459646  1
  Na  Na34  1  0.25218249  0.66725180  0.62404548  1
  Na  Na35  1  0.25185811  0.66671687  0.87469404  1
  Na  Na36  1  0.75050487  0.00032534  0.12489708  1
  Na  Na37  1  0.74866637  -0.00040873  0.37592328  1
  Na  Na38  1  0.74733911  -0.00095473  0.62389537  1
  Na  Na39  1  0.74899929  -0.00022598  0.87498693  1
  Na  Na40  1  0.74660224  0.33217637  0.12531774  1
  Na  Na41  1  0.74813633  0.33281442  0.37437102  1
  Na  Na42  1  0.74854773  0.33277419  0.62490234  1
  Na  Na43  1  0.74909551  0.33329074  0.87580934  1
  Na  Na44  1  0.75057521  0.66719100  0.12504144  1
  Na  Na45  1  0.75043585  0.66706696  0.37475766  1
  Na  Na46  1  0.75016634  0.66634112  0.62425233  1
  Na  Na47  1  0.75129981  0.66699248  0.87582313  1
  Na  Na48  1  0.00034852  0.16636773  0.00006970  1
  Na  Na49  1  -0.00125020  0.16730981  0.25079657  1
  Na  Na50  1  0.00092380  0.16611352  0.49933860  1
  Na  Na51  1  -0.00105277  0.16764928  0.75048473  1
  Na  Na52  1  0.00076849  0.49912795  -0.00059647  1
  Na  Na53  1  0.00118529  0.49947879  0.25000970  1
  Na  Na54  1  0.00053838  0.49928795  0.49974619  1
  Na  Na55  1  -0.00058816  0.49962961  0.75043751  1
  Na  Na56  1  -0.00255380  0.83370381  0.00048806  1
  Na  Na57  1  -0.00151892  0.83330528  0.25052618  1
  Na  Na58  1  -0.00008454  0.83287685  0.49912354  1
  Na  Na59  1  -0.00070764  0.83315992  0.74912774  1
  Na  Na60  1  0.49812438  0.16797017  0.00024648  1
  Na  Na61  1  0.49951624  0.16746605  0.24991042  1
  Na  Na62  1  0.50301475  0.16566371  0.49982224  1
  Na  Na63  1  0.50049577  0.16673534  0.75015008  1
  Na  Na64  1  0.50109624  0.49999054  0.00048287  1
  Na  Na65  1  0.50126301  0.49994500  0.24978724  1
  Na  Na66  1  0.49949365  0.50104359  0.50057358  1
  Na  Na67  1  0.50129182  0.49934545  0.74964572  1
  Na  Na68  1  0.50013787  0.83330581  0.00109011  1
  Na  Na69  1  0.50240740  0.83228193  0.25017775  1
  Na  Na70  1  0.50067851  0.83344592  0.49955928  1
  Na  Na71  1  0.49984056  0.83339238  0.74895130  1
  Na  Na72  1  0.25229662  0.16655364  0.12569682  1
  Na  Na73  1  0.24896500  0.16702528  0.37419794  1
  Na  Na74  1  0.25014843  0.16700252  0.62473990  1
  Na  Na75  1  0.25360485  0.16618948  0.87573224  1
  Na  Na76  1  0.25030278  0.49976784  0.12588727  1
  Na  Na77  1  0.24978184  0.50036500  0.37509230  1
  Na  Na78  1  0.24969691  0.49986927  0.62425149  1
  Na  Na79  1  0.24853194  0.50011740  0.87501602  1
  Na  Na80  1  0.25156159  0.83252533  0.12584627  1
  Na  Na81  1  0.25044130  0.83277011  0.37456862  1
  Na  Na82  1  0.25002025  0.83388496  0.62505215  1
  Na  Na83  1  0.25150682  0.83308183  0.87397352  1
  Na  Na84  1  0.75011845  0.16685870  0.12559813  1
  Na  Na85  1  0.74906434  0.16686754  0.37591012  1
  Na  Na86  1  0.74707603  0.16786122  0.62418653  1
  Na  Na87  1  0.74952950  0.16715191  0.87472583  1
  Na  Na88  1  0.74779910  0.50026277  0.12467015  1
  Na  Na89  1  0.74864184  0.50066310  0.37475543  1
  Na  Na90  1  0.75069502  0.49957457  0.62451403  1
  Na  Na91  1  0.74932119  0.49962399  0.87623589  1
  Na  Na92  1  0.74936183  0.83340152  0.12520821  1
  Na  Na93  1  0.74921839  0.83309055  0.37443695  1
  Na  Na94  1  0.74843410  0.83387905  0.62433257  1
  Na  Na95  1  0.75029714  0.83306547  0.87553671  1
  Mn  Mn96  1  0.89205074  0.25009966  0.62675475  1
  Mn  Mn97  1  0.89167857  0.91719241  0.62646972  1
  Mn  Mn98  1  0.35783516  0.08314767  0.50152386  1
  Mn  Mn99  1  0.10787934  0.08360381  0.12281499  1
  Mn  Mn100  1  0.89144727  0.91698025  0.12808455  1
  Mn  Mn101  1  0.60768702  0.08361318  0.12307107  1
  Mn  Mn102  1  0.60719378  0.08364102  0.87251352  1
  Mn  Mn103  1  0.85673593  0.08375414  0.75169192  1
  Mn  Mn104  1  0.14259142  0.91686023  0.99766328  1
  Mn  Mn105  1  0.39259179  0.58243483  0.87717683  1
  Mn  Mn106  1  0.10860903  0.08364204  0.62297010  1
  Mn  Mn107  1  0.14266600  0.58392431  0.99796268  1
  Mn  Mn108  1  0.89178512  0.58255791  0.62737575  1
  Mn  Mn109  1  0.89228966  0.25034856  0.12679047  1
  Mn  Mn110  1  0.89188653  0.58224036  0.12780727  1
  Mn  Mn111  1  0.64230648  0.91708304  0.99762860  1
  Mn  Mn112  1  0.10788594  0.74958575  0.62191426  1
  Mn  Mn113  1  0.85707050  0.41649285  0.25205333  1
  Mn  Mn114  1  0.39351283  0.91666071  0.37747723  1
  Mn  Mn115  1  0.14224825  0.91639597  0.24787658  1
  Mn  Mn116  1  0.60751139  0.75019045  0.62241248  1
  Mn  Mn117  1  0.39351588  0.25085970  0.37771873  1
  Mn  Mn118  1  0.85769183  0.41670849  0.50155267  1
  Mn  Mn119  1  0.14234229  0.24928800  0.74856646  1
  Mn  Mn120  1  0.35789568  0.41674341  0.00223289  1
  Mn  Mn121  1  0.85721895  0.41644068  0.00262319  1
  Mn  Mn122  1  0.10775982  0.74960432  0.12260117  1
  Mn  Mn123  1  0.10727608  0.74984290  0.87384259  1
  Mn  Mn124  1  0.64182550  0.58364189  0.49726088  1
  Mn  Mn125  1  0.64184049  0.58332425  0.99762107  1
  Mn  Mn126  1  0.35853420  0.41646739  0.25274219  1
  Mn  Mn127  1  0.14214896  0.24957449  0.24766086  1
  Mn  Mn128  1  0.14254665  0.58400489  0.49718322  1
  Mn  Mn129  1  0.14146039  0.58392371  0.74787882  1
  Mn  Mn130  1  0.39240141  0.91682342  0.87756923  1
  Mn  Mn131  1  0.85726419  0.74978342  0.75225114  1
  Mn  Mn132  1  0.60801174  0.74937549  0.87275344  1
  Mn  Mn133  1  0.85686644  0.08297538  0.50227911  1
  Mn  Mn134  1  0.85778694  0.08356574  0.00208417  1
  Mn  Mn135  1  0.39251776  0.24976325  0.62652259  1
  Mn  Mn136  1  0.39273609  0.91666157  0.12800883  1
  Mn  Mn137  1  0.35763972  0.41635194  0.50172855  1
  Mn  Mn138  1  0.60837605  0.41657186  0.62295363  1
  Mn  Mn139  1  0.14259641  0.58394651  0.24823476  1
  Mn  Mn140  1  0.35763042  0.41598316  0.75238900  1
  Mn  Mn141  1  0.35830417  0.75029314  0.75216917  1
  Mn  Mn142  1  0.10816652  0.08302826  0.87294560  1
  Mn  Mn143  1  0.14217204  0.91705114  0.74807375  1
  Fe  Fe144  1  0.64200466  0.91650009  0.74808443  1
  Fe  Fe145  1  0.10666140  0.74984921  0.37333949  1
  Fe  Fe146  1  0.60805558  0.08331322  0.37206521  1
  Fe  Fe147  1  0.89204961  0.58306477  0.37590799  1
  Fe  Fe148  1  0.64206798  0.91631822  0.49751081  1
  Fe  Fe149  1  0.35777199  0.08329211  0.00218037  1
  Fe  Fe150  1  0.35830832  0.75028355  0.00205961  1
  Fe  Fe151  1  0.35771771  0.08302499  0.25268749  1
  Fe  Fe152  1  0.89249482  0.25025123  0.37670294  1
  Fe  Fe153  1  0.85714270  0.75005085  0.00186374  1
  Fe  Fe154  1  0.60715292  0.08297660  0.62380773  1
  Fe  Fe155  1  0.39267321  0.58310773  0.62699298  1
  Fe  Fe156  1  0.85693107  0.08321040  0.25237338  1
  Fe  Fe157  1  0.10799636  0.41670452  0.12311197  1
  Fe  Fe158  1  0.35851919  0.75072243  0.25267728  1
  Fe  Fe159  1  0.60714729  0.74931982  0.12357187  1
  Fe  Fe160  1  0.60760197  0.41667518  0.87269814  1
  Fe  Fe161  1  0.14373136  0.24941356  0.99833185  1
  Fe  Fe162  1  0.10704604  0.41685248  0.62350751  1
  Fe  Fe163  1  0.64361664  0.91653202  0.24863528  1
  Fe  Fe164  1  0.39303108  0.91699707  0.62584272  1
  Fe  Fe165  1  0.60705215  0.41705369  0.12355015  1
  Fe  Fe166  1  0.64317964  0.58330122  0.74866452  1
  Fe  Fe167  1  0.39329991  0.25107655  0.12685722  1
  Fe  Fe168  1  0.35759726  0.75065374  0.50082904  1
  Fe  Fe169  1  0.39329785  0.58269866  0.12695142  1
  Fe  Fe170  1  0.14190136  0.24943749  0.49791411  1
  Fe  Fe171  1  0.85710045  0.41632900  0.75200046  1
  Fe  Fe172  1  0.85628458  0.75023029  0.25207501  1
  Fe  Fe173  1  0.64258999  0.25015996  0.74863960  1
  Fe  Fe174  1  0.64180568  0.24939653  0.99781103  1
  Fe  Fe175  1  0.14282311  0.91666990  0.49827863  1
  Fe  Fe176  1  0.85666451  0.75035738  0.50067753  1
  Fe  Fe177  1  0.10662280  0.08301201  0.37293028  1
  Fe  Fe178  1  0.60786186  0.41737153  0.37290954  1
  Fe  Fe179  1  0.10687342  0.41717486  0.37346192  1
  Fe  Fe180  1  0.89223427  0.91654720  0.37710805  1
  Fe  Fe181  1  0.64246425  0.24991114  0.49749072  1
  Fe  Fe182  1  0.89209664  0.25001832  0.87705354  1
  Fe  Fe183  1  0.89189977  0.58312394  0.87666997  1
  Fe  Fe184  1  0.39331548  0.25097250  0.87698482  1
  Fe  Fe185  1  0.35873821  0.08370190  0.75134686  1
  Fe  Fe186  1  0.10649254  0.41692645  0.87326828  1
  Fe  Fe187  1  0.39367611  0.58295790  0.37631715  1
  Fe  Fe188  1  0.64221428  0.58393381  0.24855276  1
  Fe  Fe189  1  0.64313845  0.24948045  0.24821602  1
  Fe  Fe190  1  0.89129545  0.91671790  0.87605944  1
  Fe  Fe191  1  0.60744742  0.74945063  0.37280935  1
  P  P192  1  0.05428513  0.25048955  0.10914677  1
  P  P193  1  0.05351045  0.24975407  0.36128525  1
  P  P194  1  0.05396966  0.25076117  0.60957027  1
  P  P195  1  0.05341935  0.25016364  0.86159567  1
  P  P196  1  0.05335298  0.58274036  0.11007173  1
  P  P197  1  0.05198471  0.58404887  0.36016407  1
  P  P198  1  0.05300443  0.58250470  0.60958490  1
  P  P199  1  0.05160508  0.58326916  0.86040235  1
  P  P200  1  0.05290510  0.91658267  0.11003944  1
  P  P201  1  0.05342126  0.91609033  0.36138101  1
  P  P202  1  0.05385182  0.91669753  0.60867493  1
  P  P203  1  0.05144194  0.91636579  0.86009741  1
  P  P204  1  0.55439699  0.25023186  0.11084571  1
  P  P205  1  0.55595241  0.24997146  0.36039614  1
  P  P206  1  0.55565895  0.24897950  0.61065158  1
  P  P207  1  0.55389833  0.25070772  0.86051188  1
  P  P208  1  0.55384266  0.58381162  0.11169100  1
  P  P209  1  0.55308651  0.58389042  0.35954066  1
  P  P210  1  0.55358070  0.58344624  0.61108737  1
  P  P211  1  0.55397676  0.58263648  0.85914473  1
  P  P212  1  0.55526208  0.91601122  0.11174822  1
  P  P213  1  0.55589647  0.91635349  0.36028136  1
  P  P214  1  0.55407981  0.91735501  0.61024399  1
  P  P215  1  0.55366177  0.91647674  0.85937558  1
  P  P216  1  0.44485924  0.08448113  0.13983467  1
  P  P217  1  0.44783535  0.08351173  0.38890748  1
  P  P218  1  0.44753022  0.08265032  0.63982953  1
  P  P219  1  0.44512142  0.08455057  0.88968178  1
  P  P220  1  0.44798426  0.41640664  0.13998038  1
  P  P221  1  0.44890408  0.41728133  0.39003752  1
  P  P222  1  0.44670061  0.41689188  0.63979499  1
  P  P223  1  0.44840581  0.41582805  0.89004183  1
  P  P224  1  0.44615991  0.74946738  0.13987499  1
  P  P225  1  0.44675626  0.74946992  0.38931252  1
  P  P226  1  0.44504317  0.75050935  0.63796153  1
  P  P227  1  0.44663319  0.74977379  0.89090461  1
  P  P228  1  0.94584511  0.08376476  0.14144066  1
  P  P229  1  0.94557084  0.08328394  0.38878817  1
  P  P230  1  0.94688128  0.08353452  0.63983498  1
  P  P231  1  0.94608791  0.08353154  0.88963284  1
  P  P232  1  0.94813099  0.41599235  0.14012470  1
  P  P233  1  0.94727344  0.41648608  0.38937817  1
  P  P234  1  0.94688364  0.41611014  0.64074697  1
  P  P235  1  0.94549785  0.41633891  0.88881812  1
  P  P236  1  0.94434391  0.74982791  0.14022224  1
  P  P237  1  0.94488197  0.75003368  0.38885095  1
  P  P238  1  0.94504509  0.75029506  0.63838212  1
  P  P239  1  0.94517726  0.74998058  0.89051413  1
  P  P240  1  0.19671527  0.08311015  0.23607749  1
  P  P241  1  0.19580041  0.08325769  0.48407825  1
  P  P242  1  0.19886187  0.08354845  0.73513278  1
  P  P243  1  0.19848706  0.08420956  0.98536700  1
  P  P244  1  0.19495434  0.41697322  0.23571653  1
  P  P245  1  0.19470451  0.41609913  0.48526159  1
  P  P246  1  0.19443783  0.41670186  0.73556677  1
  P  P247  1  0.19496343  0.41599450  0.98565539  1
  P  P248  1  0.19702895  0.74983390  0.23638620  1
  P  P249  1  0.19747094  0.75073683  0.48396672  1
  P  P250  1  0.19667773  0.74999758  0.73466945  1
  P  P251  1  0.19892898  0.74997947  0.98506370  1
  P  P252  1  0.69685539  0.08310140  0.23639607  1
  P  P253  1  0.69395864  0.08315720  0.48566806  1
  P  P254  1  0.69551908  0.08348604  0.73433400  1
  P  P255  1  0.69629716  0.08429512  0.98493144  1
  P  P256  1  0.69436192  0.41705028  0.23561392  1
  P  P257  1  0.69587613  0.41628665  0.48409790  1
  P  P258  1  0.69675952  0.41691260  0.73646083  1
  P  P259  1  0.69387212  0.41571752  0.98582597  1
  P  P260  1  0.69566636  0.74984536  0.23584805  1
  P  P261  1  0.69648782  0.75038650  0.48398044  1
  P  P262  1  0.69639600  0.74951475  0.73497007  1
  P  P263  1  0.69655797  0.74988449  0.98623887  1
  P  P264  1  0.30471349  0.25014019  0.01479978  1
  P  P265  1  0.30523436  0.24971128  0.26424479  1
  P  P266  1  0.30173320  0.25012144  0.51448187  1
  P  P267  1  0.30453598  0.24949219  0.76571301  1
  P  P268  1  0.30447267  0.58355637  0.01606763  1
  P  P269  1  0.30617844  0.58367678  0.26485158  1
  P  P270  1  0.30581359  0.58403170  0.51378685  1
  P  P271  1  0.30420465  0.58276485  0.76402974  1
  P  P272  1  0.30398981  0.91662377  0.01548219  1
  P  P273  1  0.30417475  0.91681927  0.26560699  1
  P  P274  1  0.30314105  0.91601887  0.51478181  1
  P  P275  1  0.30519239  0.91782954  0.76352823  1
  P  P276  1  0.80253883  0.25023533  0.01435018  1
  P  P277  1  0.80271229  0.24957476  0.26548782  1
  P  P278  1  0.80293678  0.25017386  0.51362418  1
  P  P279  1  0.80240004  0.25080192  0.76523734  1
  P  P280  1  0.80430565  0.58350098  0.01430064  1
  P  P281  1  0.80204756  0.58362148  0.26514103  1
  P  P282  1  0.80445546  0.58403568  0.51328236  1
  P  P283  1  0.80256325  0.58219002  0.76566255  1
  P  P284  1  0.80441470  0.91617571  0.01413673  1
  P  P285  1  0.80272210  0.91676268  0.26578072  1
  P  P286  1  0.80269445  0.91578144  0.51330246  1
  P  P287  1  0.80166339  0.91689840  0.76484639  1
  O  O288  1  0.05691645  0.24933447  0.18601831  1
  O  O289  1  0.05793605  0.24946913  0.43797284  1
  O  O290  1  0.05661465  0.24957195  0.68639192  1
  O  O291  1  0.05878088  0.24911824  0.93816835  1
  O  O292  1  0.05662250  0.58393667  0.18684674  1
  O  O293  1  0.05569461  0.58430093  0.43684034  1
  O  O294  1  0.05572675  0.58356919  0.68637178  1
  O  O295  1  0.05572610  0.58391374  0.93707368  1
  O  O296  1  0.05631877  0.91639176  0.18688230  1
  O  O297  1  0.05853261  0.91607898  0.43799305  1
  O  O298  1  0.05688386  0.91656180  0.68552384  1
  O  O299  1  0.05573251  0.91660075  0.93681448  1
  O  O300  1  0.55937203  0.24896744  0.18755350  1
  O  O301  1  0.55925225  0.24971044  0.43727664  1
  O  O302  1  0.55941104  0.25000619  0.68747725  1
  O  O303  1  0.55795753  0.24972408  0.93727138  1
  O  O304  1  0.55833702  0.58423595  0.18835053  1
  O  O305  1  0.55607519  0.58421726  0.43631020  1
  O  O306  1  0.55894715  0.58341297  0.68767681  1
  O  O307  1  0.55656973  0.58369313  0.93602034  1
  O  O308  1  0.55965923  0.91678855  0.18849151  1
  O  O309  1  0.55904855  0.91633688  0.43718792  1
  O  O310  1  0.55857088  0.91636672  0.68697944  1
  O  O311  1  0.55669006  0.91672650  0.93624717  1
  O  O312  1  0.44092191  0.08354447  0.06297807  1
  O  O313  1  0.44241974  0.08333468  0.31227301  1
  O  O314  1  0.44411164  0.08336213  0.56305163  1
  O  O315  1  0.44196968  0.08361891  0.81285357  1
  O  O316  1  0.44437898  0.41634978  0.06332845  1
  O  O317  1  0.44518003  0.41619880  0.31336732  1
  O  O318  1  0.44358832  0.41633995  0.56301503  1
  O  O319  1  0.44439219  0.41609406  0.81338156  1
  O  O320  1  0.44164883  0.75038305  0.06315176  1
  O  O321  1  0.44238889  0.75068062  0.31255781  1
  O  O322  1  0.44149243  0.75084978  0.56117155  1
  O  O323  1  0.44368892  0.75003707  0.81404492  1
  O  O324  1  0.94267819  0.08365818  0.06461808  1
  O  O325  1  0.94065553  0.08321356  0.31210043  1
  O  O326  1  0.94333892  0.08336877  0.56302788  1
  O  O327  1  0.94292580  0.08382263  0.81285779  1
  O  O328  1  0.94386497  0.41606121  0.06343185  1
  O  O329  1  0.94355013  0.41617419  0.31270975  1
  O  O330  1  0.94291776  0.41618385  0.56400570  1
  O  O331  1  0.94085963  0.41612108  0.81212630  1
  O  O332  1  0.94003220  0.74997587  0.06345665  1
  O  O333  1  0.94004783  0.75030988  0.31210681  1
  O  O334  1  0.94051403  0.75050927  0.56163278  1
  O  O335  1  0.94273737  0.75003819  0.81361085  1
  O  O336  1  0.19463231  0.08390887  0.06206464  1
  O  O337  1  0.19076752  0.08312578  0.31269424  1
  O  O338  1  0.19358292  0.08346238  0.56091352  1
  O  O339  1  0.19483575  0.08342063  0.81185444  1
  O  O340  1  0.19148204  0.41682184  0.06250507  1
  O  O341  1  0.18997754  0.41720415  0.31251321  1
  O  O342  1  0.19092373  0.41693857  0.56205001  1
  O  O343  1  0.18979212  0.41702453  0.81240632  1
  O  O344  1  0.19483464  0.74973690  0.06179990  1
  O  O345  1  0.19100112  0.74950977  0.31297141  1
  O  O346  1  0.19389551  0.74987600  0.56069921  1
  O  O347  1  0.19315800  0.74962781  0.81146040  1
  O  O348  1  0.69339551  0.08386913  0.06174657  1
  O  O349  1  0.69256343  0.08326081  0.31312330  1
  O  O350  1  0.69030182  0.08309072  0.56245169  1
  O  O351  1  0.69308959  0.08347447  0.81115455  1
  O  O352  1  0.68961034  0.41660696  0.06268139  1
  O  O353  1  0.69091817  0.41754945  0.31244589  1
  O  O354  1  0.69332001  0.41710324  0.56096851  1
  O  O355  1  0.69240148  0.41677250  0.81317295  1
  O  O356  1  0.69158883  0.74956804  0.06292615  1
  O  O357  1  0.69126212  0.74920388  0.31255042  1
  O  O358  1  0.69287052  0.74965499  0.56071563  1
  O  O359  1  0.69407888  0.74953734  0.81177148  1
  O  O360  1  0.30953888  0.25102441  0.18748925  1
  O  O361  1  0.30626592  0.25054515  0.43779193  1
  O  O362  1  0.30721100  0.25062144  0.68887416  1
  O  O363  1  0.30931109  0.25149714  0.93809806  1
  O  O364  1  0.31046522  0.58256668  0.18806649  1
  O  O365  1  0.31015458  0.58285552  0.43697723  1
  O  O366  1  0.30858748  0.58241973  0.68721869  1
  O  O367  1  0.30710364  0.58236813  0.93920744  1
  O  O368  1  0.30711219  0.91672490  0.18884346  1
  O  O369  1  0.30716752  0.91655698  0.43809347  1
  O  O370  1  0.30919414  0.91733672  0.68676435  1
  O  O371  1  0.30658861  0.91640793  0.93866902  1
  O  O372  1  0.80631941  0.25037130  0.18875885  1
  O  O373  1  0.80847019  0.25030395  0.43698360  1
  O  O374  1  0.80593769  0.25044293  0.68847787  1
  O  O375  1  0.80793658  0.25046860  0.93768858  1
  O  O376  1  0.80565201  0.58262293  0.18840491  1
  O  O377  1  0.80877834  0.58305434  0.43652841  1
  O  O378  1  0.80587012  0.58257763  0.68883227  1
  O  O379  1  0.80857747  0.58260434  0.93755185  1
  O  O380  1  0.80579175  0.91694375  0.18901432  1
  O  O381  1  0.80795623  0.91654870  0.43666912  1
  O  O382  1  0.80544292  0.91692289  0.68809536  1
  O  O383  1  0.80822566  0.91679032  0.93733970  1
  O  O384  1  0.23437477  0.25016484  0.03867673  1
  O  O385  1  0.23505511  0.24986728  0.28804006  1
  O  O386  1  0.23161932  0.24946677  0.53863609  1
  O  O387  1  0.23486687  0.24964878  0.79104627  1
  O  O388  1  0.23485637  0.58344324  0.04155202  1
  O  O389  1  0.23599707  0.58352169  0.28872163  1
  O  O390  1  0.23558216  0.58365651  0.53755796  1
  O  O391  1  0.23426868  0.58324341  0.78839933  1
  O  O392  1  0.23456382  0.91694771  0.04151848  1
  O  O393  1  0.23449431  0.91632110  0.29072995  1
  O  O394  1  0.23293967  0.91697846  0.53896135  1
  O  O395  1  0.23533945  0.91701279  0.78838807  1
  O  O396  1  0.73217809  0.24993630  0.03782165  1
  O  O397  1  0.73241423  0.24989548  0.28952136  1
  O  O398  1  0.73244316  0.25007629  0.53673579  1
  O  O399  1  0.73216513  0.25022640  0.78956998  1
  O  O400  1  0.73423987  0.58328026  0.03841815  1
  O  O401  1  0.73183598  0.58378083  0.28939826  1
  O  O402  1  0.73442971  0.58340400  0.53751005  1
  O  O403  1  0.73264291  0.58319791  0.79066071  1
  O  O404  1  0.73454489  0.91684442  0.03885001  1
  O  O405  1  0.73256816  0.91644651  0.29027773  1
  O  O406  1  0.73218430  0.91624925  0.53654730  1
  O  O407  1  0.73149255  0.91658939  0.78920448  1
  O  O408  1  0.26723852  0.08342195  0.21319424  1
  O  O409  1  0.26552767  0.08314547  0.45859399  1
  O  O410  1  0.26877962  0.08396205  0.71027294  1
  O  O411  1  0.26865783  0.08365651  0.96110291  1
  O  O412  1  0.26527130  0.41667473  0.21245811  1
  O  O413  1  0.26474319  0.41682180  0.46070350  1
  O  O414  1  0.26458689  0.41615525  0.71180052  1
  O  O415  1  0.26499306  0.41670694  0.96118677  1
  O  O416  1  0.26774470  0.75007568  0.21392625  1
  O  O417  1  0.26769964  0.75014866  0.45968632  1
  O  O418  1  0.26645868  0.75034774  0.70989586  1
  O  O419  1  0.26901266  0.74985709  0.96063179  1
  O  O420  1  0.76709881  0.08324813  0.21219693  1
  O  O421  1  0.76405281  0.08307711  0.46142947  1
  O  O422  1  0.76502703  0.08357399  0.70836872  1
  O  O423  1  0.76581677  0.08383201  0.95950728  1
  O  O424  1  0.76429735  0.41638054  0.21079115  1
  O  O425  1  0.76551469  0.41669306  0.45877207  1
  O  O426  1  0.76687804  0.41631415  0.71180515  1
  O  O427  1  0.76403044  0.41634763  0.96213799  1
  O  O428  1  0.76618069  0.75020678  0.21225114  1
  O  O429  1  0.76655475  0.75022858  0.45949494  1
  O  O430  1  0.76584630  0.75001020  0.70898823  1
  O  O431  1  0.76681412  0.74994605  0.96245240  1
  O  O432  1  0.01560867  0.08360485  0.16635714  1
  O  O433  1  0.01606246  0.08313552  0.41227395  1
  O  O434  1  0.01654677  0.08359712  0.66492363  1
  O  O435  1  0.01573277  0.08316446  0.91512225  1
  O  O436  1  0.01819570  0.41612205  0.16442346  1
  O  O437  1  0.01737904  0.41671529  0.41399558  1
  O  O438  1  0.01700267  0.41644402  0.66496749  1
  O  O439  1  0.01591652  0.41639670  0.91255828  1
  O  O440  1  0.01448741  0.74992671  0.16409012  1
  O  O441  1  0.01536535  0.74999720  0.41246864  1
  O  O442  1  0.01506688  0.75001696  0.66246092  1
  O  O443  1  0.01473943  0.74982448  0.91636656  1
  O  O444  1  0.51501477  0.08390754  0.16378872  1
  O  O445  1  0.51832933  0.08331347  0.41188916  1
  O  O446  1  0.51753023  0.08311308  0.66464331  1
  O  O447  1  0.51497938  0.08394265  0.91461505  1
  O  O448  1  0.51811725  0.41662708  0.16454755  1
  O  O449  1  0.51897543  0.41754294  0.41463236  1
  O  O450  1  0.51647311  0.41619600  0.66477659  1
  O  O451  1  0.51840667  0.41654111  0.91467278  1
  O  O452  1  0.51659956  0.74960788  0.16350292  1
  O  O453  1  0.51715374  0.74985933  0.41301574  1
  O  O454  1  0.51494273  0.75017843  0.66274551  1
  O  O455  1  0.51630788  0.74950925  0.91608274  1
  O  O456  1  0.48392265  0.25027509  0.08745289  1
  O  O457  1  0.48602701  0.25029274  0.33577600  1
  O  O458  1  0.48568899  0.24986450  0.58603794  1
  O  O459  1  0.48369256  0.25009954  0.83636783  1
  O  O460  1  0.48355558  0.58328977  0.08762566  1
  O  O461  1  0.48311057  0.58353398  0.33461479  1
  O  O462  1  0.48322004  0.58359227  0.58759077  1
  O  O463  1  0.48437486  0.58299791  0.83379031  1
  O  O464  1  0.48520445  0.91647239  0.08764960  1
  O  O465  1  0.48597786  0.91634347  0.33562428  1
  O  O466  1  0.48379091  0.91693380  0.58616890  1
  O  O467  1  0.48394179  0.91652969  0.83450853  1
  O  O468  1  0.98459369  0.25029978  0.08389663  1
  O  O469  1  0.98316909  0.25009180  0.33721868  1
  O  O470  1  0.98432844  0.25016265  0.58406307  1
  O  O471  1  0.98300014  0.25050356  0.83793209  1
  O  O472  1  0.98359905  0.58245482  0.08513749  1
  O  O473  1  0.98190237  0.58358199  0.33533287  1
  O  O474  1  0.98337972  0.58257555  0.58421196  1
  O  O475  1  0.98147328  0.58327274  0.83587027  1
  O  O476  1  0.98304850  0.91669640  0.08559776  1
  O  O477  1  0.98288904  0.91617063  0.33788962  1
  O  O478  1  0.98409875  0.91684031  0.58360818  1
  O  O479  1  0.98130700  0.91639758  0.83566410  1
  O  O480  1  0.08867763  0.31567986  0.07743636  1
  O  O481  1  0.08717162  0.31482456  0.32837277  1
  O  O482  1  0.08789097  0.31627481  0.57777789  1
  O  O483  1  0.08689815  0.31529609  0.82861988  1
  O  O484  1  0.08707130  0.64786018  0.07707175  1
  O  O485  1  0.08560000  0.64924135  0.32724606  1
  O  O486  1  0.08725862  0.64732818  0.57666014  1
  O  O487  1  0.08523658  0.64834367  0.82732282  1
  O  O488  1  0.08674480  0.98183743  0.07764705  1
  O  O489  1  0.08658740  0.98124792  0.32793283  1
  O  O490  1  0.08829325  0.98174026  0.57649276  1
  O  O491  1  0.08538257  0.98143114  0.82723451  1
  O  O492  1  0.58776900  0.31541481  0.07803698  1
  O  O493  1  0.58994046  0.31508715  0.32792034  1
  O  O494  1  0.59011184  0.31360560  0.57749015  1
  O  O495  1  0.58735927  0.31594575  0.82759394  1
  O  O496  1  0.58687833  0.64892487  0.07806923  1
  O  O497  1  0.58692683  0.64897881  0.32667263  1
  O  O498  1  0.58678145  0.64837469  0.57732619  1
  O  O499  1  0.58855015  0.64737747  0.82644035  1
  O  O500  1  0.58866655  0.98105008  0.07837907  1
  O  O501  1  0.58982031  0.98138879  0.32742603  1
  O  O502  1  0.58743055  0.98259749  0.57744797  1
  O  O503  1  0.58782548  0.98145738  0.82681031  1
  O  O504  1  0.41110069  0.01961948  0.17334384  1
  O  O505  1  0.41472925  0.01849538  0.42254530  1
  O  O506  1  0.41370825  0.01744213  0.67221368  1
  O  O507  1  0.41092332  0.01981778  0.92294554  1
  O  O508  1  0.41454056  0.35126058  0.17300391  1
  O  O509  1  0.41533359  0.35228478  0.42338523  1
  O  O510  1  0.41252971  0.35183034  0.67223288  1
  O  O511  1  0.41487635  0.35067555  0.92296897  1
  O  O512  1  0.41268840  0.68435840  0.17275030  1
  O  O513  1  0.41333627  0.68421833  0.42191476  1
  O  O514  1  0.41124889  0.68538208  0.67072726  1
  O  O515  1  0.41216433  0.68479626  0.92311619  1
  O  O516  1  0.91136276  0.01890432  0.17403252  1
  O  O517  1  0.91236934  0.01812608  0.42218937  1
  O  O518  1  0.91264633  0.01848977  0.67213948  1
  O  O519  1  0.91174770  0.01835501  0.92169495  1
  O  O520  1  0.91438912  0.35095445  0.17297001  1
  O  O521  1  0.91370236  0.35140807  0.42249614  1
  O  O522  1  0.91314337  0.35100453  0.67358562  1
  O  O523  1  0.91231551  0.35126681  0.92241622  1
  O  O524  1  0.91058348  0.68479515  0.17324016  1
  O  O525  1  0.91147301  0.68486195  0.42186241  1
  O  O526  1  0.91138848  0.68521234  0.67140078  1
  O  O527  1  0.91063587  0.68487088  0.92256355  1
  O  O528  1  0.16390499  0.01796735  0.20244453  1
  O  O529  1  0.16140425  0.01803665  0.45201029  1
  O  O530  1  0.16496357  0.01857274  0.70234344  1
  O  O531  1  0.16458694  0.01921899  0.95239801  1
  O  O532  1  0.16140029  0.35199540  0.20244914  1
  O  O533  1  0.16127312  0.35073136  0.45260042  1
  O  O534  1  0.16063265  0.35164428  0.70272365  1
  O  O535  1  0.16153946  0.35052814  0.95314155  1
  O  O536  1  0.16440462  0.68475267  0.20237701  1
  O  O537  1  0.16331503  0.68592847  0.45078477  1
  O  O538  1  0.16297483  0.68489050  0.70175733  1
  O  O539  1  0.16507371  0.68492511  0.95218370  1
  O  O540  1  0.66349872  0.01795084  0.20332944  1
  O  O541  1  0.66024704  0.01814969  0.45257919  1
  O  O542  1  0.66107256  0.01839115  0.70212534  1
  O  O543  1  0.66187542  0.01937747  0.95255392  1
  O  O544  1  0.66020339  0.35189893  0.20323578  1
  O  O545  1  0.66162176  0.35118258  0.45211099  1
  O  O546  1  0.66281478  0.35197806  0.70350755  1
  O  O547  1  0.66056338  0.35049078  0.95289445  1
  O  O548  1  0.66246770  0.68484219  0.20209757  1
  O  O549  1  0.66256554  0.68542426  0.45090360  1
  O  O550  1  0.66250790  0.68413218  0.70273850  1
  O  O551  1  0.66334018  0.68488472  0.95268876  1
  O  O552  1  0.33812314  0.31504782  0.04875455  1
  O  O553  1  0.33854733  0.31468435  0.29795518  1
  O  O554  1  0.33510925  0.31517418  0.54771390  1
  O  O555  1  0.33878191  0.31433492  0.79884708  1
  O  O556  1  0.33900149  0.64868215  0.04786627  1
  O  O557  1  0.33986681  0.64884981  0.29752562  1
  O  O558  1  0.33910462  0.64952056  0.54629116  1
  O  O559  1  0.33822709  0.64776230  0.79668231  1
  O  O560  1  0.33860155  0.98175606  0.04737898  1
  O  O561  1  0.33804329  0.98209282  0.29804201  1
  O  O562  1  0.33761519  0.98080086  0.54764534  1
  O  O563  1  0.33859146  0.98318666  0.79624574  1
  O  O564  1  0.83544950  0.31529858  0.04818508  1
  O  O565  1  0.83655587  0.31457910  0.29858650  1
  O  O566  1  0.83587345  0.31527782  0.54721860  1
  O  O567  1  0.83604787  0.31579458  0.79826660  1
  O  O568  1  0.83774242  0.64872423  0.04693155  1
  O  O569  1  0.83614572  0.64861035  0.29758002  1
  O  O570  1  0.83751327  0.64955162  0.54588873  1
  O  O571  1  0.83717878  0.64703745  0.79809967  1
  O  O572  1  0.83824848  0.98115497  0.04720499  1
  O  O573  1  0.83654668  0.98173151  0.29872122  1
  O  O574  1  0.83582207  0.98071265  0.54714968  1
  O  O575  1  0.83540300  0.98198597  0.79768407  1
  O  O576  1  0.41153865  0.14979937  0.17246802  1
  O  O577  1  0.41481812  0.14854298  0.42258118  1
  O  O578  1  0.41336151  0.14753708  0.67274067  1
  O  O579  1  0.41151687  0.14996154  0.92204168  1
  O  O580  1  0.41420492  0.48142406  0.17276675  1
  O  O581  1  0.41482396  0.48240797  0.42212728  1
  O  O582  1  0.41300157  0.48214405  0.67221141  1
  O  O583  1  0.41433075  0.48075100  0.92291489  1
  O  O584  1  0.41291159  0.81442683  0.17377644  1
  O  O585  1  0.41311020  0.81424838  0.42305086  1
  O  O586  1  0.41181419  0.81587783  0.67087903  1
  O  O587  1  0.41252830  0.81481740  0.92352485  1
  O  O588  1  0.91159815  0.14888620  0.17369228  1
  O  O589  1  0.91251683  0.14852034  0.42210779  1
  O  O590  1  0.91270902  0.14863256  0.67212300  1
  O  O591  1  0.91217539  0.14883192  0.92221220  1
  O  O592  1  0.91412290  0.48086570  0.17309550  1
  O  O593  1  0.91349246  0.48171700  0.42185793  1
  O  O594  1  0.91264076  0.48095456  0.67359812  1
  O  O595  1  0.91232272  0.48154149  0.92203602  1
  O  O596  1  0.91051603  0.81468604  0.17355359  1
  O  O597  1  0.91147483  0.81504282  0.42244500  1
  O  O598  1  0.91164682  0.81535412  0.67163712  1
  O  O599  1  0.91076391  0.81513729  0.92259241  1
  O  O600  1  0.08875165  0.18558184  0.07646299  1
  O  O601  1  0.08666093  0.18460482  0.32776597  1
  O  O602  1  0.08876422  0.18613989  0.57675951  1
  O  O603  1  0.08641972  0.18512830  0.82761780  1
  O  O604  1  0.08753668  0.51753381  0.07813874  1
  O  O605  1  0.08621186  0.51900277  0.32785544  1
  O  O606  1  0.08717460  0.51717053  0.57782695  1
  O  O607  1  0.08546147  0.51811760  0.82791337  1
  O  O608  1  0.08677590  0.85151141  0.07740177  1
  O  O609  1  0.08645835  0.85088371  0.32787537  1
  O  O610  1  0.08814238  0.85177749  0.57597489  1
  O  O611  1  0.08519847  0.85122941  0.82744959  1
  O  O612  1  0.58749544  0.18533520  0.07675335  1
  O  O613  1  0.58958156  0.18487290  0.32718260  1
  O  O614  1  0.58887698  0.18352566  0.57809525  1
  O  O615  1  0.58779525  0.18600607  0.82700913  1
  O  O616  1  0.58738114  0.51874711  0.07868198  1
  O  O617  1  0.58745181  0.51898380  0.32711941  1
  O  O618  1  0.58677201  0.51834934  0.57765632  1
  O  O619  1  0.58820180  0.51729964  0.82731041  1
  O  O620  1  0.58846468  0.85059761  0.07903118  1
  O  O621  1  0.58973698  0.85116339  0.32773164  1
  O  O622  1  0.58788888  0.85258490  0.57656193  1
  O  O623  1  0.58782819  0.85144567  0.82692232  1
  O  O624  1  0.33840684  0.18498787  0.04747423  1
  O  O625  1  0.33867527  0.18443187  0.29697719  1
  O  O626  1  0.33592075  0.18507229  0.54696071  1
  O  O627  1  0.33904030  0.18432525  0.79735405  1
  O  O628  1  0.33888311  0.51855912  0.04875243  1
  O  O629  1  0.33977003  0.51876929  0.29847698  1
  O  O630  1  0.33955105  0.51929400  0.54752588  1
  O  O631  1  0.33746284  0.51765847  0.79747364  1
  O  O632  1  0.33827590  0.85147118  0.04775710  1
  O  O633  1  0.33863852  0.85180262  0.29784285  1
  O  O634  1  0.33662367  0.85071717  0.54740706  1
  O  O635  1  0.33924565  0.85299387  0.79669129  1
  O  O636  1  0.83603529  0.18525713  0.04757441  1
  O  O637  1  0.83636850  0.18453141  0.29836542  1
  O  O638  1  0.83587488  0.18510279  0.54724901  1
  O  O639  1  0.83650124  0.18584768  0.79806677  1
  O  O640  1  0.83758408  0.51837925  0.04779100  1
  O  O641  1  0.83590241  0.51864379  0.29823537  1
  O  O642  1  0.83812234  0.51911960  0.54668599  1
  O  O643  1  0.83623949  0.51696216  0.79822499  1
  O  O644  1  0.83763973  0.85086852  0.04699615  1
  O  O645  1  0.83669837  0.85163664  0.29828346  1
  O  O646  1  0.83555487  0.85050902  0.54647598  1
  O  O647  1  0.83579964  0.85205015  0.79769221  1
  O  O648  1  0.16364922  0.14812341  0.20241039  1
  O  O649  1  0.16137883  0.14824820  0.45168068  1
  O  O650  1  0.16476345  0.14859288  0.70261258  1
  O  O651  1  0.16512341  0.14945785  0.95246429  1
  O  O652  1  0.16170374  0.48202132  0.20232663  1
  O  O653  1  0.16064766  0.48094552  0.45189239  1
  O  O654  1  0.16103535  0.48164410  0.70202939  1
  O  O655  1  0.16070572  0.48070946  0.95241066  1
  O  O656  1  0.16399274  0.81480985  0.20267974  1
  O  O657  1  0.16373595  0.81601378  0.45155560  1
  O  O658  1  0.16253871  0.81508793  0.70235259  1
  O  O659  1  0.16514170  0.81509269  0.95232772  1
  O  O660  1  0.66334084  0.14817838  0.20319656  1
  O  O661  1  0.66048799  0.14829359  0.45251259  1
  O  O662  1  0.66108500  0.14867174  0.70239596  1
  O  O663  1  0.66217169  0.14943960  0.95269970  1
  O  O664  1  0.66084735  0.48227201  0.20261417  1
  O  O665  1  0.66130505  0.48117533  0.45159535  1
  O  O666  1  0.66362676  0.48227069  0.70327284  1
  O  O667  1  0.66007149  0.48052666  0.95239086  1
  O  O668  1  0.66226893  0.81504416  0.20285917  1
  O  O669  1  0.66235331  0.81531898  0.45150273  1
  O  O670  1  0.66171715  0.81451422  0.70288799  1
  O  O671  1  0.66319583  0.81487701  0.95295136  1
