# generated using pymatgen
data_Na2MnFe(PO4)2
_symmetry_space_group_name_H-M   'P 1'
_cell_length_a   21.08799080
_cell_length_b   18.94027106
_cell_length_c   20.04638138
_cell_angle_alpha   90.00014788
_cell_angle_beta   89.99866714
_cell_angle_gamma   90.00077434
_symmetry_Int_Tables_number   1
_chemical_formula_structural   Na2MnFe(PO4)2
_chemical_formula_sum   'Na96 Mn48 Fe48 P96 O384'
_cell_volume   8006.77052368
_cell_formula_units_Z   48
loop_
 _symmetry_equiv_pos_site_id
 _symmetry_equiv_pos_as_xyz
  1  'x, y, z'
loop_
 _atom_site_type_symbol
 _atom_site_label
 _atom_site_symmetry_multiplicity
 _atom_site_fract_x
 _atom_site_fract_y
 _atom_site_fract_z
 _atom_site_occupancy
  Na  Na0  1  -0.00248387  -0.00065472  -0.00085959  1
  Na  Na1  1  -0.00181538  0.00002301  0.24956168  1
  Na  Na2  1  -0.00144214  0.00053953  0.50074522  1
  Na  Na3  1  -0.00321467  -0.00057145  0.75055177  1
  Na  Na4  1  0.00098499  0.33293612  -0.00045582  1
  Na  Na5  1  0.00444834  0.33430878  0.24966030  1
  Na  Na6  1  0.00093852  0.33356061  0.50002732  1
  Na  Na7  1  -0.00193940  0.33252876  0.75112165  1
  Na  Na8  1  0.00063719  0.66699814  0.00014036  1
  Na  Na9  1  0.00032996  0.66679970  0.24890863  1
  Na  Na10  1  -0.00044126  0.66688488  0.49939654  1
  Na  Na11  1  -0.00151640  0.66619789  0.75117056  1
  Na  Na12  1  0.49784334  -0.00014993  0.00019664  1
  Na  Na13  1  0.49936998  0.00031595  0.25075158  1
  Na  Na14  1  0.50162001  0.00044336  0.49924200  1
  Na  Na15  1  0.50142491  0.00067646  0.74947607  1
  Na  Na16  1  0.50001849  0.33365218  0.00083765  1
  Na  Na17  1  0.49926772  0.33374226  0.24981038  1
  Na  Na18  1  0.49914631  0.33303743  0.49988704  1
  Na  Na19  1  0.50081809  0.33359779  0.74898517  1
  Na  Na20  1  0.49942695  0.66611448  0.00114053  1
  Na  Na21  1  0.50077112  0.66665248  0.25044769  1
  Na  Na22  1  0.50386901  0.66756874  0.49965413  1
  Na  Na23  1  0.50288507  0.66739781  0.74974595  1
  Na  Na24  1  0.25177506  0.00097569  0.12600882  1
  Na  Na25  1  0.25128016  0.00086794  0.37450214  1
  Na  Na26  1  0.24964885  -0.00033720  0.62506785  1
  Na  Na27  1  0.24936542  -0.00066721  0.87492880  1
  Na  Na28  1  0.24921803  0.33319436  0.12422886  1
  Na  Na29  1  0.24948001  0.33316849  0.37515500  1
  Na  Na30  1  0.25196975  0.33378216  0.62532259  1
  Na  Na31  1  0.25145591  0.33361887  0.87463198  1
  Na  Na32  1  0.24902546  0.66677612  0.12571405  1
  Na  Na33  1  0.24804188  0.66612202  0.37471591  1
  Na  Na34  1  0.24831661  0.66676290  0.62441615  1
  Na  Na35  1  0.24932561  0.66731811  0.87561478  1
  Na  Na36  1  0.75194853  0.00047330  0.12489500  1
  Na  Na37  1  0.74981361  0.00007707  0.37390078  1
  Na  Na38  1  0.75112839  0.00100593  0.62523829  1
  Na  Na39  1  0.75254578  0.00098111  0.87522044  1
  Na  Na40  1  0.74788885  0.33295543  0.12396179  1
  Na  Na41  1  0.75003435  0.33394702  0.37499325  1
  Na  Na42  1  0.74921647  0.33317720  0.62506233  1
  Na  Na43  1  0.74888051  0.33348560  0.87611017  1
  Na  Na44  1  0.75142378  0.66681816  0.12493715  1
  Na  Na45  1  0.74995515  0.66648183  0.37588911  1
  Na  Na46  1  0.74912304  0.66622743  0.62506548  1
  Na  Na47  1  0.75107896  0.66676274  0.87408107  1
  Na  Na48  1  -0.00054468  0.16680922  0.00023931  1
  Na  Na49  1  0.00083580  0.16625938  0.24914540  1
  Na  Na50  1  -0.00067319  0.16642213  0.49997304  1
  Na  Na51  1  -0.00205439  0.16670701  0.75036479  1
  Na  Na52  1  0.00081072  0.49928712  -0.00096730  1
  Na  Na53  1  0.00175577  0.49936863  0.24965094  1
  Na  Na54  1  -0.00116509  0.50008624  0.50066360  1
  Na  Na55  1  -0.00397430  0.50115681  0.75156510  1
  Na  Na56  1  -0.00071366  0.83382346  -0.00030513  1
  Na  Na57  1  0.00089776  0.83266727  0.24950781  1
  Na  Na58  1  0.00060314  0.83291055  0.49934730  1
  Na  Na59  1  -0.00091531  0.83408720  0.75099272  1
  Na  Na60  1  0.49793148  0.16694743  0.00043621  1
  Na  Na61  1  0.49973963  0.16536753  0.24956570  1
  Na  Na62  1  0.50003976  0.16608036  0.50044781  1
  Na  Na63  1  0.50003434  0.16667182  0.74945297  1
  Na  Na64  1  0.49909945  0.49990663  0.00131041  1
  Na  Na65  1  0.49979721  0.50002711  0.25056348  1
  Na  Na66  1  0.50149344  0.49963122  0.49860777  1
  Na  Na67  1  0.50183300  0.49902510  0.74906627  1
  Na  Na68  1  0.50030578  0.83338675  0.00024763  1
  Na  Na69  1  0.49972989  0.83409868  0.25077549  1
  Na  Na70  1  0.50380888  0.83244000  0.49992111  1
  Na  Na71  1  0.50299556  0.83272108  0.74970657  1
  Na  Na72  1  0.24943822  0.16710354  0.12433110  1
  Na  Na73  1  0.24924543  0.16692317  0.37511523  1
  Na  Na74  1  0.25176400  0.16604249  0.62562805  1
  Na  Na75  1  0.25208525  0.16611899  0.87407638  1
  Na  Na76  1  0.25093425  0.49953393  0.12588594  1
  Na  Na77  1  0.25170219  0.49896739  0.37441551  1
  Na  Na78  1  0.25093595  0.49983027  0.62517143  1
  Na  Na79  1  0.25069048  0.50014642  0.87537728  1
  Na  Na80  1  0.24889986  0.83355857  0.12598518  1
  Na  Na81  1  0.24786046  0.83391892  0.37470800  1
  Na  Na82  1  0.24777012  0.83355268  0.62402679  1
  Na  Na83  1  0.24746568  0.83372312  0.87575070  1
  Na  Na84  1  0.75077149  0.16585250  0.12487922  1
  Na  Na85  1  0.75030273  0.16565936  0.37476131  1
  Na  Na86  1  0.74981350  0.16649680  0.62453971  1
  Na  Na87  1  0.75135136  0.16581858  0.87623695  1
  Na  Na88  1  0.74813689  0.50106392  0.12384035  1
  Na  Na89  1  0.74929660  0.50065985  0.37546142  1
  Na  Na90  1  0.75017410  0.49983523  0.62539093  1
  Na  Na91  1  0.75034474  0.49908590  0.87500387  1
  Na  Na92  1  0.75291739  0.83205232  0.12493380  1
  Na  Na93  1  0.74930949  0.83389581  0.37463056  1
  Na  Na94  1  0.74872733  0.83401371  0.62569269  1
  Na  Na95  1  0.75086999  0.83359552  0.87415701  1
  Mn  Mn96  1  0.89323923  0.25089870  0.37644085  1
  Mn  Mn97  1  0.10666559  0.08310651  0.62296931  1
  Mn  Mn98  1  0.39173616  0.91641129  0.87694154  1
  Mn  Mn99  1  0.39341113  0.58389360  0.62665698  1
  Mn  Mn100  1  0.60807249  0.75049014  0.12265659  1
  Mn  Mn101  1  0.39307139  0.91602373  0.37772886  1
  Mn  Mn102  1  0.39249464  0.58329655  0.87718962  1
  Mn  Mn103  1  0.89090795  0.25033854  0.62783934  1
  Mn  Mn104  1  0.10746025  0.41640379  0.87263357  1
  Mn  Mn105  1  0.10700505  0.75011867  0.87297646  1
  Mn  Mn106  1  0.85835818  0.41676887  0.25160826  1
  Mn  Mn107  1  0.39317666  0.91614897  0.62690376  1
  Mn  Mn108  1  0.14133176  0.58260979  0.49799544  1
  Mn  Mn109  1  0.14274504  0.24993938  0.49889267  1
  Mn  Mn110  1  0.35792552  0.75003708  0.50230078  1
  Mn  Mn111  1  0.39159663  0.24957297  0.37727019  1
  Mn  Mn112  1  0.35910749  0.41756296  0.75221282  1
  Mn  Mn113  1  0.85765188  0.74996713  0.75217181  1
  Mn  Mn114  1  0.14144497  0.91756196  0.49785945  1
  Mn  Mn115  1  0.64298148  0.91630231  0.24663834  1
  Mn  Mn116  1  0.64166115  0.58418070  0.99767449  1
  Mn  Mn117  1  0.10689210  0.08341231  0.87328455  1
  Mn  Mn118  1  0.14240497  0.24967871  0.74789146  1
  Mn  Mn119  1  0.89225518  0.91655347  0.37743716  1
  Mn  Mn120  1  0.35736717  0.75006816  0.25260718  1
  Mn  Mn121  1  0.10775177  0.08282947  0.12209456  1
  Mn  Mn122  1  0.85728001  0.41665381  0.00310886  1
  Mn  Mn123  1  0.89304065  0.58284742  0.12731357  1
  Mn  Mn124  1  0.64277455  0.91637504  0.99841921  1
  Mn  Mn125  1  0.35750167  0.75023714  0.00238400  1
  Mn  Mn126  1  0.85816736  0.41623956  0.50212561  1
  Mn  Mn127  1  0.64182763  0.24947448  0.49706492  1
  Mn  Mn128  1  0.10701455  0.41722364  0.62357545  1
  Mn  Mn129  1  0.64293297  0.91782972  0.74809708  1
  Mn  Mn130  1  0.64267343  0.58246105  0.74804284  1
  Mn  Mn131  1  0.35831464  0.08213046  0.75178020  1
  Mn  Mn132  1  0.14195492  0.58259101  0.24774802  1
  Mn  Mn133  1  0.64214575  0.25058864  0.24743107  1
  Mn  Mn134  1  0.35801023  0.75033333  0.75143132  1
  Mn  Mn135  1  0.89325386  0.25043654  0.12763595  1
  Mn  Mn136  1  0.85757258  0.75066602  0.50241436  1
  Mn  Mn137  1  0.14124089  0.58363335  0.74755890  1
  Mn  Mn138  1  0.39146426  0.24980275  0.12752650  1
  Mn  Mn139  1  0.60764121  0.08362041  0.87326941  1
  Mn  Mn140  1  0.39304666  0.58424041  0.37758064  1
  Mn  Mn141  1  0.64164997  0.24937374  0.99761896  1
  Mn  Mn142  1  0.60779791  0.41629593  0.37206175  1
  Mn  Mn143  1  0.14196896  0.91770905  0.24751412  1
  Fe  Fe144  1  0.64243202  0.24978700  0.74904143  1
  Fe  Fe145  1  0.60788844  0.41656524  0.62273615  1
  Fe  Fe146  1  0.10845501  0.41672036  0.37379251  1
  Fe  Fe147  1  0.14363583  0.24974666  0.99740833  1
  Fe  Fe148  1  0.85738018  0.08319538  0.00249900  1
  Fe  Fe149  1  0.60820823  0.74974084  0.87406128  1
  Fe  Fe150  1  0.39192771  0.91617285  0.12639307  1
  Fe  Fe151  1  0.39390848  0.24990082  0.62641633  1
  Fe  Fe152  1  0.35742734  0.41665467  0.00165602  1
  Fe  Fe153  1  0.89284107  0.58277524  0.37612593  1
  Fe  Fe154  1  0.85714857  0.08369341  0.25191345  1
  Fe  Fe155  1  0.85616157  0.41537023  0.75207067  1
  Fe  Fe156  1  0.89154613  0.25013707  0.87742063  1
  Fe  Fe157  1  0.14335989  0.58311167  0.99865683  1
  Fe  Fe158  1  0.10619607  0.74990256  0.62368420  1
  Fe  Fe159  1  0.89238725  0.91653049  0.87748938  1
  Fe  Fe160  1  0.89173603  0.58379904  0.62654662  1
  Fe  Fe161  1  0.14235863  0.91718288  0.99888070  1
  Fe  Fe162  1  0.60684765  0.41669663  0.87359808  1
  Fe  Fe163  1  0.14116577  0.91674587  0.74798333  1
  Fe  Fe164  1  0.10672272  0.74988074  0.12300446  1
  Fe  Fe165  1  0.14301400  0.24960020  0.24855770  1
  Fe  Fe166  1  0.85771897  0.75015430  0.00172416  1
  Fe  Fe167  1  0.85801366  0.74946930  0.25180979  1
  Fe  Fe168  1  0.35759959  0.41652474  0.50170836  1
  Fe  Fe169  1  0.64331377  0.91681490  0.49859919  1
  Fe  Fe170  1  0.35722341  0.08389258  0.25217072  1
  Fe  Fe171  1  0.60670252  0.08321995  0.12338650  1
  Fe  Fe172  1  0.39309277  0.25032043  0.87628201  1
  Fe  Fe173  1  0.35668512  0.41611168  0.25160914  1
  Fe  Fe174  1  0.35777220  0.08340002  0.50174924  1
  Fe  Fe175  1  0.10888306  0.41711749  0.12216637  1
  Fe  Fe176  1  0.85704967  0.08331464  0.50110350  1
  Fe  Fe177  1  0.10754212  0.08345557  0.37333203  1
  Fe  Fe178  1  0.35692722  0.08311711  0.00161154  1
  Fe  Fe179  1  0.60608456  0.41646443  0.12383380  1
  Fe  Fe180  1  0.39232878  0.58397623  0.12711256  1
  Fe  Fe181  1  0.60751962  0.08320839  0.37271239  1
  Fe  Fe182  1  0.89313264  0.91637305  0.12640267  1
  Fe  Fe183  1  0.10666367  0.74983910  0.37333629  1
  Fe  Fe184  1  0.64347953  0.58364060  0.49805284  1
  Fe  Fe185  1  0.85662793  0.08465359  0.75179310  1
  Fe  Fe186  1  0.60871364  0.75004473  0.62268750  1
  Fe  Fe187  1  0.64335299  0.58348537  0.24831290  1
  Fe  Fe188  1  0.60821289  0.08339467  0.62271904  1
  Fe  Fe189  1  0.60862137  0.75038061  0.37244862  1
  Fe  Fe190  1  0.89227172  0.58332774  0.87776818  1
  Fe  Fe191  1  0.89194576  0.91593201  0.62654174  1
  P  P192  1  0.05631265  0.25042958  0.11010276  1
  P  P193  1  0.05492027  0.24965686  0.35967917  1
  P  P194  1  0.05236796  0.24994819  0.61033993  1
  P  P195  1  0.05299568  0.24952000  0.86119675  1
  P  P196  1  0.05447880  0.58308857  0.10920494  1
  P  P197  1  0.05235563  0.58309431  0.35990707  1
  P  P198  1  0.05102922  0.58409809  0.61052129  1
  P  P199  1  0.05301162  0.58314112  0.86161132  1
  P  P200  1  0.05256343  0.91642519  0.10924393  1
  P  P201  1  0.05325313  0.91732109  0.36009013  1
  P  P202  1  0.05221041  0.91605038  0.61120067  1
  P  P203  1  0.05338550  0.91724947  0.86103671  1
  P  P204  1  0.55300035  0.24944856  0.11040992  1
  P  P205  1  0.55285233  0.24885465  0.35955355  1
  P  P206  1  0.55444041  0.24983359  0.61115946  1
  P  P207  1  0.55259920  0.25066150  0.85963554  1
  P  P208  1  0.55331050  0.58277968  0.11184648  1
  P  P209  1  0.55610204  0.58413492  0.36024249  1
  P  P210  1  0.55519964  0.58287627  0.60921789  1
  P  P211  1  0.55353992  0.58299498  0.86019665  1
  P  P212  1  0.55200872  0.91782782  0.11028782  1
  P  P213  1  0.55588176  0.91698592  0.36107618  1
  P  P214  1  0.55512951  0.91728800  0.60958338  1
  P  P215  1  0.55362191  0.91636514  0.86024245  1
  P  P216  1  0.44498875  0.08239602  0.13950081  1
  P  P217  1  0.44616835  0.08320635  0.38963144  1
  P  P218  1  0.44736736  0.08347321  0.63841941  1
  P  P219  1  0.44591346  0.08403878  0.89034742  1
  P  P220  1  0.44498892  0.41729921  0.13959300  1
  P  P221  1  0.44479459  0.41659008  0.38923291  1
  P  P222  1  0.44729623  0.41639539  0.63810146  1
  P  P223  1  0.44745220  0.41597015  0.89057348  1
  P  P224  1  0.44652198  0.75030170  0.14041668  1
  P  P225  1  0.44884997  0.75009613  0.39025851  1
  P  P226  1  0.44926796  0.75004680  0.63966768  1
  P  P227  1  0.44833018  0.74994727  0.88995186  1
  P  P228  1  0.94504720  0.08268294  0.13926528  1
  P  P229  1  0.94627012  0.08384879  0.38923295  1
  P  P230  1  0.94375865  0.08250716  0.63955414  1
  P  P231  1  0.94371402  0.08387854  0.88944662  1
  P  P232  1  0.94923611  0.41642996  0.13978045  1
  P  P233  1  0.94855499  0.41728028  0.38949265  1
  P  P234  1  0.94528620  0.41737664  0.64133665  1
  P  P235  1  0.94437944  0.41597353  0.88918066  1
  P  P236  1  0.94609481  0.75055526  0.13895646  1
  P  P237  1  0.94617854  0.74898501  0.38853059  1
  P  P238  1  0.94701495  0.75020286  0.63979212  1
  P  P239  1  0.94539852  0.75007834  0.89076893  1
  P  P240  1  0.19659931  0.08417715  0.23590222  1
  P  P241  1  0.19733129  0.08355740  0.48474799  1
  P  P242  1  0.19615955  0.08246024  0.73511577  1
  P  P243  1  0.19770661  0.08309113  0.98521458  1
  P  P244  1  0.19586657  0.41581550  0.23558346  1
  P  P245  1  0.19749114  0.41654924  0.48496931  1
  P  P246  1  0.19716666  0.41662925  0.73498493  1
  P  P247  1  0.19697436  0.41695801  0.98590663  1
  P  P248  1  0.19400901  0.74998083  0.23555272  1
  P  P249  1  0.19415769  0.74999258  0.48521797  1
  P  P250  1  0.19523554  0.75098212  0.73432425  1
  P  P251  1  0.19472825  0.75009787  0.98692019  1
  P  P252  1  0.69612396  0.08333788  0.23496215  1
  P  P253  1  0.69620381  0.08226224  0.48518877  1
  P  P254  1  0.69707525  0.08454218  0.73499675  1
  P  P255  1  0.69682880  0.08258739  0.98641916  1
  P  P256  1  0.69636883  0.41792307  0.23390505  1
  P  P257  1  0.69562227  0.41725274  0.48593723  1
  P  P258  1  0.69556636  0.41547451  0.73598347  1
  P  P259  1  0.69398638  0.41687304  0.98562999  1
  P  P260  1  0.69759668  0.74906561  0.23581835  1
  P  P261  1  0.69541274  0.75037127  0.48554898  1
  P  P262  1  0.69501836  0.74990822  0.73571040  1
  P  P263  1  0.69800970  0.75031072  0.98435135  1
  P  P264  1  0.30391362  0.25009019  0.01325763  1
  P  P265  1  0.30222845  0.25008404  0.26459844  1
  P  P266  1  0.30461814  0.24976526  0.51576248  1
  P  P267  1  0.30605987  0.24999331  0.76430206  1
  P  P268  1  0.30307344  0.58291959  0.01575682  1
  P  P269  1  0.30462156  0.58285028  0.26415348  1
  P  P270  1  0.30323384  0.58283839  0.51489255  1
  P  P271  1  0.30308996  0.58424743  0.76510367  1
  P  P272  1  0.30223459  0.91705585  0.01567188  1
  P  P273  1  0.30472695  0.91724356  0.26418989  1
  P  P274  1  0.30329850  0.91736470  0.51490721  1
  P  P275  1  0.30150105  0.91582517  0.76483694  1
  P  P276  1  0.80430410  0.24944509  0.01455659  1
  P  P277  1  0.80337242  0.24972751  0.26474997  1
  P  P278  1  0.80322991  0.24927389  0.51442033  1
  P  P279  1  0.80194330  0.25015172  0.76588242  1
  P  P280  1  0.80439674  0.58421786  0.01396719  1
  P  P281  1  0.80332308  0.58359487  0.26543469  1
  P  P282  1  0.80411623  0.58345873  0.51434858  1
  P  P283  1  0.80528829  0.58225805  0.76439673  1
  P  P284  1  0.80554367  0.91628725  0.01445557  1
  P  P285  1  0.80538606  0.91655787  0.26339417  1
  P  P286  1  0.80279679  0.91726626  0.51526712  1
  P  P287  1  0.80535855  0.91771689  0.76437336  1
  O  O288  1  0.06038498  0.24952479  0.18689836  1
  O  O289  1  0.05722146  0.24940003  0.43648929  1
  O  O290  1  0.05569620  0.24957656  0.68709375  1
  O  O291  1  0.05920695  0.24943970  0.93781987  1
  O  O292  1  0.05694472  0.58281605  0.18585068  1
  O  O293  1  0.05533978  0.58300806  0.43677340  1
  O  O294  1  0.05449719  0.58330986  0.68721253  1
  O  O295  1  0.05885695  0.58278195  0.93811970  1
  O  O296  1  0.05629222  0.91747443  0.18601460  1
  O  O297  1  0.05573585  0.91780920  0.43674215  1
  O  O298  1  0.05646130  0.91709546  0.68801131  1
  O  O299  1  0.05886175  0.91759168  0.93762309  1
  O  O300  1  0.55602290  0.24941512  0.18716966  1
  O  O301  1  0.55584613  0.24949809  0.43636184  1
  O  O302  1  0.55879779  0.24972296  0.68781434  1
  O  O303  1  0.55590707  0.24965924  0.93639343  1
  O  O304  1  0.55840539  0.58344729  0.18839787  1
  O  O305  1  0.56028966  0.58340402  0.43699143  1
  O  O306  1  0.55761062  0.58260778  0.68591103  1
  O  O307  1  0.55548582  0.58314502  0.93717059  1
  O  O308  1  0.55617497  0.91732364  0.18696009  1
  O  O309  1  0.55991204  0.91695638  0.43780033  1
  O  O310  1  0.55774250  0.91770420  0.68604994  1
  O  O311  1  0.55652195  0.91718189  0.93710555  1
  O  O312  1  0.43997720  0.08324450  0.06275884  1
  O  O313  1  0.44088866  0.08360282  0.31295332  1
  O  O314  1  0.44245195  0.08278918  0.56175809  1
  O  O315  1  0.44354687  0.08289368  0.81357012  1
  O  O316  1  0.44036109  0.41656396  0.06284034  1
  O  O317  1  0.44021393  0.41631338  0.31246352  1
  O  O318  1  0.44226627  0.41698494  0.56146167  1
  O  O319  1  0.44456612  0.41676827  0.81380213  1
  O  O320  1  0.44341292  0.75009140  0.06349814  1
  O  O321  1  0.44379086  0.75009918  0.31368194  1
  O  O322  1  0.44478744  0.75012643  0.56301908  1
  O  O323  1  0.44461067  0.75015231  0.81340244  1
  O  O324  1  0.94104262  0.08357659  0.06241778  1
  O  O325  1  0.94134737  0.08376742  0.31252674  1
  O  O326  1  0.93990355  0.08348202  0.56275582  1
  O  O327  1  0.93999140  0.08435197  0.81263913  1
  O  O328  1  0.94432164  0.41610848  0.06317598  1
  O  O329  1  0.94491625  0.41650324  0.31290182  1
  O  O330  1  0.94304338  0.41618658  0.56437131  1
  O  O331  1  0.94001665  0.41556050  0.81251197  1
  O  O332  1  0.94160984  0.74989674  0.06236511  1
  O  O333  1  0.94171712  0.74965269  0.31169044  1
  O  O334  1  0.94386283  0.75042906  0.56336682  1
  O  O335  1  0.94275025  0.75008530  0.81378263  1
  O  O336  1  0.19429960  0.08317660  0.06162727  1
  O  O337  1  0.19171837  0.08316543  0.31263293  1
  O  O338  1  0.19293904  0.08316429  0.56140906  1
  O  O339  1  0.19280564  0.08319715  0.81189778  1
  O  O340  1  0.19281744  0.41695139  0.06264206  1
  O  O341  1  0.19135643  0.41696431  0.31232887  1
  O  O342  1  0.19318497  0.41702499  0.56158193  1
  O  O343  1  0.19353034  0.41663141  0.81178763  1
  O  O344  1  0.19092617  0.75026811  0.06365095  1
  O  O345  1  0.18952143  0.74987624  0.31238312  1
  O  O346  1  0.18942945  0.74982962  0.56195747  1
  O  O347  1  0.19211946  0.75012106  0.81112683  1
  O  O348  1  0.69133352  0.08270465  0.06300858  1
  O  O349  1  0.69125566  0.08331459  0.31164197  1
  O  O350  1  0.69171060  0.08331974  0.56192222  1
  O  O351  1  0.69350559  0.08364221  0.81173519  1
  O  O352  1  0.68907922  0.41692473  0.06233080  1
  O  O353  1  0.69363471  0.41677689  0.31070868  1
  O  O354  1  0.69171594  0.41652175  0.56270878  1
  O  O355  1  0.69090149  0.41628916  0.81267845  1
  O  O356  1  0.69396521  0.75011182  0.06111872  1
  O  O357  1  0.69285861  0.75005623  0.31245763  1
  O  O358  1  0.69182257  0.75023049  0.56250883  1
  O  O359  1  0.69113386  0.74982622  0.81245395  1
  O  O360  1  0.30547432  0.25002801  0.18803147  1
  O  O361  1  0.30660984  0.24967560  0.43891854  1
  O  O362  1  0.31078282  0.25007746  0.68756938  1
  O  O363  1  0.30869756  0.25035095  0.93658826  1
  O  O364  1  0.30880357  0.58396759  0.18733927  1
  O  O365  1  0.30657056  0.58382559  0.43814649  1
  O  O366  1  0.30702470  0.58420702  0.68837604  1
  O  O367  1  0.30663108  0.58376257  0.93901348  1
  O  O368  1  0.30878013  0.91629074  0.18747989  1
  O  O369  1  0.30678396  0.91646839  0.43808753  1
  O  O370  1  0.30631938  0.91571979  0.68823004  1
  O  O371  1  0.30582518  0.91607984  0.93893925  1
  O  O372  1  0.80659705  0.25049184  0.18798756  1
  O  O373  1  0.80684488  0.25003412  0.43772824  1
  O  O374  1  0.80511144  0.25032235  0.68912078  1
  O  O375  1  0.80806839  0.25032288  0.93780533  1
  O  O376  1  0.80716489  0.58303496  0.18867648  1
  O  O377  1  0.80920076  0.58318953  0.43770425  1
  O  O378  1  0.80877157  0.58363633  0.68753660  1
  O  O379  1  0.80846761  0.58316490  0.93723472  1
  O  O380  1  0.80939550  0.91618485  0.18665503  1
  O  O381  1  0.80638795  0.91645826  0.43847571  1
  O  O382  1  0.80874569  0.91626371  0.68751020  1
  O  O383  1  0.80875384  0.91642627  0.93759900  1
  O  O384  1  0.23358126  0.25011678  0.03712727  1
  O  O385  1  0.23241031  0.25004809  0.28986498  1
  O  O386  1  0.23508887  0.24982168  0.54156121  1
  O  O387  1  0.23587467  0.24988975  0.78802743  1
  O  O388  1  0.23303971  0.58321900  0.04035963  1
  O  O389  1  0.23463898  0.58267081  0.28823344  1
  O  O390  1  0.23343348  0.58287350  0.53990033  1
  O  O391  1  0.23331336  0.58393449  0.78992540  1
  O  O392  1  0.23219263  0.91702571  0.04037794  1
  O  O393  1  0.23467681  0.91713119  0.28831867  1
  O  O394  1  0.23353788  0.91719096  0.53955267  1
  O  O395  1  0.23135778  0.91640151  0.78898683  1
  O  O396  1  0.73428747  0.24942430  0.03874203  1
  O  O397  1  0.73374680  0.24991409  0.29000425  1
  O  O398  1  0.73351617  0.24954212  0.53932387  1
  O  O399  1  0.73199838  0.24974759  0.79093454  1
  O  O400  1  0.73435890  0.58412193  0.03819983  1
  O  O401  1  0.73327046  0.58344459  0.28983396  1
  O  O402  1  0.73367941  0.58348380  0.53776617  1
  O  O403  1  0.73533491  0.58270884  0.78879236  1
  O  O404  1  0.73575125  0.91630021  0.03956105  1
  O  O405  1  0.73543210  0.91695211  0.28773076  1
  O  O406  1  0.73278134  0.91711021  0.53983774  1
  O  O407  1  0.73558128  0.91750227  0.78897849  1
  O  O408  1  0.26693297  0.08399628  0.21220618  1
  O  O409  1  0.26760114  0.08395090  0.46078743  1
  O  O410  1  0.26593131  0.08250967  0.71028964  1
  O  O411  1  0.26773534  0.08290065  0.96014444  1
  O  O412  1  0.26626203  0.41635071  0.21185247  1
  O  O413  1  0.26766188  0.41596689  0.46085575  1
  O  O414  1  0.26697096  0.41669707  0.71041110  1
  O  O415  1  0.26727564  0.41672708  0.96182277  1
  O  O416  1  0.26422121  0.75019715  0.21207442  1
  O  O417  1  0.26431835  0.75014708  0.46132598  1
  O  O418  1  0.26488708  0.75037212  0.70903321  1
  O  O419  1  0.26471120  0.75018913  0.96213887  1
  O  O420  1  0.76665168  0.08314723  0.21184376  1
  O  O421  1  0.76659735  0.08277146  0.46143983  1
  O  O422  1  0.76725768  0.08419440  0.71072539  1
  O  O423  1  0.76726526  0.08282091  0.96324464  1
  O  O424  1  0.76595454  0.41706756  0.20836723  1
  O  O425  1  0.76558116  0.41696324  0.46138406  1
  O  O426  1  0.76593363  0.41613113  0.71224918  1
  O  O427  1  0.76424024  0.41662343  0.96243289  1
  O  O428  1  0.76794726  0.74920546  0.21209066  1
  O  O429  1  0.76527575  0.75046319  0.46116622  1
  O  O430  1  0.76519660  0.74995220  0.71154271  1
  O  O431  1  0.76801371  0.75033904  0.96003924  1
  O  O432  1  0.01510410  0.08311962  0.16305506  1
  O  O433  1  0.01664999  0.08373710  0.41282333  1
  O  O434  1  0.01370321  0.08317483  0.66404512  1
  O  O435  1  0.01374112  0.08347186  0.91391031  1
  O  O436  1  0.01951141  0.41695430  0.16327684  1
  O  O437  1  0.01851838  0.41688192  0.41443463  1
  O  O438  1  0.01473652  0.41688774  0.66714150  1
  O  O439  1  0.01450166  0.41604064  0.91321065  1
  O  O440  1  0.01656206  0.74986797  0.16248629  1
  O  O441  1  0.01643137  0.74974710  0.41241349  1
  O  O442  1  0.01666607  0.75006355  0.66568751  1
  O  O443  1  0.01510487  0.75025069  0.91561398  1
  O  O444  1  0.51543988  0.08304653  0.16297610  1
  O  O445  1  0.51667671  0.08307496  0.41267306  1
  O  O446  1  0.51772676  0.08342802  0.66215996  1
  O  O447  1  0.51552407  0.08352929  0.91585471  1
  O  O448  1  0.51546651  0.41666159  0.16312605  1
  O  O449  1  0.51504128  0.41645625  0.41260669  1
  O  O450  1  0.51769301  0.41656562  0.66172534  1
  O  O451  1  0.51734636  0.41663107  0.91561853  1
  O  O452  1  0.51623800  0.75048927  0.16548576  1
  O  O453  1  0.51922070  0.75012547  0.41350546  1
  O  O454  1  0.51957703  0.75012429  0.66332792  1
  O  O455  1  0.51829499  0.74974129  0.91496017  1
  O  O456  1  0.48331877  0.24981353  0.08539945  1
  O  O457  1  0.48327328  0.24926593  0.33423909  1
  O  O458  1  0.48425207  0.24976879  0.58680484  1
  O  O459  1  0.48268470  0.25013568  0.83476911  1
  O  O460  1  0.48293005  0.58313979  0.08812470  1
  O  O461  1  0.48593802  0.58355665  0.33649047  1
  O  O462  1  0.48564705  0.58325888  0.58339456  1
  O  O463  1  0.48431674  0.58306089  0.83382108  1
  O  O464  1  0.48196910  0.91688775  0.08584453  1
  O  O465  1  0.48587641  0.91700618  0.33682397  1
  O  O466  1  0.48549780  0.91669965  0.58381311  1
  O  O467  1  0.48407672  0.91670975  0.83457505  1
  O  O468  1  0.98611231  0.24988506  0.08627844  1
  O  O469  1  0.98543090  0.25020170  0.33373758  1
  O  O470  1  0.98268145  0.25011176  0.58531360  1
  O  O471  1  0.98238094  0.24959244  0.83866719  1
  O  O472  1  0.98475853  0.58290466  0.08389174  1
  O  O473  1  0.98262367  0.58298536  0.33435282  1
  O  O474  1  0.98113119  0.58371722  0.58550357  1
  O  O475  1  0.98238527  0.58364795  0.83888795  1
  O  O476  1  0.98238545  0.91661919  0.08510020  1
  O  O477  1  0.98370007  0.91664057  0.33440212  1
  O  O478  1  0.98209966  0.91640366  0.58672573  1
  O  O479  1  0.98266266  0.91680918  0.83849462  1
  O  O480  1  0.08967127  0.31575778  0.07734024  1
  O  O481  1  0.08969774  0.31465658  0.32781615  1
  O  O482  1  0.08657274  0.31507302  0.57820985  1
  O  O483  1  0.08606136  0.31448591  0.82755165  1
  O  O484  1  0.08849808  0.64838177  0.07706739  1
  O  O485  1  0.08634517  0.64812687  0.32749743  1
  O  O486  1  0.08483054  0.64922704  0.57812439  1
  O  O487  1  0.08601569  0.64820982  0.82812052  1
  O  O488  1  0.08633633  0.98122225  0.07594035  1
  O  O489  1  0.08707290  0.98258974  0.32745888  1
  O  O490  1  0.08582448  0.98089676  0.57772117  1
  O  O491  1  0.08602872  0.98222952  0.82694846  1
  O  O492  1  0.58715207  0.31454427  0.07824019  1
  O  O493  1  0.58712143  0.31388695  0.32720731  1
  O  O494  1  0.58776816  0.31488046  0.57786552  1
  O  O495  1  0.58643745  0.31594766  0.82741892  1
  O  O496  1  0.58672612  0.64774068  0.07815489  1
  O  O497  1  0.58952647  0.64936160  0.32733559  1
  O  O498  1  0.58989397  0.64796039  0.57726373  1
  O  O499  1  0.58840605  0.64788480  0.82852606  1
  O  O500  1  0.58541667  0.98304618  0.07752366  1
  O  O501  1  0.58923052  0.98220451  0.32806715  1
  O  O502  1  0.58919787  0.98244226  0.57687292  1
  O  O503  1  0.58793309  0.98138559  0.82779836  1
  O  O504  1  0.41192883  0.01723212  0.17263498  1
  O  O505  1  0.41288533  0.01826669  0.42313542  1
  O  O506  1  0.41418756  0.01842244  0.67207905  1
  O  O507  1  0.41107743  0.01935616  0.92292779  1
  O  O508  1  0.41146085  0.35232559  0.17300871  1
  O  O509  1  0.41130397  0.35166799  0.42257786  1
  O  O510  1  0.41418920  0.35129599  0.67135538  1
  O  O511  1  0.41363612  0.35065812  0.92282610  1
  O  O512  1  0.41258469  0.68513157  0.17278863  1
  O  O513  1  0.41547022  0.68509884  0.42348341  1
  O  O514  1  0.41587552  0.68494769  0.67263114  1
  O  O515  1  0.41421900  0.68498707  0.92270215  1
  O  O516  1  0.91158486  0.01739200  0.17184289  1
  O  O517  1  0.91269011  0.01890898  0.42266345  1
  O  O518  1  0.91034333  0.01716664  0.67200905  1
  O  O519  1  0.90992624  0.01862500  0.92199908  1
  O  O520  1  0.91606076  0.35144534  0.17323343  1
  O  O521  1  0.91451914  0.35239653  0.42254512  1
  O  O522  1  0.91038581  0.35261848  0.67378165  1
  O  O523  1  0.91105053  0.35092915  0.92257275  1
  O  O524  1  0.91250609  0.68571786  0.17261788  1
  O  O525  1  0.91313461  0.68374815  0.42136659  1
  O  O526  1  0.91267499  0.68516698  0.67225555  1
  O  O527  1  0.91123153  0.68512755  0.92313577  1
  O  O528  1  0.16332708  0.01930665  0.20211192  1
  O  O529  1  0.16364712  0.01872756  0.45138535  1
  O  O530  1  0.16201698  0.01729649  0.70294339  1
  O  O531  1  0.16359057  0.01794816  0.95280615  1
  O  O532  1  0.16286649  0.35052027  0.20265384  1
  O  O533  1  0.16338621  0.35161072  0.45230811  1
  O  O534  1  0.16328979  0.35155397  0.70250798  1
  O  O535  1  0.16337012  0.35199595  0.95270478  1
  O  O536  1  0.16064609  0.68495936  0.20240191  1
  O  O537  1  0.16055304  0.68487489  0.45205102  1
  O  O538  1  0.16050085  0.68623272  0.70166277  1
  O  O539  1  0.16136551  0.68479094  0.95405190  1
  O  O540  1  0.66278324  0.01844716  0.20128834  1
  O  O541  1  0.66322262  0.01696572  0.45217851  1
  O  O542  1  0.66324867  0.01978289  0.70175803  1
  O  O543  1  0.66406039  0.01756082  0.95269870  1
  O  O544  1  0.66121253  0.35337012  0.20141277  1
  O  O545  1  0.66185580  0.35237723  0.45269073  1
  O  O546  1  0.66245031  0.35019105  0.70295049  1
  O  O547  1  0.66045066  0.35194629  0.95224657  1
  O  O548  1  0.66427504  0.68393485  0.20282358  1
  O  O549  1  0.66177039  0.68523448  0.45270136  1
  O  O550  1  0.66164528  0.68484034  0.70257814  1
  O  O551  1  0.66391801  0.68539181  0.95150871  1
  O  O552  1  0.33714300  0.31503209  0.04686845  1
  O  O553  1  0.33613988  0.31519455  0.29710198  1
  O  O554  1  0.33919866  0.31484134  0.54770658  1
  O  O555  1  0.33961712  0.31493635  0.79769002  1
  O  O556  1  0.33720332  0.64786075  0.04871964  1
  O  O557  1  0.33792399  0.64783222  0.29775060  1
  O  O558  1  0.33714945  0.64788830  0.54768611  1
  O  O559  1  0.33684267  0.64932765  0.79782965  1
  O  O560  1  0.33641486  0.98213063  0.04786144  1
  O  O561  1  0.33827989  0.98256472  0.29661382  1
  O  O562  1  0.33719945  0.98271212  0.54696992  1
  O  O563  1  0.33556659  0.98078979  0.79758757  1
  O  O564  1  0.83777084  0.31441842  0.04796356  1
  O  O565  1  0.83748697  0.31481437  0.29725564  1
  O  O566  1  0.83716255  0.31427792  0.54733543  1
  O  O567  1  0.83585709  0.31519840  0.79859581  1
  O  O568  1  0.83791373  0.64945967  0.04651926  1
  O  O569  1  0.83733143  0.64855923  0.29812429  1
  O  O570  1  0.83723552  0.64851607  0.54779294  1
  O  O571  1  0.83928654  0.64712926  0.79763081  1
  O  O572  1  0.83963046  0.98122410  0.04723268  1
  O  O573  1  0.83893444  0.98183844  0.29616284  1
  O  O574  1  0.83689346  0.98230621  0.54740337  1
  O  O575  1  0.83906003  0.98299032  0.79659656  1
  O  O576  1  0.41143824  0.14733540  0.17309691  1
  O  O577  1  0.41288947  0.14812352  0.42323238  1
  O  O578  1  0.41400312  0.14852855  0.67142684  1
  O  O579  1  0.41199331  0.14949287  0.92219463  1
  O  O580  1  0.41184515  0.48238723  0.17272470  1
  O  O581  1  0.41148185  0.48161150  0.42252743  1
  O  O582  1  0.41423883  0.48143150  0.67185746  1
  O  O583  1  0.41286030  0.48067046  0.92332713  1
  O  O584  1  0.41241885  0.81549449  0.17246674  1
  O  O585  1  0.41547243  0.81508357  0.42352720  1
  O  O586  1  0.41575104  0.81506559  0.67279063  1
  O  O587  1  0.41430141  0.81496380  0.92277124  1
  O  O588  1  0.91126144  0.14745655  0.17277528  1
  O  O589  1  0.91280371  0.14881433  0.42250442  1
  O  O590  1  0.90962044  0.14723553  0.67301379  1
  O  O591  1  0.91013612  0.14877432  0.92277626  1
  O  O592  1  0.91539475  0.48138928  0.17261774  1
  O  O593  1  0.91454804  0.48241605  0.42187327  1
  O  O594  1  0.91090693  0.48265057  0.67262856  1
  O  O595  1  0.91103435  0.48127241  0.92211875  1
  O  O596  1  0.91311161  0.81576179  0.17226202  1
  O  O597  1  0.91265076  0.81380807  0.42203876  1
  O  O598  1  0.91284243  0.81523150  0.67250806  1
  O  O599  1  0.91125833  0.81519667  0.92290586  1
  O  O600  1  0.08997877  0.18560477  0.07663918  1
  O  O601  1  0.08894612  0.18445861  0.32716754  1
  O  O602  1  0.08635014  0.18497656  0.57765172  1
  O  O603  1  0.08579500  0.18444779  0.82746805  1
  O  O604  1  0.08905048  0.51825477  0.07666853  1
  O  O605  1  0.08677607  0.51807852  0.32778729  1
  O  O606  1  0.08510233  0.51910887  0.57769005  1
  O  O607  1  0.08553354  0.51811083  0.82752254  1
  O  O608  1  0.08632393  0.85128152  0.07689329  1
  O  O609  1  0.08773357  0.85226584  0.32812985  1
  O  O610  1  0.08562879  0.85080753  0.57863252  1
  O  O611  1  0.08661181  0.85230473  0.82749102  1
  O  O612  1  0.58674773  0.18414748  0.07786969  1
  O  O613  1  0.58697320  0.18367895  0.32761187  1
  O  O614  1  0.58783453  0.18470643  0.57792725  1
  O  O615  1  0.58703605  0.18589859  0.82678285  1
  O  O616  1  0.58632983  0.51763334  0.07853433  1
  O  O617  1  0.58975663  0.51928003  0.32680953  1
  O  O618  1  0.58944216  0.51782504  0.57679398  1
  O  O619  1  0.58787546  0.51771131  0.82838054  1
  O  O620  1  0.58640148  0.85293834  0.07771112  1
  O  O621  1  0.58944597  0.85186523  0.32794396  1
  O  O622  1  0.58993306  0.85232457  0.57740167  1
  O  O623  1  0.58797571  0.85123448  0.82856589  1
  O  O624  1  0.33695330  0.18484305  0.04653557  1
  O  O625  1  0.33630106  0.18507991  0.29726250  1
  O  O626  1  0.33913178  0.18465080  0.54775278  1
  O  O627  1  0.33963685  0.18497225  0.79736575  1
  O  O628  1  0.33703136  0.51774058  0.04799774  1
  O  O629  1  0.33828592  0.51757564  0.29635190  1
  O  O630  1  0.33728083  0.51755205  0.54686802  1
  O  O631  1  0.33726319  0.51916224  0.79756602  1
  O  O632  1  0.33629453  0.85214236  0.04874754  1
  O  O633  1  0.33820447  0.85234129  0.29775997  1
  O  O634  1  0.33725869  0.85236107  0.54771374  1
  O  O635  1  0.33484763  0.85078104  0.79815908  1
  O  O636  1  0.83807288  0.18431634  0.04702605  1
  O  O637  1  0.83739395  0.18445245  0.29675815  1
  O  O638  1  0.83695149  0.18407767  0.54679211  1
  O  O639  1  0.83638963  0.18524345  0.79820503  1
  O  O640  1  0.83782015  0.51932414  0.04759359  1
  O  O641  1  0.83723923  0.51853156  0.29832781  1
  O  O642  1  0.83746631  0.51851625  0.54786681  1
  O  O643  1  0.83868224  0.51696897  0.79685334  1
  O  O644  1  0.83942001  0.85109347  0.04703255  1
  O  O645  1  0.83858347  0.85136354  0.29666373  1
  O  O646  1  0.83669229  0.85239790  0.54837091  1
  O  O647  1  0.83936701  0.85285561  0.79766231  1
  O  O648  1  0.16341860  0.14927173  0.20292333  1
  O  O649  1  0.16339832  0.14861809  0.45211984  1
  O  O650  1  0.16235425  0.14751546  0.70235675  1
  O  O651  1  0.16398187  0.14816482  0.95215641  1
  O  O652  1  0.16230343  0.48057797  0.20186850  1
  O  O653  1  0.16390238  0.48150796  0.45150223  1
  O  O654  1  0.16315297  0.48173954  0.70254094  1
  O  O655  1  0.16371080  0.48224012  0.95298019  1
  O  O656  1  0.16030500  0.81490340  0.20237944  1
  O  O657  1  0.16035014  0.81491365  0.45217812  1
  O  O658  1  0.16106732  0.81629241  0.70232536  1
  O  O659  1  0.16107656  0.81525017  0.95412799  1
  O  O660  1  0.66278894  0.14831351  0.20154970  1
  O  O661  1  0.66242031  0.14693501  0.45149368  1
  O  O662  1  0.66334780  0.14971108  0.70246628  1
  O  O663  1  0.66360920  0.14754260  0.95277356  1
  O  O664  1  0.66245280  0.48342342  0.20213975  1
  O  O665  1  0.66222373  0.48246918  0.45327166  1
  O  O666  1  0.66200594  0.48025809  0.70229523  1
  O  O667  1  0.66084045  0.48192391  0.95207675  1
  O  O668  1  0.66439072  0.81399907  0.20198370  1
  O  O669  1  0.66174134  0.81552243  0.45275216  1
  O  O670  1  0.66151839  0.81487133  0.70276183  1
  O  O671  1  0.66400509  0.81525988  0.95174549  1
