# generated using pymatgen
data_Na2MnFe(PO4)2
_symmetry_space_group_name_H-M   'P 1'
_cell_length_a   21.08150208
_cell_length_b   18.93349200
_cell_length_c   20.04106059
_cell_angle_alpha   89.99958756
_cell_angle_beta   90.00351352
_cell_angle_gamma   90.00093976
_symmetry_Int_Tables_number   1
_chemical_formula_structural   Na2MnFe(PO4)2
_chemical_formula_sum   'Na96 Mn48 Fe48 P96 O384'
_cell_volume   7999.31819172
_cell_formula_units_Z   48
loop_
 _symmetry_equiv_pos_site_id
 _symmetry_equiv_pos_as_xyz
  1  'x, y, z'
loop_
 _atom_site_type_symbol
 _atom_site_label
 _atom_site_symmetry_multiplicity
 _atom_site_fract_x
 _atom_site_fract_y
 _atom_site_fract_z
 _atom_site_occupancy
  Na  Na0  1  -0.00035982  -0.00046471  0.00091478  1
  Na  Na1  1  0.00166042  0.00005548  0.25073060  1
  Na  Na2  1  0.00341954  0.00103496  0.49948763  1
  Na  Na3  1  0.00064589  -0.00006343  0.74930338  1
  Na  Na4  1  0.00021834  0.33372347  0.00027618  1
  Na  Na5  1  -0.00134788  0.33337126  0.24900930  1
  Na  Na6  1  0.00071087  0.33386922  0.50039155  1
  Na  Na7  1  0.00152796  0.33355936  0.75023670  1
  Na  Na8  1  0.00030597  0.66654854  0.00033702  1
  Na  Na9  1  0.00098469  0.66668598  0.24965907  1
  Na  Na10  1  0.00078784  0.66576843  0.49989209  1
  Na  Na11  1  0.00201010  0.66687300  0.75000512  1
  Na  Na12  1  0.50320619  0.00076714  -0.00159082  1
  Na  Na13  1  0.50124500  0.00020897  0.25022595  1
  Na  Na14  1  0.49894279  -0.00050511  0.50110718  1
  Na  Na15  1  0.50108814  0.00040935  0.75029438  1
  Na  Na16  1  0.49937881  0.33422588  0.00011688  1
  Na  Na17  1  0.49751968  0.33271989  0.24994614  1
  Na  Na18  1  0.50048526  0.33419894  0.49978120  1
  Na  Na19  1  0.49927590  0.33396335  0.75000952  1
  Na  Na20  1  0.49886848  0.66559291  -0.00008959  1
  Na  Na21  1  0.50022674  0.66612404  0.25069753  1
  Na  Na22  1  0.49958968  0.66649755  0.49841471  1
  Na  Na23  1  0.49740680  0.66530705  0.75081905  1
  Na  Na24  1  0.24980351  0.00023079  0.12563191  1
  Na  Na25  1  0.24898337  -0.00085924  0.37538733  1
  Na  Na26  1  0.25035282  0.00037622  0.62506191  1
  Na  Na27  1  0.24957135  -0.00012609  0.87388375  1
  Na  Na28  1  0.25059304  0.33397554  0.12608645  1
  Na  Na29  1  0.25097845  0.33397341  0.37501618  1
  Na  Na30  1  0.25072319  0.33379540  0.62436455  1
  Na  Na31  1  0.24908821  0.33291551  0.87457091  1
  Na  Na32  1  0.25017370  0.66648057  0.12381584  1
  Na  Na33  1  0.25024255  0.66697840  0.37502691  1
  Na  Na34  1  0.24923368  0.66576317  0.62532385  1
  Na  Na35  1  0.25037297  0.66619836  0.87558663  1
  Na  Na36  1  0.74945377  -0.00002726  0.12513236  1
  Na  Na37  1  0.74709430  -0.00043150  0.37470560  1
  Na  Na38  1  0.74736738  -0.00022178  0.62505255  1
  Na  Na39  1  0.74753968  -0.00084473  0.87561571  1
  Na  Na40  1  0.75183207  0.33479584  0.12553582  1
  Na  Na41  1  0.75033507  0.33360125  0.37550772  1
  Na  Na42  1  0.74844367  0.33286174  0.62472552  1
  Na  Na43  1  0.74966385  0.33393129  0.87441183  1
  Na  Na44  1  0.74933466  0.66550037  0.12519708  1
  Na  Na45  1  0.74947232  0.66568897  0.37594910  1
  Na  Na46  1  0.74996103  0.66630884  0.62439760  1
  Na  Na47  1  0.75139011  0.66691787  0.87404075  1
  Na  Na48  1  0.00180167  0.16635292  -0.00059891  1
  Na  Na49  1  -0.00004420  0.16695030  0.24956812  1
  Na  Na50  1  0.00083371  0.16689239  0.50083219  1
  Na  Na51  1  0.00340948  0.16563782  0.75039283  1
  Na  Na52  1  0.00086775  0.49981056  0.00120013  1
  Na  Na53  1  0.00005955  0.49988954  0.24945946  1
  Na  Na54  1  0.00079035  0.50038453  0.49968189  1
  Na  Na55  1  0.00130804  0.50030226  0.74948736  1
  Na  Na56  1  -0.00236127  0.83421856  0.00083330  1
  Na  Na57  1  0.00065545  0.83362203  0.25041838  1
  Na  Na58  1  0.00316352  0.83250629  0.49915091  1
  Na  Na59  1  -0.00004625  0.83337910  0.74962786  1
  Na  Na60  1  0.50203233  0.16540991  -0.00076316  1
  Na  Na61  1  0.50082419  0.16610022  0.25065723  1
  Na  Na62  1  0.50007267  0.16604867  0.50042723  1
  Na  Na63  1  0.50050143  0.16597486  0.74941862  1
  Na  Na64  1  0.49853671  0.50039463  0.00055057  1
  Na  Na65  1  0.50062179  0.49998106  0.24942088  1
  Na  Na66  1  0.50063250  0.49964846  0.49882425  1
  Na  Na67  1  0.49784633  0.50065551  0.75084245  1
  Na  Na68  1  0.50144008  0.83246237  -0.00123128  1
  Na  Na69  1  0.49751996  0.83453990  0.25070576  1
  Na  Na70  1  0.49883151  0.83348368  0.50015494  1
  Na  Na71  1  0.49907174  0.83407135  0.75069580  1
  Na  Na72  1  0.24828828  0.16686286  0.12579338  1
  Na  Na73  1  0.25191428  0.16546616  0.37558208  1
  Na  Na74  1  0.24942354  0.16664047  0.62436817  1
  Na  Na75  1  0.24708010  0.16726157  0.87425150  1
  Na  Na76  1  0.25220125  0.49914503  0.12506274  1
  Na  Na77  1  0.24767421  0.50164683  0.37398104  1
  Na  Na78  1  0.25023576  0.50002493  0.62575069  1
  Na  Na79  1  0.25126658  0.49989563  0.87476139  1
  Na  Na80  1  0.24946645  0.83398452  0.12476120  1
  Na  Na81  1  0.25035390  0.83319929  0.37608299  1
  Na  Na82  1  0.25062636  0.83328036  0.62461107  1
  Na  Na83  1  0.25168237  0.83250364  0.87485802  1
  Na  Na84  1  0.74893437  0.16696685  0.12536881  1
  Na  Na85  1  0.74845441  0.16657676  0.37548794  1
  Na  Na86  1  0.74680484  0.16696791  0.62423174  1
  Na  Na87  1  0.74931556  0.16581329  0.87528603  1
  Na  Na88  1  0.75069334  0.49950752  0.12548465  1
  Na  Na89  1  0.74863592  0.50054730  0.37585078  1
  Na  Na90  1  0.75030416  0.49993247  0.62507267  1
  Na  Na91  1  0.74878246  0.50104447  0.87346077  1
  Na  Na92  1  0.75096021  0.83322864  0.12500064  1
  Na  Na93  1  0.74992179  0.83354882  0.37461287  1
  Na  Na94  1  0.74807622  0.83484395  0.62490255  1
  Na  Na95  1  0.75074174  0.83364112  0.87541630  1
  Mn  Mn96  1  0.14247930  0.25010669  0.49667012  1
  Mn  Mn97  1  0.60768136  0.75030894  0.12262721  1
  Mn  Mn98  1  0.39216671  0.58306686  0.37686551  1
  Mn  Mn99  1  0.10751575  0.75013515  0.87276221  1
  Mn  Mn100  1  0.89260228  0.91655167  0.62619143  1
  Mn  Mn101  1  0.85861026  0.75097456  0.75135244  1
  Mn  Mn102  1  0.85745884  0.08362930  0.00194493  1
  Mn  Mn103  1  0.89291893  0.58330532  0.87719041  1
  Mn  Mn104  1  0.89201593  0.24929154  0.12683629  1
  Mn  Mn105  1  0.14240416  0.91624955  0.74754380  1
  Mn  Mn106  1  0.85771120  0.75058915  0.50230374  1
  Mn  Mn107  1  0.35749180  0.74979964  0.50299334  1
  Mn  Mn108  1  0.14142976  0.91728474  0.99722320  1
  Mn  Mn109  1  0.10799380  0.41688245  0.12282912  1
  Mn  Mn110  1  0.10795454  0.08292676  0.12273987  1
  Mn  Mn111  1  0.85705499  0.08302942  0.50187176  1
  Mn  Mn112  1  0.10848339  0.74965826  0.37193952  1
  Mn  Mn113  1  0.85821208  0.41640149  0.75247496  1
  Mn  Mn114  1  0.60669597  0.74975757  0.62292920  1
  Mn  Mn115  1  0.89308830  0.91718131  0.37792847  1
  Mn  Mn116  1  0.89230689  0.24975228  0.62726109  1
  Mn  Mn117  1  0.85731218  0.41645997  0.50186175  1
  Mn  Mn118  1  0.10864683  0.41702270  0.62263632  1
  Mn  Mn119  1  0.35819500  0.08273710  0.25261349  1
  Mn  Mn120  1  0.60752756  0.41639467  0.12261928  1
  Mn  Mn121  1  0.85753952  0.08323078  0.75149846  1
  Mn  Mn122  1  0.60726542  0.75014698  0.37251301  1
  Mn  Mn123  1  0.14250926  0.25019486  0.24858692  1
  Mn  Mn124  1  0.60680977  0.41690637  0.62292635  1
  Mn  Mn125  1  0.35819164  0.75018193  0.00299799  1
  Mn  Mn126  1  0.14318863  0.58267234  0.99786798  1
  Mn  Mn127  1  0.85806080  0.74905660  0.25269526  1
  Mn  Mn128  1  0.35755114  0.41691579  0.50150738  1
  Mn  Mn129  1  0.60827016  0.74932513  0.87241635  1
  Mn  Mn130  1  0.64145987  0.58405391  0.74713592  1
  Mn  Mn131  1  0.39151389  0.25009703  0.87754732  1
  Mn  Mn132  1  0.64152875  0.91567701  0.24748723  1
  Mn  Mn133  1  0.89323717  0.24979157  0.87698030  1
  Mn  Mn134  1  0.89193450  0.58399738  0.12731574  1
  Mn  Mn135  1  0.39172293  0.24943560  0.12704022  1
  Mn  Mn136  1  0.64194518  0.25087529  0.24799059  1
  Mn  Mn137  1  0.39239333  0.25012736  0.62753519  1
  Mn  Mn138  1  0.85742041  0.08380883  0.25292104  1
  Mn  Mn139  1  0.39267694  0.91650738  0.12677696  1
  Mn  Mn140  1  0.64145565  0.24965325  0.74783823  1
  Mn  Mn141  1  0.35772068  0.08396186  0.00186288  1
  Mn  Mn142  1  0.64193306  0.25107237  0.99739274  1
  Mn  Mn143  1  0.39298926  0.91673463  0.87716034  1
  Fe  Fe144  1  0.64252477  0.91615940  0.74821756  1
  Fe  Fe145  1  0.14229483  0.58343606  0.49796613  1
  Fe  Fe146  1  0.39308316  0.24936475  0.37681891  1
  Fe  Fe147  1  0.10845821  0.75025817  0.62362570  1
  Fe  Fe148  1  0.14227895  0.25045378  0.99837819  1
  Fe  Fe149  1  0.35707908  0.41718558  0.25228964  1
  Fe  Fe150  1  0.60773116  0.08331385  0.12336588  1
  Fe  Fe151  1  0.39195759  0.91752609  0.37699460  1
  Fe  Fe152  1  0.10741084  0.08308175  0.87303766  1
  Fe  Fe153  1  0.39240886  0.58304019  0.87702332  1
  Fe  Fe154  1  0.85742558  0.41688259  0.25256073  1
  Fe  Fe155  1  0.60613291  0.08294621  0.62287886  1
  Fe  Fe156  1  0.14322983  0.25039220  0.74819987  1
  Fe  Fe157  1  0.89353520  0.58360052  0.62620175  1
  Fe  Fe158  1  0.89263643  0.91677142  0.12709232  1
  Fe  Fe159  1  0.64375113  0.91556518  0.99849556  1
  Fe  Fe160  1  0.35684017  0.08358726  0.75176623  1
  Fe  Fe161  1  0.39296248  0.58366886  0.12739876  1
  Fe  Fe162  1  0.14379556  0.58314238  0.74836861  1
  Fe  Fe163  1  0.35713771  0.41575875  0.00147179  1
  Fe  Fe164  1  0.64103738  0.91643447  0.49811444  1
  Fe  Fe165  1  0.10838044  0.41659608  0.87358533  1
  Fe  Fe166  1  0.89270723  0.25012197  0.37685122  1
  Fe  Fe167  1  0.60600838  0.08358050  0.37390480  1
  Fe  Fe168  1  0.35707676  0.74970330  0.75135090  1
  Fe  Fe169  1  0.89204296  0.91722430  0.87647334  1
  Fe  Fe170  1  0.10677575  0.41623084  0.37288476  1
  Fe  Fe171  1  0.35678211  0.74989544  0.25084348  1
  Fe  Fe172  1  0.39256389  0.91628493  0.62733197  1
  Fe  Fe173  1  0.14299576  0.58405142  0.24813003  1
  Fe  Fe174  1  0.64313319  0.58312773  0.24847064  1
  Fe  Fe175  1  0.64251161  0.58350236  0.99851875  1
  Fe  Fe176  1  0.14377672  0.91649428  0.49853519  1
  Fe  Fe177  1  0.39153083  0.58373145  0.62631207  1
  Fe  Fe178  1  0.35735899  0.08311297  0.50188005  1
  Fe  Fe179  1  0.85744438  0.41745316  0.00051110  1
  Fe  Fe180  1  0.60670436  0.41664819  0.87376078  1
  Fe  Fe181  1  0.14327296  0.91581411  0.24850224  1
  Fe  Fe182  1  0.64168468  0.25016379  0.49731806  1
  Fe  Fe183  1  0.64223318  0.58328978  0.49848792  1
  Fe  Fe184  1  0.60769909  0.08412896  0.87252507  1
  Fe  Fe185  1  0.60721191  0.41605261  0.37279493  1
  Fe  Fe186  1  0.10838338  0.08262325  0.62277547  1
  Fe  Fe187  1  0.89312160  0.58280859  0.37689700  1
  Fe  Fe188  1  0.10745847  0.75043683  0.12348859  1
  Fe  Fe189  1  0.35694590  0.41661884  0.75225842  1
  Fe  Fe190  1  0.10794394  0.08442342  0.37345826  1
  Fe  Fe191  1  0.85736070  0.74935302  0.00173023  1
  P  P192  1  0.05410850  0.25024303  0.10931312  1
  P  P193  1  0.05218861  0.25050429  0.35995275  1
  P  P194  1  0.05543669  0.24947179  0.61108984  1
  P  P195  1  0.05601623  0.25043586  0.86068085  1
  P  P196  1  0.05504185  0.58433669  0.11128626  1
  P  P197  1  0.05427681  0.58229397  0.36008901  1
  P  P198  1  0.05497065  0.58416935  0.61057925  1
  P  P199  1  0.05487257  0.58230966  0.85958279  1
  P  P200  1  0.05363451  0.91553299  0.11147323  1
  P  P201  1  0.05612495  0.91755951  0.36071266  1
  P  P202  1  0.05477572  0.91638270  0.60920791  1
  P  P203  1  0.05177238  0.91709148  0.85983613  1
  P  P204  1  0.55289634  0.24955631  0.10991320  1
  P  P205  1  0.55312590  0.24993294  0.36129568  1
  P  P206  1  0.55359383  0.24943873  0.60931174  1
  P  P207  1  0.55286843  0.25087838  0.85995591  1
  P  P208  1  0.55390221  0.58329514  0.11059267  1
  P  P209  1  0.55530360  0.58230563  0.36024081  1
  P  P210  1  0.55135068  0.58355860  0.60924699  1
  P  P211  1  0.55342285  0.58222073  0.86139568  1
  P  P212  1  0.55400059  0.91702498  0.10888042  1
  P  P213  1  0.55255589  0.91747591  0.36142009  1
  P  P214  1  0.55320854  0.91683867  0.61105373  1
  P  P215  1  0.55606059  0.91687580  0.86050458  1
  P  P216  1  0.44825327  0.08297642  0.13984159  1
  P  P217  1  0.44656455  0.08319573  0.39078954  1
  P  P218  1  0.44543908  0.08242666  0.63951391  1
  P  P219  1  0.44683555  0.08349670  0.88853082  1
  P  P220  1  0.44435190  0.41733777  0.13951155  1
  P  P221  1  0.44651063  0.41623820  0.38849915  1
  P  P222  1  0.44524337  0.41789032  0.64050819  1
  P  P223  1  0.44528960  0.41729781  0.88962277  1
  P  P224  1  0.44639433  0.74929041  0.14090420  1
  P  P225  1  0.44451827  0.75068752  0.38861748  1
  P  P226  1  0.44552199  0.74976324  0.64061964  1
  P  P227  1  0.44540483  0.74911028  0.88879861  1
  P  P228  1  0.94642171  0.08244884  0.14019869  1
  P  P229  1  0.94815572  0.08440479  0.39020438  1
  P  P230  1  0.94839751  0.08307072  0.63961396  1
  P  P231  1  0.94793257  0.08273658  0.88963861  1
  P  P232  1  0.94443389  0.41699068  0.13941527  1
  P  P233  1  0.94649196  0.41678469  0.38875283  1
  P  P234  1  0.94693941  0.41745903  0.63971711  1
  P  P235  1  0.94839252  0.41683459  0.89048678  1
  P  P236  1  0.94645762  0.75063191  0.13920618  1
  P  P237  1  0.94709093  0.74884526  0.39000200  1
  P  P238  1  0.94869727  0.74947995  0.63927749  1
  P  P239  1  0.94601110  0.75076440  0.89062798  1
  P  P240  1  0.19568344  0.08260800  0.23669557  1
  P  P241  1  0.19648884  0.08244687  0.48557512  1
  P  P242  1  0.19594624  0.08369851  0.73537587  1
  P  P243  1  0.19591616  0.08406859  0.98412519  1
  P  P244  1  0.19646625  0.41738417  0.23640637  1
  P  P245  1  0.19589498  0.41775437  0.48390276  1
  P  P246  1  0.19701269  0.41682970  0.73642877  1
  P  P247  1  0.19759252  0.41614938  0.98464171  1
  P  P248  1  0.19722814  0.75005600  0.23437331  1
  P  P249  1  0.19544619  0.74977910  0.48644360  1
  P  P250  1  0.19744055  0.74921262  0.73492089  1
  P  P251  1  0.19586106  0.75014727  0.98584293  1
  P  P252  1  0.69425722  0.08349423  0.23579657  1
  P  P253  1  0.69353493  0.08312972  0.48560438  1
  P  P254  1  0.69426242  0.08244714  0.73507853  1
  P  P255  1  0.69461816  0.08260390  0.98579928  1
  P  P256  1  0.69658882  0.41734468  0.23638551  1
  P  P257  1  0.69507840  0.41668944  0.48469568  1
  P  P258  1  0.69528574  0.41686954  0.73565730  1
  P  P259  1  0.69713056  0.41809542  0.98431270  1
  P  P260  1  0.69675065  0.74876171  0.23500771  1
  P  P261  1  0.69581668  0.75011640  0.48513664  1
  P  P262  1  0.69690102  0.75083931  0.73448142  1
  P  P263  1  0.69790495  0.74948141  0.98521396  1
  P  P264  1  0.30142520  0.25034984  0.01505290  1
  P  P265  1  0.30435962  0.25042588  0.26596332  1
  P  P266  1  0.30483415  0.24927096  0.51368013  1
  P  P267  1  0.30247012  0.24967188  0.76452833  1
  P  P268  1  0.30584257  0.58208713  0.01451292  1
  P  P269  1  0.30343773  0.58392461  0.26346953  1
  P  P270  1  0.30222298  0.58300181  0.51532530  1
  P  P271  1  0.30435057  0.58361996  0.76432466  1
  P  P272  1  0.30300385  0.91741252  0.01500493  1
  P  P273  1  0.30296427  0.91558934  0.26549868  1
  P  P274  1  0.30450408  0.91764096  0.51465384  1
  P  P275  1  0.30483962  0.91656510  0.76351923  1
  P  P276  1  0.80308155  0.25105607  0.01463658  1
  P  P277  1  0.80390357  0.25069520  0.26605474  1
  P  P278  1  0.80270121  0.24968703  0.51391444  1
  P  P279  1  0.80298897  0.24936702  0.76516520  1
  P  P280  1  0.80240269  0.58316461  0.01446649  1
  P  P281  1  0.80308997  0.58237863  0.26612777  1
  P  P282  1  0.80386320  0.58315137  0.51437953  1
  P  P283  1  0.80488737  0.58378259  0.76339134  1
  P  P284  1  0.80443912  0.91613057  0.01444006  1
  P  P285  1  0.80433623  0.91676934  0.26444551  1
  P  P286  1  0.80119405  0.91717901  0.51481494  1
  P  P287  1  0.80260443  0.91732515  0.76534818  1
  O  O288  1  0.05735760  0.25056513  0.18608354  1
  O  O289  1  0.05593393  0.25059773  0.43668960  1
  O  O290  1  0.05981586  0.25020648  0.68787497  1
  O  O291  1  0.05926747  0.25081468  0.93751524  1
  O  O292  1  0.05938100  0.58360106  0.18804936  1
  O  O293  1  0.05869625  0.58312262  0.43682899  1
  O  O294  1  0.06000226  0.58345369  0.68726204  1
  O  O295  1  0.05768637  0.58278136  0.93640817  1
  O  O296  1  0.05881921  0.91586024  0.18811355  1
  O  O297  1  0.06046862  0.91664226  0.43745101  1
  O  O298  1  0.05710415  0.91630387  0.68606484  1
  O  O299  1  0.05518513  0.91660481  0.93655722  1
  O  O300  1  0.55580173  0.25064053  0.18670883  1
  O  O301  1  0.55729823  0.25053881  0.43798868  1
  O  O302  1  0.55623074  0.25026525  0.68610672  1
  O  O303  1  0.55580899  0.25085223  0.93674095  1
  O  O304  1  0.55907530  0.58322566  0.18725065  1
  O  O305  1  0.55928769  0.58316531  0.43702851  1
  O  O306  1  0.55505828  0.58358624  0.68602580  1
  O  O307  1  0.55846756  0.58312717  0.93805944  1
  O  O308  1  0.55615111  0.91583886  0.18578747  1
  O  O309  1  0.55699357  0.91626424  0.43811453  1
  O  O310  1  0.55797633  0.91617255  0.68770106  1
  O  O311  1  0.56044206  0.91559766  0.93723222  1
  O  O312  1  0.44440438  0.08309426  0.06314059  1
  O  O313  1  0.44365189  0.08286986  0.31398822  1
  O  O314  1  0.44089379  0.08310839  0.56281244  1
  O  O315  1  0.44117199  0.08367239  0.81190441  1
  O  O316  1  0.44043722  0.41633182  0.06271673  1
  O  O317  1  0.44145525  0.41730571  0.31182810  1
  O  O318  1  0.44267183  0.41710892  0.56368229  1
  O  O319  1  0.44037429  0.41643019  0.81289145  1
  O  O320  1  0.44396699  0.74982879  0.06404053  1
  O  O321  1  0.44031653  0.74995941  0.31190991  1
  O  O322  1  0.44319906  0.74970046  0.56372583  1
  O  O323  1  0.44098077  0.74977088  0.81209330  1
  O  O324  1  0.94322816  0.08310448  0.06340362  1
  O  O325  1  0.94409981  0.08358516  0.31353480  1
  O  O326  1  0.94384210  0.08327111  0.56296103  1
  O  O327  1  0.94422412  0.08332618  0.81296238  1
  O  O328  1  0.94004704  0.41738505  0.06265292  1
  O  O329  1  0.94203893  0.41690611  0.31203636  1
  O  O330  1  0.94348834  0.41697315  0.56291731  1
  O  O331  1  0.94446581  0.41699379  0.81375352  1
  O  O332  1  0.94129781  0.74950583  0.06253080  1
  O  O333  1  0.94397622  0.74953822  0.31321307  1
  O  O334  1  0.94473991  0.75001250  0.56259191  1
  O  O335  1  0.94363665  0.74995048  0.81378367  1
  O  O336  1  0.19324271  0.08285073  0.06099840  1
  O  O337  1  0.19177033  0.08370318  0.31345970  1
  O  O338  1  0.19212293  0.08332425  0.56232212  1
  O  O339  1  0.19099400  0.08253749  0.81205226  1
  O  O340  1  0.19409273  0.41697168  0.06138633  1
  O  O341  1  0.19127341  0.41671609  0.31301950  1
  O  O342  1  0.19350810  0.41679970  0.56075491  1
  O  O343  1  0.19271865  0.41690007  0.81306204  1
  O  O344  1  0.19137235  0.75049371  0.06256322  1
  O  O345  1  0.19414732  0.74976592  0.31123125  1
  O  O346  1  0.19189837  0.74974198  0.56317739  1
  O  O347  1  0.19387410  0.75006435  0.81165398  1
  O  O348  1  0.69108368  0.08360542  0.06263548  1
  O  O349  1  0.68954952  0.08346345  0.31255231  1
  O  O350  1  0.68964121  0.08301463  0.56242343  1
  O  O351  1  0.69068941  0.08363007  0.81194716  1
  O  O352  1  0.69359709  0.41722471  0.06109407  1
  O  O353  1  0.69144684  0.41619876  0.31299718  1
  O  O354  1  0.69231048  0.41670812  0.56150738  1
  O  O355  1  0.69064633  0.41706930  0.81236046  1
  O  O356  1  0.69426319  0.74950692  0.06190271  1
  O  O357  1  0.69334129  0.74983273  0.31174325  1
  O  O358  1  0.69285932  0.75027319  0.56188964  1
  O  O359  1  0.69410193  0.74982934  0.81126029  1
  O  O360  1  0.30670198  0.24954496  0.18911583  1
  O  O361  1  0.30937201  0.24969095  0.43695468  1
  O  O362  1  0.30612521  0.24967003  0.68782228  1
  O  O363  1  0.30501111  0.24953795  0.93832829  1
  O  O364  1  0.30797536  0.58361475  0.18682878  1
  O  O365  1  0.30633722  0.58324412  0.43861096  1
  O  O366  1  0.30816899  0.58348989  0.68758146  1
  O  O367  1  0.30929740  0.58311262  0.93766310  1
  O  O368  1  0.30669713  0.91681925  0.18880374  1
  O  O369  1  0.30881451  0.91719695  0.43790707  1
  O  O370  1  0.30836025  0.91676942  0.68670852  1
  O  O371  1  0.30680571  0.91718444  0.93822480  1
  O  O372  1  0.80690002  0.24974498  0.18924403  1
  O  O373  1  0.80853271  0.24958145  0.43730750  1
  O  O374  1  0.80610573  0.24925604  0.68831453  1
  O  O375  1  0.80637824  0.24993983  0.93787626  1
  O  O376  1  0.80661810  0.58316259  0.18934300  1
  O  O377  1  0.80900442  0.58302881  0.43773109  1
  O  O378  1  0.80976335  0.58360809  0.68664135  1
  O  O379  1  0.80610765  0.58330266  0.93779094  1
  O  O380  1  0.80883682  0.91695985  0.18765796  1
  O  O381  1  0.80601064  0.91738810  0.43815794  1
  O  O382  1  0.80677254  0.91748831  0.68862888  1
  O  O383  1  0.80882179  0.91728128  0.93768907  1
  O  O384  1  0.23161350  0.25050441  0.04023048  1
  O  O385  1  0.23472215  0.24989205  0.29139176  1
  O  O386  1  0.23476726  0.25007811  0.53763864  1
  O  O387  1  0.23240974  0.24983420  0.78905673  1
  O  O388  1  0.23582343  0.58271463  0.03878806  1
  O  O389  1  0.23312909  0.58423712  0.28756582  1
  O  O390  1  0.23208931  0.58290761  0.53941190  1
  O  O391  1  0.23405205  0.58336946  0.78859287  1
  O  O392  1  0.23323471  0.91750624  0.03967399  1
  O  O393  1  0.23288764  0.91576880  0.29004739  1
  O  O394  1  0.23412185  0.91682872  0.53832017  1
  O  O395  1  0.23490186  0.91626865  0.78829479  1
  O  O396  1  0.73346247  0.25110490  0.04006857  1
  O  O397  1  0.73406019  0.25038469  0.29080745  1
  O  O398  1  0.73209043  0.24996415  0.53668433  1
  O  O399  1  0.73333852  0.24954133  0.79023686  1
  O  O400  1  0.73244814  0.58293716  0.03949189  1
  O  O401  1  0.73297628  0.58290508  0.29043140  1
  O  O402  1  0.73322418  0.58295255  0.53749395  1
  O  O403  1  0.73468923  0.58403069  0.78698526  1
  O  O404  1  0.73399082  0.91638850  0.03815804  1
  O  O405  1  0.73413080  0.91652623  0.28810868  1
  O  O406  1  0.73090947  0.91715132  0.53849918  1
  O  O407  1  0.73247110  0.91662374  0.78951585  1
  O  O408  1  0.26564752  0.08320675  0.21212587  1
  O  O409  1  0.26685819  0.08260818  0.46184893  1
  O  O410  1  0.26642474  0.08335358  0.71189423  1
  O  O411  1  0.26548861  0.08339816  0.95857862  1
  O  O412  1  0.26690447  0.41682002  0.21295573  1
  O  O413  1  0.26554624  0.41771872  0.45862510  1
  O  O414  1  0.26727760  0.41701545  0.71216922  1
  O  O415  1  0.26761400  0.41652423  0.95995209  1
  O  O416  1  0.26718804  0.75005724  0.20948063  1
  O  O417  1  0.26533459  0.74982050  0.46173961  1
  O  O418  1  0.26747454  0.74953249  0.71030876  1
  O  O419  1  0.26593921  0.74947355  0.96194013  1
  O  O420  1  0.76443777  0.08367508  0.21214042  1
  O  O421  1  0.76357849  0.08308977  0.46117372  1
  O  O422  1  0.76414920  0.08335714  0.71036265  1
  O  O423  1  0.76464129  0.08282311  0.96131967  1
  O  O424  1  0.76695633  0.41713335  0.21288609  1
  O  O425  1  0.76490134  0.41684450  0.45977143  1
  O  O426  1  0.76530971  0.41655849  0.71151274  1
  O  O427  1  0.76717782  0.41764213  0.95952181  1
  O  O428  1  0.76642768  0.74901882  0.20996107  1
  O  O429  1  0.76543364  0.75007560  0.45962899  1
  O  O430  1  0.76640614  0.75081256  0.70888123  1
  O  O431  1  0.76789838  0.74980215  0.96035729  1
  O  O432  1  0.01617059  0.08300668  0.16513945  1
  O  O433  1  0.01836287  0.08418982  0.41445249  1
  O  O434  1  0.01866224  0.08252608  0.66349971  1
  O  O435  1  0.01798752  0.08312099  0.91433943  1
  O  O436  1  0.01470625  0.41683834  0.16296847  1
  O  O437  1  0.01669552  0.41680529  0.41303645  1
  O  O438  1  0.01677905  0.41702650  0.66444241  1
  O  O439  1  0.01853233  0.41677362  0.91481333  1
  O  O440  1  0.01671410  0.75038294  0.16314201  1
  O  O441  1  0.01697674  0.74907352  0.41460416  1
  O  O442  1  0.01870078  0.75022151  0.66405576  1
  O  O443  1  0.01564752  0.75027195  0.91609687  1
  O  O444  1  0.51819427  0.08298402  0.16461021  1
  O  O445  1  0.51650464  0.08306456  0.41572414  1
  O  O446  1  0.51593566  0.08299832  0.66293822  1
  O  O447  1  0.51744049  0.08334744  0.91127702  1
  O  O448  1  0.51446573  0.41668426  0.16359695  1
  O  O449  1  0.51682348  0.41663684  0.41217582  1
  O  O450  1  0.51491538  0.41732792  0.66575536  1
  O  O451  1  0.51560481  0.41719046  0.91341558  1
  O  O452  1  0.51591204  0.75010591  0.16649838  1
  O  O453  1  0.51451372  0.75009187  0.41290823  1
  O  O454  1  0.51499486  0.74986687  0.66645442  1
  O  O455  1  0.51547086  0.74904192  0.91293797  1
  O  O456  1  0.48334008  0.24966916  0.08430475  1
  O  O457  1  0.48297450  0.24943249  0.33686076  1
  O  O458  1  0.48382063  0.25014940  0.58433042  1
  O  O459  1  0.48330903  0.25025388  0.83434593  1
  O  O460  1  0.48338597  0.58320816  0.08749523  1
  O  O461  1  0.48512784  0.58285773  0.33636476  1
  O  O462  1  0.48129345  0.58333435  0.58462709  1
  O  O463  1  0.48298835  0.58261259  0.83791334  1
  O  O464  1  0.48454877  0.91654151  0.08294779  1
  O  O465  1  0.48227388  0.91781731  0.33741337  1
  O  O466  1  0.48271281  0.91626846  0.58757993  1
  O  O467  1  0.48586426  0.91702868  0.83676210  1
  O  O468  1  0.98433913  0.24998578  0.08448407  1
  O  O469  1  0.98228460  0.25034094  0.33502232  1
  O  O470  1  0.98543435  0.25010596  0.58680413  1
  O  O471  1  0.98613019  0.24987288  0.83575892  1
  O  O472  1  0.98498371  0.58352382  0.08715724  1
  O  O473  1  0.98397028  0.58293517  0.33617232  1
  O  O474  1  0.98455366  0.58339126  0.58690517  1
  O  O475  1  0.98516292  0.58335726  0.83449521  1
  O  O476  1  0.98328861  0.91635989  0.08780440  1
  O  O477  1  0.98595583  0.91670917  0.33690639  1
  O  O478  1  0.98523575  0.91665991  0.58335185  1
  O  O479  1  0.98187046  0.91675116  0.83477882  1
  O  O480  1  0.08817798  0.31527006  0.07665722  1
  O  O481  1  0.08598830  0.31561860  0.32715039  1
  O  O482  1  0.08924252  0.31434525  0.57783878  1
  O  O483  1  0.08964472  0.31563648  0.82768148  1
  O  O484  1  0.08822488  0.64960821  0.07845712  1
  O  O485  1  0.08823713  0.64715864  0.32668243  1
  O  O486  1  0.08795913  0.64943197  0.57732467  1
  O  O487  1  0.08965837  0.64707142  0.82707640  1
  O  O488  1  0.08710022  0.98053602  0.07803383  1
  O  O489  1  0.08927255  0.98292302  0.32796602  1
  O  O490  1  0.08952420  0.98139479  0.57725754  1
  O  O491  1  0.08596223  0.98204881  0.82738605  1
  O  O492  1  0.58700611  0.31467061  0.07733969  1
  O  O493  1  0.58638067  0.31491274  0.32759630  1
  O  O494  1  0.58816088  0.31417280  0.57664690  1
  O  O495  1  0.58659921  0.31637506  0.82788654  1
  O  O496  1  0.58709095  0.64831228  0.07691322  1
  O  O497  1  0.58910269  0.64716094  0.32687994  1
  O  O498  1  0.58528267  0.64861100  0.57656631  1
  O  O499  1  0.58668534  0.64710386  0.82748341  1
  O  O500  1  0.58846163  0.98225304  0.07746541  1
  O  O501  1  0.58624053  0.98257207  0.32880533  1
  O  O502  1  0.58621078  0.98209468  0.57778140  1
  O  O503  1  0.58960425  0.98200219  0.82768279  1
  O  O504  1  0.41444029  0.01790139  0.17267995  1
  O  O505  1  0.41225557  0.01839619  0.42354699  1
  O  O506  1  0.41236228  0.01727674  0.67275505  1
  O  O507  1  0.41392789  0.01852854  0.92224559  1
  O  O508  1  0.41019811  0.35268236  0.17278264  1
  O  O509  1  0.41342541  0.35104420  0.42161546  1
  O  O510  1  0.41072357  0.35302992  0.67322666  1
  O  O511  1  0.41179999  0.35231126  0.92322381  1
  O  O512  1  0.41226947  0.68404729  0.17301637  1
  O  O513  1  0.41082595  0.68568895  0.42188013  1
  O  O514  1  0.41109840  0.68459529  0.67257094  1
  O  O515  1  0.41180094  0.68402563  0.92163664  1
  O  O516  1  0.91264443  0.01730269  0.17266218  1
  O  O517  1  0.91452839  0.01932633  0.42335728  1
  O  O518  1  0.91446862  0.01801617  0.67227062  1
  O  O519  1  0.91411850  0.01759488  0.92216443  1
  O  O520  1  0.91081060  0.35198572  0.17251117  1
  O  O521  1  0.91298828  0.35168783  0.42195866  1
  O  O522  1  0.91292946  0.35240479  0.67236127  1
  O  O523  1  0.91424303  0.35187746  0.92306413  1
  O  O524  1  0.91320868  0.68549584  0.17276231  1
  O  O525  1  0.91329620  0.68351553  0.42208697  1
  O  O526  1  0.91518413  0.68433109  0.67198511  1
  O  O527  1  0.91151041  0.68584476  0.92328213  1
  O  O528  1  0.16252134  0.01704732  0.20414217  1
  O  O529  1  0.16301338  0.01733803  0.45285916  1
  O  O530  1  0.16258247  0.01873946  0.70164996  1
  O  O531  1  0.16103091  0.01951207  0.95121947  1
  O  O532  1  0.16314760  0.35236426  0.20290276  1
  O  O533  1  0.16154858  0.35281702  0.45119483  1
  O  O534  1  0.16379541  0.35177218  0.70303388  1
  O  O535  1  0.16364650  0.35106349  0.95222164  1
  O  O536  1  0.16292649  0.68526142  0.20170623  1
  O  O537  1  0.16190758  0.68462819  0.45337116  1
  O  O538  1  0.16351731  0.68405398  0.70254718  1
  O  O539  1  0.16221793  0.68507319  0.95297364  1
  O  O540  1  0.66079423  0.01846266  0.20246958  1
  O  O541  1  0.65964441  0.01812692  0.45265417  1
  O  O542  1  0.66084796  0.01685537  0.70279214  1
  O  O543  1  0.66104512  0.01731354  0.95337776  1
  O  O544  1  0.66330838  0.35250115  0.20245197  1
  O  O545  1  0.66100150  0.35160042  0.45200927  1
  O  O546  1  0.66158283  0.35181885  0.70271008  1
  O  O547  1  0.66270784  0.35330712  0.95141819  1
  O  O548  1  0.66287692  0.68340075  0.20296781  1
  O  O549  1  0.66168331  0.68478622  0.45316117  1
  O  O550  1  0.66247771  0.68595679  0.70189775  1
  O  O551  1  0.66413567  0.68430031  0.95243662  1
  O  O552  1  0.33565067  0.31545541  0.04713035  1
  O  O553  1  0.33851970  0.31569473  0.29786619  1
  O  O554  1  0.33847782  0.31430144  0.54675186  1
  O  O555  1  0.33621818  0.31474123  0.79730711  1
  O  O556  1  0.33999066  0.64671284  0.04791622  1
  O  O557  1  0.33679939  0.64901065  0.29662895  1
  O  O558  1  0.33609819  0.64788829  0.54844652  1
  O  O559  1  0.33774515  0.64877201  0.79745257  1
  O  O560  1  0.33700748  0.98241585  0.04760432  1
  O  O561  1  0.33693279  0.98052846  0.29879796  1
  O  O562  1  0.33766065  0.98274810  0.54789038  1
  O  O563  1  0.33829311  0.98183364  0.79638007  1
  O  O564  1  0.83722948  0.31635111  0.04637318  1
  O  O565  1  0.83795528  0.31597246  0.29818669  1
  O  O566  1  0.83585373  0.31478695  0.54739980  1
  O  O567  1  0.83733637  0.31437230  0.79741271  1
  O  O568  1  0.83621968  0.64829496  0.04739863  1
  O  O569  1  0.83735305  0.64712906  0.29908492  1
  O  O570  1  0.83709404  0.64825728  0.54781094  1
  O  O571  1  0.83837672  0.64886366  0.79642541  1
  O  O572  1  0.83793833  0.98096571  0.04816508  1
  O  O573  1  0.83751040  0.98183107  0.29793571  1
  O  O574  1  0.83475720  0.98207871  0.54808092  1
  O  O575  1  0.83589748  0.98252092  0.79856720  1
  O  O576  1  0.41427980  0.14790242  0.17267070  1
  O  O577  1  0.41262259  0.14838486  0.42319819  1
  O  O578  1  0.41195670  0.14736083  0.67312256  1
  O  O579  1  0.41400571  0.14857149  0.92237018  1
  O  O580  1  0.41109910  0.48278569  0.17235745  1
  O  O581  1  0.41311246  0.48114445  0.42217505  1
  O  O582  1  0.41124608  0.48313256  0.67255098  1
  O  O583  1  0.41178626  0.48229556  0.92263485  1
  O  O584  1  0.41137785  0.81407507  0.17300162  1
  O  O585  1  0.41127386  0.81593947  0.42154885  1
  O  O586  1  0.41093882  0.81477979  0.67266810  1
  O  O587  1  0.41214446  0.81423877  0.92220930  1
  O  O588  1  0.91224204  0.14754508  0.17262715  1
  O  O589  1  0.91440236  0.14955771  0.42277885  1
  O  O590  1  0.91513045  0.14817347  0.67286595  1
  O  O591  1  0.91404394  0.14769793  0.92268242  1
  O  O592  1  0.91106154  0.48195675  0.17300091  1
  O  O593  1  0.91320916  0.48202617  0.42191104  1
  O  O594  1  0.91332685  0.48277076  0.67202673  1
  O  O595  1  0.91448619  0.48184460  0.92343777  1
  O  O596  1  0.91309876  0.81573492  0.17221194  1
  O  O597  1  0.91313790  0.81390289  0.42273571  1
  O  O598  1  0.91449045  0.81452697  0.67186471  1
  O  O599  1  0.91175844  0.81600365  0.92241986  1
  O  O600  1  0.08849088  0.18531558  0.07699022  1
  O  O601  1  0.08639829  0.18542708  0.32762643  1
  O  O602  1  0.08876324  0.18412154  0.57832183  1
  O  O603  1  0.09020936  0.18536389  0.82818354  1
  O  O604  1  0.08885075  0.51940230  0.07812095  1
  O  O605  1  0.08761905  0.51713769  0.32705246  1
  O  O606  1  0.08859472  0.51936273  0.57686896  1
  O  O607  1  0.08870925  0.51700953  0.82726909  1
  O  O608  1  0.08647378  0.85040259  0.07784146  1
  O  O609  1  0.09001148  0.85271879  0.32715945  1
  O  O610  1  0.08924677  0.85128143  0.57720322  1
  O  O611  1  0.08596303  0.85208490  0.82718637  1
  O  O612  1  0.58723731  0.18445388  0.07813850  1
  O  O613  1  0.58670783  0.18464466  0.32879514  1
  O  O614  1  0.58735872  0.18404347  0.57728643  1
  O  O615  1  0.58745402  0.18594549  0.82776000  1
  O  O616  1  0.58718001  0.51834026  0.07696696  1
  O  O617  1  0.58862189  0.51709522  0.32723551  1
  O  O618  1  0.58569278  0.51871761  0.57666950  1
  O  O619  1  0.58635074  0.51700646  0.82810553  1
  O  O620  1  0.58880601  0.85217852  0.07643275  1
  O  O621  1  0.58569870  0.85252567  0.32751676  1
  O  O622  1  0.58667845  0.85208616  0.57716546  1
  O  O623  1  0.58931630  0.85184628  0.82680508  1
  O  O624  1  0.33528658  0.18526956  0.04791827  1
  O  O625  1  0.33909714  0.18556301  0.29832154  1
  O  O626  1  0.33778469  0.18392450  0.54679735  1
  O  O627  1  0.33600927  0.18451294  0.79741877  1
  O  O628  1  0.33911066  0.51665770  0.04694776  1
  O  O629  1  0.33659260  0.51882928  0.29710937  1
  O  O630  1  0.33621268  0.51810620  0.54810899  1
  O  O631  1  0.33805981  0.51861851  0.79750999  1
  O  O632  1  0.33688196  0.85227802  0.04760484  1
  O  O633  1  0.33673275  0.85035575  0.29782054  1
  O  O634  1  0.33828021  0.85278785  0.54799576  1
  O  O635  1  0.33858647  0.85138076  0.79612211  1
  O  O636  1  0.83697523  0.18589666  0.04743657  1
  O  O637  1  0.83815526  0.18590984  0.29909353  1
  O  O638  1  0.83554283  0.18460048  0.54771454  1
  O  O639  1  0.83703364  0.18427898  0.79758974  1
  O  O640  1  0.83646462  0.51815576  0.04704353  1
  O  O641  1  0.83686017  0.51722030  0.29873882  1
  O  O642  1  0.83726644  0.51821017  0.54782376  1
  O  O643  1  0.83806049  0.51877400  0.79702845  1
  O  O644  1  0.83771599  0.85078340  0.04725238  1
  O  O645  1  0.83791198  0.85169043  0.29740933  1
  O  O646  1  0.83483638  0.85202979  0.54770996  1
  O  O647  1  0.83702136  0.85251794  0.79799936  1
  O  O648  1  0.16173454  0.14739844  0.20354785  1
  O  O649  1  0.16301090  0.14735949  0.45181897  1
  O  O650  1  0.16280782  0.14893951  0.70237333  1
  O  O651  1  0.16195244  0.14958626  0.95256611  1
  O  O652  1  0.16364143  0.48256696  0.20291087  1
  O  O653  1  0.16145792  0.48286481  0.45215299  1
  O  O654  1  0.16363913  0.48196424  0.70321612  1
  O  O655  1  0.16354776  0.48097358  0.95150961  1
  O  O656  1  0.16315435  0.81529781  0.20212832  1
  O  O657  1  0.16199402  0.81498185  0.45357242  1
  O  O658  1  0.16333395  0.81404938  0.70183356  1
  O  O659  1  0.16276229  0.81525103  0.95232217  1
  O  O660  1  0.66066184  0.14851272  0.20258805  1
  O  O661  1  0.65986086  0.14834015  0.45266969  1
  O  O662  1  0.65960706  0.14685592  0.70183863  1
  O  O663  1  0.66071621  0.14746184  0.95238045  1
  O  O664  1  0.66342845  0.48259627  0.20327009  1
  O  O665  1  0.66084177  0.48174607  0.45240652  1
  O  O666  1  0.66188762  0.48196662  0.70234740  1
  O  O667  1  0.66313272  0.48322965  0.95192069  1
  O  O668  1  0.66261010  0.81370060  0.20222027  1
  O  O669  1  0.66155756  0.81518159  0.45264510  1
  O  O670  1  0.66252194  0.81607640  0.70275521  1
  O  O671  1  0.66391839  0.81451499  0.95259982  1
