# generated using pymatgen
data_Na2MnFe(PO4)2
_symmetry_space_group_name_H-M   'P 1'
_cell_length_a   21.07846319
_cell_length_b   18.92918095
_cell_length_c   20.03803153
_cell_angle_alpha   90.00026931
_cell_angle_beta   89.99964614
_cell_angle_gamma   89.99955321
_symmetry_Int_Tables_number   1
_chemical_formula_structural   Na2MnFe(PO4)2
_chemical_formula_sum   'Na96 Mn48 Fe48 P96 O384'
_cell_volume   7995.13538142
_cell_formula_units_Z   48
loop_
 _symmetry_equiv_pos_site_id
 _symmetry_equiv_pos_as_xyz
  1  'x, y, z'
loop_
 _atom_site_type_symbol
 _atom_site_label
 _atom_site_symmetry_multiplicity
 _atom_site_fract_x
 _atom_site_fract_y
 _atom_site_fract_z
 _atom_site_occupancy
  Na  Na0  1  0.00043410  -0.00022855  0.00069647  1
  Na  Na1  1  0.00054934  0.00020917  0.24926935  1
  Na  Na2  1  0.00227729  0.00082980  0.49990066  1
  Na  Na3  1  0.00311866  0.00121316  0.75049777  1
  Na  Na4  1  0.00095244  0.33390066  -0.00051770  1
  Na  Na5  1  0.00015218  0.33343533  0.24991189  1
  Na  Na6  1  -0.00092015  0.33259905  0.49964601  1
  Na  Na7  1  -0.00041335  0.33258234  0.75033036  1
  Na  Na8  1  -0.00046650  0.66673975  -0.00098184  1
  Na  Na9  1  -0.00113876  0.66667121  0.24949133  1
  Na  Na10  1  -0.00343344  0.66602786  0.50145187  1
  Na  Na11  1  -0.00279214  0.66607959  0.75039858  1
  Na  Na12  1  0.50117115  0.00065380  -0.00021208  1
  Na  Na13  1  0.49835695  -0.00036835  0.25024649  1
  Na  Na14  1  0.49929292  0.00004590  0.50019058  1
  Na  Na15  1  0.50239378  0.00097793  0.74955731  1
  Na  Na16  1  0.50070960  0.33324380  0.00000090  1
  Na  Na17  1  0.49833309  0.33225917  0.25013092  1
  Na  Na18  1  0.50059209  0.33307975  0.50055353  1
  Na  Na19  1  0.50067714  0.33249505  0.75022782  1
  Na  Na20  1  0.49858723  0.66655743  -0.00035888  1
  Na  Na21  1  0.49864446  0.66609329  0.24960619  1
  Na  Na22  1  0.49894855  0.66648937  0.49987082  1
  Na  Na23  1  0.49981969  0.66716648  0.75003108  1
  Na  Na24  1  0.24893867  -0.00010119  0.12462508  1
  Na  Na25  1  0.24949234  0.00013625  0.37612913  1
  Na  Na26  1  0.24739212  -0.00050099  0.62468063  1
  Na  Na27  1  0.24732702  -0.00049324  0.87445737  1
  Na  Na28  1  0.24738609  0.33280520  0.12470772  1
  Na  Na29  1  0.25047561  0.33301387  0.37524503  1
  Na  Na30  1  0.24909861  0.33293866  0.62590453  1
  Na  Na31  1  0.24665946  0.33279231  0.87464830  1
  Na  Na32  1  0.24991785  0.66661318  0.12554216  1
  Na  Na33  1  0.25294263  0.66734481  0.37438115  1
  Na  Na34  1  0.25115656  0.66699145  0.62435099  1
  Na  Na35  1  0.24861012  0.66656439  0.87621212  1
  Na  Na36  1  0.75205010  0.00112086  0.12510487  1
  Na  Na37  1  0.75026156  0.00086159  0.37487149  1
  Na  Na38  1  0.74671961  -0.00095408  0.62531296  1
  Na  Na39  1  0.74934135  0.00003459  0.87576429  1
  Na  Na40  1  0.75199236  0.33312076  0.12448861  1
  Na  Na41  1  0.75291333  0.33378949  0.37508573  1
  Na  Na42  1  0.75121422  0.33213001  0.62500780  1
  Na  Na43  1  0.75273847  0.33336739  0.87474214  1
  Na  Na44  1  0.75149362  0.66633162  0.12559664  1
  Na  Na45  1  0.75044204  0.66660318  0.37379572  1
  Na  Na46  1  0.75176333  0.66683890  0.62467425  1
  Na  Na47  1  0.75415501  0.66760558  0.87491873  1
  Na  Na48  1  -0.00005918  0.16655238  0.00055835  1
  Na  Na49  1  -0.00156800  0.16699260  0.24969069  1
  Na  Na50  1  0.00116958  0.16624320  0.49974357  1
  Na  Na51  1  0.00045357  0.16706530  0.75061179  1
  Na  Na52  1  0.00024325  0.49981325  -0.00088345  1
  Na  Na53  1  -0.00089606  0.50033912  0.24944780  1
  Na  Na54  1  -0.00259434  0.50078670  0.50012844  1
  Na  Na55  1  -0.00120157  0.50049917  0.75031475  1
  Na  Na56  1  0.00055262  0.83346095  -0.00049878  1
  Na  Na57  1  0.00176348  0.83293360  0.24936017  1
  Na  Na58  1  -0.00131123  0.83418721  0.50111136  1
  Na  Na59  1  -0.00044847  0.83363104  0.75022958  1
  Na  Na60  1  0.50193193  0.16588964  -0.00044653  1
  Na  Na61  1  0.49872205  0.16697661  0.25085492  1
  Na  Na62  1  0.50030679  0.16709047  0.49954978  1
  Na  Na63  1  0.50328545  0.16624228  0.74988605  1
  Na  Na64  1  0.49906182  0.50069811  0.00024265  1
  Na  Na65  1  0.49951502  0.50053458  0.24963532  1
  Na  Na66  1  0.49965074  0.50050634  0.50005628  1
  Na  Na67  1  0.50053522  0.49967449  0.75034262  1
  Na  Na68  1  0.49861310  0.83380445  -0.00058765  1
  Na  Na69  1  0.49851541  0.83292625  0.24974802  1
  Na  Na70  1  0.49856335  0.83309145  0.50085043  1
  Na  Na71  1  0.49874390  0.83360733  0.74969270  1
  Na  Na72  1  0.24951795  0.16637981  0.12566898  1
  Na  Na73  1  0.25117337  0.16614668  0.37607923  1
  Na  Na74  1  0.24825938  0.16725991  0.62539804  1
  Na  Na75  1  0.24660772  0.16776628  0.87375346  1
  Na  Na76  1  0.24852959  0.50014306  0.12517615  1
  Na  Na77  1  0.25088780  0.50011611  0.37467662  1
  Na  Na78  1  0.24880996  0.50021317  0.62487858  1
  Na  Na79  1  0.24639063  0.50070530  0.87574007  1
  Na  Na80  1  0.24845136  0.83423052  0.12403333  1
  Na  Na81  1  0.25158034  0.83264814  0.37493215  1
  Na  Na82  1  0.25128254  0.83305461  0.62452076  1
  Na  Na83  1  0.24969385  0.83311586  0.87598259  1
  Na  Na84  1  0.75118137  0.16634557  0.12406106  1
  Na  Na85  1  0.75046311  0.16663667  0.37565222  1
  Na  Na86  1  0.74879160  0.16694961  0.62555707  1
  Na  Na87  1  0.75022631  0.16634752  0.87488298  1
  Na  Na88  1  0.75389205  0.49952241  0.12455629  1
  Na  Na89  1  0.75071676  0.50076556  0.37500417  1
  Na  Na90  1  0.75290314  0.49917449  0.62433991  1
  Na  Na91  1  0.75361169  0.49991612  0.87490923  1
  Na  Na92  1  0.75138725  0.83269569  0.12638100  1
  Na  Na93  1  0.74991000  0.83357877  0.37366755  1
  Na  Na94  1  0.75103634  0.83229321  0.62447874  1
  Na  Na95  1  0.75138158  0.83311563  0.87585173  1
  Mn  Mn96  1  0.89196470  0.91772516  0.62783037  1
  Mn  Mn97  1  0.60825365  0.75022215  0.87308983  1
  Mn  Mn98  1  0.64289612  0.91590436  0.99834916  1
  Mn  Mn99  1  0.60696608  0.08272735  0.37233266  1
  Mn  Mn100  1  0.10700055  0.41686305  0.37278408  1
  Mn  Mn101  1  0.89284816  0.91665358  0.37718262  1
  Mn  Mn102  1  0.39205196  0.24945113  0.87684231  1
  Mn  Mn103  1  0.35704846  0.08355365  0.50289120  1
  Mn  Mn104  1  0.85808209  0.41662152  0.50249381  1
  Mn  Mn105  1  0.35674218  0.41721589  0.75290235  1
  Mn  Mn106  1  0.64290003  0.58311030  0.49779037  1
  Mn  Mn107  1  0.35796867  0.41650268  0.50263376  1
  Mn  Mn108  1  0.85754405  0.08256816  0.75217406  1
  Mn  Mn109  1  0.10725375  0.75003232  0.62282280  1
  Mn  Mn110  1  0.64167625  0.91606873  0.49698833  1
  Mn  Mn111  1  0.35729109  0.08392611  0.00114073  1
  Mn  Mn112  1  0.39219707  0.91795357  0.62811826  1
  Mn  Mn113  1  0.14204423  0.58424099  0.24805373  1
  Mn  Mn114  1  0.64185241  0.91703348  0.24754669  1
  Mn  Mn115  1  0.85828556  0.75014578  0.25272336  1
  Mn  Mn116  1  0.10787024  0.75001075  0.37314930  1
  Mn  Mn117  1  0.60797545  0.41729741  0.37200022  1
  Mn  Mn118  1  0.60727362  0.75029515  0.12252377  1
  Mn  Mn119  1  0.64353572  0.58326673  0.99820436  1
  Mn  Mn120  1  0.35761023  0.41642254  0.25199935  1
  Mn  Mn121  1  0.64387476  0.58322268  0.74819978  1
  Mn  Mn122  1  0.39122035  0.58315021  0.87710200  1
  Mn  Mn123  1  0.10668213  0.41650257  0.62258148  1
  Mn  Mn124  1  0.64346839  0.25049153  0.99788768  1
  Mn  Mn125  1  0.10714124  0.74994196  0.87192434  1
  Mn  Mn126  1  0.39171169  0.58223761  0.62818249  1
  Mn  Mn127  1  0.14167143  0.58338469  0.49747425  1
  Mn  Mn128  1  0.60797363  0.74991835  0.62287659  1
  Mn  Mn129  1  0.35707631  0.08307524  0.75236741  1
  Mn  Mn130  1  0.89277817  0.24989127  0.12746323  1
  Mn  Mn131  1  0.10781731  0.08335893  0.12274884  1
  Mn  Mn132  1  0.89232117  0.91742303  0.87738431  1
  Mn  Mn133  1  0.14235420  0.91616365  0.49735707  1
  Mn  Mn134  1  0.39156001  0.25016289  0.12625392  1
  Mn  Mn135  1  0.64275495  0.25066620  0.24820440  1
  Mn  Mn136  1  0.85799520  0.08259973  0.50265077  1
  Mn  Mn137  1  0.35625689  0.41634715  0.00170991  1
  Mn  Mn138  1  0.60862263  0.41649967  0.12275303  1
  Mn  Mn139  1  0.39115410  0.91692419  0.12694487  1
  Mn  Mn140  1  0.60926092  0.41657633  0.87288370  1
  Mn  Mn141  1  0.60875461  0.41638757  0.62334579  1
  Mn  Mn142  1  0.14228274  0.24958811  0.24847010  1
  Mn  Mn143  1  0.35643679  0.74968707  0.00218487  1
  Fe  Fe144  1  0.89298130  0.24941957  0.37706382  1
  Fe  Fe145  1  0.35741008  0.08285784  0.25164419  1
  Fe  Fe146  1  0.14283582  0.91600573  0.74825144  1
  Fe  Fe147  1  0.89221008  0.58310185  0.62761398  1
  Fe  Fe148  1  0.10713281  0.08374609  0.62345659  1
  Fe  Fe149  1  0.85834935  0.41619768  0.25151855  1
  Fe  Fe150  1  0.60840283  0.08298612  0.87354597  1
  Fe  Fe151  1  0.35673269  0.74987585  0.75162310  1
  Fe  Fe152  1  0.10732413  0.08343153  0.37277300  1
  Fe  Fe153  1  0.64310855  0.58298719  0.24782712  1
  Fe  Fe154  1  0.14127260  0.24989281  0.99778411  1
  Fe  Fe155  1  0.14157586  0.58410178  0.74808557  1
  Fe  Fe156  1  0.85790545  0.08264237  0.00170260  1
  Fe  Fe157  1  0.39314105  0.25000497  0.62699550  1
  Fe  Fe158  1  0.10743939  0.74946826  0.12369571  1
  Fe  Fe159  1  0.89285635  0.24950380  0.62673604  1
  Fe  Fe160  1  0.39248429  0.91749557  0.87582494  1
  Fe  Fe161  1  0.14236690  0.25050556  0.49816815  1
  Fe  Fe162  1  0.35797414  0.74968179  0.50165263  1
  Fe  Fe163  1  0.10598853  0.41646523  0.87295077  1
  Fe  Fe164  1  0.60758038  0.08328010  0.12401329  1
  Fe  Fe165  1  0.85740929  0.75050156  0.75162659  1
  Fe  Fe166  1  0.39324405  0.58306439  0.37644959  1
  Fe  Fe167  1  0.64312876  0.25018650  0.49816643  1
  Fe  Fe168  1  0.85705335  0.75082978  0.50117609  1
  Fe  Fe169  1  0.60641528  0.74969497  0.37344853  1
  Fe  Fe170  1  0.89201243  0.58345863  0.37655331  1
  Fe  Fe171  1  0.64226173  0.91618431  0.74898080  1
  Fe  Fe172  1  0.64388821  0.25023696  0.74824229  1
  Fe  Fe173  1  0.89373763  0.58391297  0.12655532  1
  Fe  Fe174  1  0.14188343  0.91711520  0.99769678  1
  Fe  Fe175  1  0.89343796  0.58286075  0.87703345  1
  Fe  Fe176  1  0.10697309  0.08384324  0.87351449  1
  Fe  Fe177  1  0.85823318  0.41612533  0.75186133  1
  Fe  Fe178  1  0.14148734  0.58319626  0.99855485  1
  Fe  Fe179  1  0.35708861  0.75068378  0.25158420  1
  Fe  Fe180  1  0.39180791  0.58298004  0.12673055  1
  Fe  Fe181  1  0.39186320  0.91634154  0.37629095  1
  Fe  Fe182  1  0.85762177  0.08361610  0.25206695  1
  Fe  Fe183  1  0.89331852  0.24956351  0.87636250  1
  Fe  Fe184  1  0.85855590  0.75057444  0.00272613  1
  Fe  Fe185  1  0.60739348  0.08385997  0.62320406  1
  Fe  Fe186  1  0.14322313  0.91657015  0.24878617  1
  Fe  Fe187  1  0.85914152  0.41661472  0.00207244  1
  Fe  Fe188  1  0.10686190  0.41743303  0.12335974  1
  Fe  Fe189  1  0.14149672  0.25010956  0.74727404  1
  Fe  Fe190  1  0.39236439  0.25033643  0.37773065  1
  Fe  Fe191  1  0.89371405  0.91623418  0.12674620  1
  P  P192  1  0.05401304  0.25062820  0.10975141  1
  P  P193  1  0.05306825  0.24931680  0.36100786  1
  P  P194  1  0.05356715  0.24946039  0.61036271  1
  P  P195  1  0.05385741  0.24984581  0.86079233  1
  P  P196  1  0.05273357  0.58370712  0.10962657  1
  P  P197  1  0.05124791  0.58369295  0.35999502  1
  P  P198  1  0.05244918  0.58354702  0.61118684  1
  P  P199  1  0.05348979  0.58274452  0.86052555  1
  P  P200  1  0.05464737  0.91583827  0.11082076  1
  P  P201  1  0.05428701  0.91720620  0.35914111  1
  P  P202  1  0.05463814  0.91721636  0.61135817  1
  P  P203  1  0.05489807  0.91757281  0.86051277  1
  P  P204  1  0.55371316  0.24898312  0.11013875  1
  P  P205  1  0.55308735  0.25012423  0.36111877  1
  P  P206  1  0.55490320  0.24953686  0.61060074  1
  P  P207  1  0.55495839  0.24938667  0.85950908  1
  P  P208  1  0.55317220  0.58339381  0.11074903  1
  P  P209  1  0.55318132  0.58435643  0.35935182  1
  P  P210  1  0.55359822  0.58325361  0.61011470  1
  P  P211  1  0.55353860  0.58357008  0.85996856  1
  P  P212  1  0.55278676  0.91752830  0.10994765  1
  P  P213  1  0.55139802  0.91549530  0.35998699  1
  P  P214  1  0.55470056  0.91722795  0.61115269  1
  P  P215  1  0.55308142  0.91694023  0.85960444  1
  P  P216  1  0.44687334  0.08365281  0.14031912  1
  P  P217  1  0.44446964  0.08307295  0.38910507  1
  P  P218  1  0.44764105  0.08490399  0.64017327  1
  P  P219  1  0.44811607  0.08266198  0.88938191  1
  P  P220  1  0.44653368  0.41700451  0.13964413  1
  P  P221  1  0.44666226  0.41684781  0.39003438  1
  P  P222  1  0.44684411  0.41526841  0.64071217  1
  P  P223  1  0.44690197  0.41629043  0.89034778  1
  P  P224  1  0.44504855  0.74939214  0.14020841  1
  P  P225  1  0.44550957  0.74985239  0.38905826  1
  P  P226  1  0.44471729  0.74988594  0.63996767  1
  P  P227  1  0.44472092  0.75111586  0.88867322  1
  P  P228  1  0.94518117  0.08219490  0.13942369  1
  P  P229  1  0.94692100  0.08366903  0.38901335  1
  P  P230  1  0.94805950  0.08409441  0.64033489  1
  P  P231  1  0.94739662  0.08397973  0.89044960  1
  P  P232  1  0.94656027  0.41745885  0.13911337  1
  P  P233  1  0.94494954  0.41649123  0.38860662  1
  P  P234  1  0.94567013  0.41597322  0.64065057  1
  P  P235  1  0.94586180  0.41606226  0.88888245  1
  P  P236  1  0.94704705  0.75032158  0.13863609  1
  P  P237  1  0.94637726  0.74962863  0.39082522  1
  P  P238  1  0.94449429  0.75002567  0.63984169  1
  P  P239  1  0.94463962  0.74992964  0.88930011  1
  P  P240  1  0.19671660  0.08248586  0.23659749  1
  P  P241  1  0.19406515  0.08460846  0.48578330  1
  P  P242  1  0.19407584  0.08321747  0.73558064  1
  P  P243  1  0.19537000  0.08363205  0.98418100  1
  P  P244  1  0.19555401  0.41684369  0.23454331  1
  P  P245  1  0.19622138  0.41592288  0.48497541  1
  P  P246  1  0.19395660  0.41709686  0.73623552  1
  P  P247  1  0.19317224  0.41686152  0.98560968  1
  P  P248  1  0.19722751  0.75100033  0.23471169  1
  P  P249  1  0.19822193  0.74961239  0.48467044  1
  P  P250  1  0.19725567  0.75003274  0.73501284  1
  P  P251  1  0.19393229  0.74966026  0.98649412  1
  P  P252  1  0.69753380  0.08394202  0.23450953  1
  P  P253  1  0.69521761  0.08418715  0.48600529  1
  P  P254  1  0.69470115  0.08318685  0.73598926  1
  P  P255  1  0.69672123  0.08305507  0.98596089  1
  P  P256  1  0.69891329  0.41744327  0.23491484  1
  P  P257  1  0.69703901  0.41563398  0.48482976  1
  P  P258  1  0.69937328  0.41599693  0.73518438  1
  P  P259  1  0.69971583  0.41710653  0.98498254  1
  P  P260  1  0.69520297  0.74900185  0.23617874  1
  P  P261  1  0.69725968  0.74963873  0.48370325  1
  P  P262  1  0.69822745  0.75042936  0.73525854  1
  P  P263  1  0.69897061  0.74959674  0.98552494  1
  P  P264  1  0.30065913  0.24987324  0.01439870  1
  P  P265  1  0.30397461  0.24912860  0.26572145  1
  P  P266  1  0.30357374  0.25008544  0.51543759  1
  P  P267  1  0.30230533  0.24988297  0.76386340  1
  P  P268  1  0.30158723  0.58285425  0.01564051  1
  P  P269  1  0.30499801  0.58406695  0.26420802  1
  P  P270  1  0.30464692  0.58364397  0.51389111  1
  P  P271  1  0.30084199  0.58392277  0.76544496  1
  P  P272  1  0.30252600  0.91741189  0.01323811  1
  P  P273  1  0.30266864  0.91668777  0.26521330  1
  P  P274  1  0.30482522  0.91615603  0.51404177  1
  P  P275  1  0.30228877  0.91631187  0.76551100  1
  P  P276  1  0.80609198  0.24957690  0.01333286  1
  P  P277  1  0.80473523  0.24970902  0.26549485  1
  P  P278  1  0.80442561  0.24924448  0.51488842  1
  P  P279  1  0.80485054  0.24972580  0.76437313  1
  P  P280  1  0.80673830  0.58358099  0.01451915  1
  P  P281  1  0.80487899  0.58261977  0.26401774  1
  P  P282  1  0.80555806  0.58458906  0.51420351  1
  P  P283  1  0.80631712  0.58317690  0.76444303  1
  P  P284  1  0.80470783  0.91672430  0.01607124  1
  P  P285  1  0.80474310  0.91767794  0.26383282  1
  P  P286  1  0.80313775  0.91622897  0.51485931  1
  P  P287  1  0.80183379  0.91648235  0.76527625  1
  O  O288  1  0.05680472  0.24966421  0.18655966  1
  O  O289  1  0.05757503  0.24996453  0.43768013  1
  O  O290  1  0.05796715  0.25012056  0.68717191  1
  O  O291  1  0.05773565  0.24976416  0.93754053  1
  O  O292  1  0.05601269  0.58385767  0.18638164  1
  O  O293  1  0.05493161  0.58376839  0.43674219  1
  O  O294  1  0.05764454  0.58411010  0.68786485  1
  O  O295  1  0.05792046  0.58366282  0.93719929  1
  O  O296  1  0.05943005  0.91662343  0.18750343  1
  O  O297  1  0.05689029  0.91635215  0.43600858  1
  O  O298  1  0.05885141  0.91595771  0.68812240  1
  O  O299  1  0.05849575  0.91665679  0.93736251  1
  O  O300  1  0.55660016  0.24988141  0.18693442  1
  O  O301  1  0.55841599  0.25034465  0.43773646  1
  O  O302  1  0.56000468  0.25057834  0.68729038  1
  O  O303  1  0.55817123  0.25028465  0.93632974  1
  O  O304  1  0.55860704  0.58304514  0.18739400  1
  O  O305  1  0.55708338  0.58367168  0.43607982  1
  O  O306  1  0.55764329  0.58341240  0.68686343  1
  O  O307  1  0.55713267  0.58368193  0.93677994  1
  O  O308  1  0.55586381  0.91660208  0.18673192  1
  O  O309  1  0.55514673  0.91612341  0.43673203  1
  O  O310  1  0.55901259  0.91601273  0.68789903  1
  O  O311  1  0.55684337  0.91606826  0.93635402  1
  O  O312  1  0.44318705  0.08357596  0.06354843  1
  O  O313  1  0.44062802  0.08295108  0.31231020  1
  O  O314  1  0.44342870  0.08419970  0.56348571  1
  O  O315  1  0.44393627  0.08341870  0.81273103  1
  O  O316  1  0.44294809  0.41655535  0.06289493  1
  O  O317  1  0.44360267  0.41652604  0.31328048  1
  O  O318  1  0.44366091  0.41615165  0.56393725  1
  O  O319  1  0.44318611  0.41632192  0.81355531  1
  O  O320  1  0.44189868  0.75012132  0.06335967  1
  O  O321  1  0.44119268  0.75027603  0.31233029  1
  O  O322  1  0.44073689  0.74971166  0.56312360  1
  O  O323  1  0.44030453  0.75008332  0.81189207  1
  O  O324  1  0.94141294  0.08279194  0.06265475  1
  O  O325  1  0.94212653  0.08326246  0.31234066  1
  O  O326  1  0.94437244  0.08318836  0.56362863  1
  O  O327  1  0.94367489  0.08312809  0.81373788  1
  O  O328  1  0.94258860  0.41655904  0.06232837  1
  O  O329  1  0.94184028  0.41644384  0.31175307  1
  O  O330  1  0.94320282  0.41593737  0.56377694  1
  O  O331  1  0.94166413  0.41595394  0.81215798  1
  O  O332  1  0.94303976  0.75070105  0.06191600  1
  O  O333  1  0.94393011  0.75057361  0.31391285  1
  O  O334  1  0.94060043  0.75095108  0.56309580  1
  O  O335  1  0.94050884  0.75108635  0.81251087  1
  O  O336  1  0.19313286  0.08353109  0.06107898  1
  O  O337  1  0.19204252  0.08344240  0.31328108  1
  O  O338  1  0.19011744  0.08403282  0.56260358  1
  O  O339  1  0.19026237  0.08376391  0.81236244  1
  O  O340  1  0.18972597  0.41707143  0.06246769  1
  O  O341  1  0.19260644  0.41694977  0.31136462  1
  O  O342  1  0.19280339  0.41645944  0.56177600  1
  O  O343  1  0.18975411  0.41682998  0.81303587  1
  O  O344  1  0.19042850  0.74957907  0.06328212  1
  O  O345  1  0.19385856  0.74982974  0.31142894  1
  O  O346  1  0.19371232  0.74963978  0.56133715  1
  O  O347  1  0.19348440  0.74989221  0.81177691  1
  O  O348  1  0.69184229  0.08328771  0.06260130  1
  O  O349  1  0.69307180  0.08353381  0.31127199  1
  O  O350  1  0.69109815  0.08364658  0.56278749  1
  O  O351  1  0.69146821  0.08305301  0.81288868  1
  O  O352  1  0.69529379  0.41701310  0.06168402  1
  O  O353  1  0.69478539  0.41704817  0.31163262  1
  O  O354  1  0.69426042  0.41599313  0.56163096  1
  O  O355  1  0.69591113  0.41667523  0.81189424  1
  O  O356  1  0.69437488  0.74951512  0.06221025  1
  O  O357  1  0.69045119  0.74979149  0.31286759  1
  O  O358  1  0.69351856  0.74958330  0.56048066  1
  O  O359  1  0.69472771  0.74990988  0.81197904  1
  O  O360  1  0.30640679  0.24990281  0.18886773  1
  O  O361  1  0.30879539  0.25015336  0.43870576  1
  O  O362  1  0.30804925  0.24966150  0.68729131  1
  O  O363  1  0.30490136  0.24990639  0.93770781  1
  O  O364  1  0.30849984  0.58283361  0.18739945  1
  O  O365  1  0.30920128  0.58292483  0.43713611  1
  O  O366  1  0.30498254  0.58293240  0.68872608  1
  O  O367  1  0.30541728  0.58292644  0.93889687  1
  O  O368  1  0.30544015  0.91708915  0.18839876  1
  O  O369  1  0.30883037  0.91683185  0.43727310  1
  O  O370  1  0.30601676  0.91756573  0.68873296  1
  O  O371  1  0.30779541  0.91756982  0.93665812  1
  O  O372  1  0.80744708  0.24972513  0.18862518  1
  O  O373  1  0.80942382  0.24898589  0.43819557  1
  O  O374  1  0.80926575  0.24885751  0.68763402  1
  O  O375  1  0.80969665  0.24937890  0.93654240  1
  O  O376  1  0.81002334  0.58358841  0.18730890  1
  O  O377  1  0.80885753  0.58376509  0.43735575  1
  O  O378  1  0.80922365  0.58293911  0.68749361  1
  O  O379  1  0.81047244  0.58341209  0.93766073  1
  O  O380  1  0.80934846  0.91663261  0.18715396  1
  O  O381  1  0.80662486  0.91743609  0.43810048  1
  O  O382  1  0.80552516  0.91742436  0.68857635  1
  O  O383  1  0.80705424  0.91704760  0.93922014  1
  O  O384  1  0.23056714  0.24969530  0.03877265  1
  O  O385  1  0.23425595  0.24969443  0.29104014  1
  O  O386  1  0.23304625  0.25002883  0.53852032  1
  O  O387  1  0.23159045  0.24998747  0.78654002  1
  O  O388  1  0.23135871  0.58328277  0.03972430  1
  O  O389  1  0.23496892  0.58379390  0.28874892  1
  O  O390  1  0.23458581  0.58334660  0.53808403  1
  O  O391  1  0.23073415  0.58390174  0.78989102  1
  O  O392  1  0.23208820  0.91711961  0.03675367  1
  O  O393  1  0.23281502  0.91639046  0.29059105  1
  O  O394  1  0.23478311  0.91656983  0.53821638  1
  O  O395  1  0.23208933  0.91641297  0.78969429  1
  O  O396  1  0.73627215  0.24981334  0.03827151  1
  O  O397  1  0.73506978  0.24995946  0.29086133  1
  O  O398  1  0.73406374  0.24954000  0.53835136  1
  O  O399  1  0.73449361  0.24945972  0.78816672  1
  O  O400  1  0.73679539  0.58329060  0.03914787  1
  O  O401  1  0.73445383  0.58340180  0.28751403  1
  O  O402  1  0.73569455  0.58301558  0.53899278  1
  O  O403  1  0.73653757  0.58369897  0.78958397  1
  O  O404  1  0.73511880  0.91656286  0.04169570  1
  O  O405  1  0.73466190  0.91743860  0.28798853  1
  O  O406  1  0.73339949  0.91589901  0.53968484  1
  O  O407  1  0.73194800  0.91669596  0.79028083  1
  O  O408  1  0.26692542  0.08283143  0.21240097  1
  O  O409  1  0.26423387  0.08351061  0.46207156  1
  O  O410  1  0.26410688  0.08313437  0.71104069  1
  O  O411  1  0.26483895  0.08371843  0.95822640  1
  O  O412  1  0.26527264  0.41650376  0.20954631  1
  O  O413  1  0.26589112  0.41625500  0.45996451  1
  O  O414  1  0.26391248  0.41670687  0.71176240  1
  O  O415  1  0.26306732  0.41669572  0.96075116  1
  O  O416  1  0.26723499  0.75066750  0.20993712  1
  O  O417  1  0.26834303  0.74980463  0.46056219  1
  O  O418  1  0.26726763  0.75020606  0.71030679  1
  O  O419  1  0.26386252  0.74972351  0.96189266  1
  O  O420  1  0.76782543  0.08401160  0.21080026  1
  O  O421  1  0.76524588  0.08367927  0.46180413  1
  O  O422  1  0.76466763  0.08317654  0.71121707  1
  O  O423  1  0.76721290  0.08289519  0.96240657  1
  O  O424  1  0.76906887  0.41652519  0.21056514  1
  O  O425  1  0.76678083  0.41670659  0.45980944  1
  O  O426  1  0.76936265  0.41583510  0.71030278  1
  O  O427  1  0.76993967  0.41697792  0.96103868  1
  O  O428  1  0.76551994  0.74928083  0.21261401  1
  O  O429  1  0.76735661  0.75027132  0.45927037  1
  O  O430  1  0.76826459  0.74985069  0.71051733  1
  O  O431  1  0.76921732  0.75025972  0.96174373  1
  O  O432  1  0.01532461  0.08344083  0.16351183  1
  O  O433  1  0.01721160  0.08314530  0.41285010  1
  O  O434  1  0.01803074  0.08407260  0.66501134  1
  O  O435  1  0.01751821  0.08350328  0.91486612  1
  O  O436  1  0.01683809  0.41702308  0.16319132  1
  O  O437  1  0.01458671  0.41664089  0.41408764  1
  O  O438  1  0.01525138  0.41638373  0.66606349  1
  O  O439  1  0.01627933  0.41630361  0.91260742  1
  O  O440  1  0.01723301  0.74980689  0.16306782  1
  O  O441  1  0.01587139  0.75014746  0.41662313  1
  O  O442  1  0.01451102  0.75012556  0.66430180  1
  O  O443  1  0.01484820  0.75029100  0.91299548  1
  O  O444  1  0.51687368  0.08338395  0.16517274  1
  O  O445  1  0.51444468  0.08340957  0.41364314  1
  O  O446  1  0.51779766  0.08427906  0.66421578  1
  O  O447  1  0.51830955  0.08305644  0.91362687  1
  O  O448  1  0.51626312  0.41634826  0.16484025  1
  O  O449  1  0.51633783  0.41707150  0.41540487  1
  O  O450  1  0.51658582  0.41581357  0.66570339  1
  O  O451  1  0.51670853  0.41661853  0.91518082  1
  O  O452  1  0.51483384  0.74984229  0.16504664  1
  O  O453  1  0.51581431  0.74973018  0.41340127  1
  O  O454  1  0.51486901  0.75010577  0.66382713  1
  O  O455  1  0.51473158  0.75040852  0.91308970  1
  O  O456  1  0.48416453  0.24949083  0.08443422  1
  O  O457  1  0.48259162  0.24976575  0.33789721  1
  O  O458  1  0.48445643  0.24990194  0.58708539  1
  O  O459  1  0.48510685  0.24935781  0.83466623  1
  O  O460  1  0.48267363  0.58368276  0.08739560  1
  O  O461  1  0.48289405  0.58346877  0.33538191  1
  O  O462  1  0.48371162  0.58325269  0.58569973  1
  O  O463  1  0.48371403  0.58345355  0.83513277  1
  O  O464  1  0.48312822  0.91726579  0.08470437  1
  O  O465  1  0.48132600  0.91593487  0.33546168  1
  O  O466  1  0.48461949  0.91707473  0.58709019  1
  O  O467  1  0.48306328  0.91719280  0.83478902  1
  O  O468  1  0.98425050  0.25010905  0.08477541  1
  O  O469  1  0.98289644  0.24989530  0.33672233  1
  O  O470  1  0.98320173  0.24983690  0.58664142  1
  O  O471  1  0.98350134  0.24991341  0.83673331  1
  O  O472  1  0.98270747  0.58365081  0.08477478  1
  O  O473  1  0.98132828  0.58351646  0.33516161  1
  O  O474  1  0.98191042  0.58313097  0.58815531  1
  O  O475  1  0.98297676  0.58305662  0.83716370  1
  O  O476  1  0.98425757  0.91650114  0.08709746  1
  O  O477  1  0.98467766  0.91671413  0.33381440  1
  O  O478  1  0.98466571  0.91749635  0.58700768  1
  O  O479  1  0.98486871  0.91732104  0.83614645  1
  O  O480  1  0.08775158  0.31586107  0.07752505  1
  O  O481  1  0.08672788  0.31420798  0.32769431  1
  O  O482  1  0.08708403  0.31437835  0.57681790  1
  O  O483  1  0.08727099  0.31489033  0.82749084  1
  O  O484  1  0.08671183  0.64865718  0.07684304  1
  O  O485  1  0.08510704  0.64880259  0.32729199  1
  O  O486  1  0.08536504  0.64852717  0.57732443  1
  O  O487  1  0.08670699  0.64769699  0.82658509  1
  O  O488  1  0.08823926  0.98082849  0.07727512  1
  O  O489  1  0.08847420  0.98242077  0.32705947  1
  O  O490  1  0.08839562  0.98247514  0.57898316  1
  O  O491  1  0.08860171  0.98278704  0.82821476  1
  O  O492  1  0.58840636  0.31380759  0.07757576  1
  O  O493  1  0.58609522  0.31521008  0.32736421  1
  O  O494  1  0.58862400  0.31428751  0.57682267  1
  O  O495  1  0.58924713  0.31433041  0.82662088  1
  O  O496  1  0.58641954  0.64848398  0.07727903  1
  O  O497  1  0.58642143  0.64969034  0.32657889  1
  O  O498  1  0.58739826  0.64830512  0.57720615  1
  O  O499  1  0.58749827  0.64870695  0.82743892  1
  O  O500  1  0.58697987  0.98284981  0.07822567  1
  O  O501  1  0.58538432  0.98056007  0.32716660  1
  O  O502  1  0.58799364  0.98270693  0.57859794  1
  O  O503  1  0.58753558  0.98190990  0.82742642  1
  O  O504  1  0.41247648  0.01869962  0.17295756  1
  O  O505  1  0.41118588  0.01772223  0.42197394  1
  O  O506  1  0.41377963  0.01994704  0.67327527  1
  O  O507  1  0.41449279  0.01740427  0.92200551  1
  O  O508  1  0.41213561  0.35200976  0.17209115  1
  O  O509  1  0.41261294  0.35175543  0.42268927  1
  O  O510  1  0.41293994  0.34989820  0.67275536  1
  O  O511  1  0.41298886  0.35100323  0.92272154  1
  O  O512  1  0.41095664  0.68432219  0.17248440  1
  O  O513  1  0.41210867  0.68447046  0.42195627  1
  O  O514  1  0.41100884  0.68495504  0.67323845  1
  O  O515  1  0.41064688  0.68636138  0.92201273  1
  O  O516  1  0.91227227  0.01685231  0.17247958  1
  O  O517  1  0.91352254  0.01868193  0.42260667  1
  O  O518  1  0.91428583  0.01914592  0.67356608  1
  O  O519  1  0.91326358  0.01914650  0.92354617  1
  O  O520  1  0.91280759  0.35263361  0.17260886  1
  O  O521  1  0.91117649  0.35129834  0.42130954  1
  O  O522  1  0.91171299  0.35065853  0.67290519  1
  O  O523  1  0.91274485  0.35099390  0.92233743  1
  O  O524  1  0.91328504  0.68522600  0.17144578  1
  O  O525  1  0.91196986  0.68437648  0.42236333  1
  O  O526  1  0.91078492  0.68480064  0.67245201  1
  O  O527  1  0.91150881  0.68454886  0.92204147  1
  O  O528  1  0.16341533  0.01725913  0.20356098  1
  O  O529  1  0.15996462  0.01992816  0.45245614  1
  O  O530  1  0.16042369  0.01791414  0.70297313  1
  O  O531  1  0.16075759  0.01859194  0.95215365  1
  O  O532  1  0.16101851  0.35196428  0.20227939  1
  O  O533  1  0.16228810  0.35054320  0.45285105  1
  O  O534  1  0.16015796  0.35199274  0.70326643  1
  O  O535  1  0.15921249  0.35179998  0.95276655  1
  O  O536  1  0.16282441  0.68617735  0.20175054  1
  O  O537  1  0.16459929  0.68462358  0.45154133  1
  O  O538  1  0.16335443  0.68496276  0.70221608  1
  O  O539  1  0.16039643  0.68445599  0.95355943  1
  O  O540  1  0.66367803  0.01899998  0.20139814  1
  O  O541  1  0.66144448  0.01923568  0.45270281  1
  O  O542  1  0.66068670  0.01820418  0.70327208  1
  O  O543  1  0.66326375  0.01796590  0.95269857  1
  O  O544  1  0.66494526  0.35240748  0.20215738  1
  O  O545  1  0.66363985  0.35020399  0.45240854  1
  O  O546  1  0.66536387  0.35083276  0.70288219  1
  O  O547  1  0.66606684  0.35202592  0.95209139  1
  O  O548  1  0.66221288  0.68365821  0.20302020  1
  O  O549  1  0.66364921  0.68438497  0.45101519  1
  O  O550  1  0.66433740  0.68549266  0.70222908  1
  O  O551  1  0.66577799  0.68454077  0.95221676  1
  O  O552  1  0.33424712  0.31493368  0.04739347  1
  O  O553  1  0.33850414  0.31402353  0.29834342  1
  O  O554  1  0.33699729  0.31498466  0.54894813  1
  O  O555  1  0.33519455  0.31485442  0.79771785  1
  O  O556  1  0.33584503  0.64768528  0.04834756  1
  O  O557  1  0.33861747  0.64953335  0.29642254  1
  O  O558  1  0.33812008  0.64891181  0.54659871  1
  O  O559  1  0.33466065  0.64911002  0.79781884  1
  O  O560  1  0.33551887  0.98250042  0.04684606  1
  O  O561  1  0.33687697  0.98150768  0.29801642  1
  O  O562  1  0.33821614  0.98119173  0.54759288  1
  O  O563  1  0.33613183  0.98128095  0.79875631  1
  O  O564  1  0.83989186  0.31473513  0.04612304  1
  O  O565  1  0.83924094  0.31474220  0.29757888  1
  O  O566  1  0.83804576  0.31429943  0.54802816  1
  O  O567  1  0.83844343  0.31484271  0.79730991  1
  O  O568  1  0.84030592  0.64883734  0.04748961  1
  O  O569  1  0.83865813  0.64739910  0.29770306  1
  O  O570  1  0.83853168  0.65025207  0.54664261  1
  O  O571  1  0.84066126  0.64811838  0.79685699  1
  O  O572  1  0.83920173  0.98181458  0.04807944  1
  O  O573  1  0.83808033  0.98299000  0.29672290  1
  O  O574  1  0.83685006  0.98122477  0.54820640  1
  O  O575  1  0.83584149  0.98146216  0.79826399  1
  O  O576  1  0.41272232  0.14862528  0.17293130  1
  O  O577  1  0.41072490  0.14820633  0.42203102  1
  O  O578  1  0.41414017  0.15005658  0.67298616  1
  O  O579  1  0.41426251  0.14760955  0.92256083  1
  O  O580  1  0.41268926  0.48225103  0.17205154  1
  O  O581  1  0.41256772  0.48219565  0.42208229  1
  O  O582  1  0.41244649  0.48016487  0.67343693  1
  O  O583  1  0.41247866  0.48129405  0.92263425  1
  O  O584  1  0.41065689  0.81436913  0.17284616  1
  O  O585  1  0.41189846  0.81475301  0.42254497  1
  O  O586  1  0.41086342  0.81490810  0.67288517  1
  O  O587  1  0.41154235  0.81679701  0.92110685  1
  O  O588  1  0.91101396  0.14693702  0.17264294  1
  O  O589  1  0.91377670  0.14882880  0.42235499  1
  O  O590  1  0.91415624  0.14918263  0.67271761  1
  O  O591  1  0.91366904  0.14913758  0.92294018  1
  O  O592  1  0.91318012  0.48269614  0.17183957  1
  O  O593  1  0.91102327  0.48169241  0.42105250  1
  O  O594  1  0.91106252  0.48087425  0.67284600  1
  O  O595  1  0.91259714  0.48118597  0.92218242  1
  O  O596  1  0.91375111  0.81529028  0.17215683  1
  O  O597  1  0.91164068  0.81445989  0.42326466  1
  O  O598  1  0.91068702  0.81492357  0.67334113  1
  O  O599  1  0.91106705  0.81477408  0.92291304  1
  O  O600  1  0.08837234  0.18572537  0.07705060  1
  O  O601  1  0.08624993  0.18404092  0.32779831  1
  O  O602  1  0.08706558  0.18441402  0.57742410  1
  O  O603  1  0.08723649  0.18477109  0.82755795  1
  O  O604  1  0.08657509  0.51858128  0.07700505  1
  O  O605  1  0.08531795  0.51879518  0.32731223  1
  O  O606  1  0.08553757  0.51845603  0.57776002  1
  O  O607  1  0.08654376  0.51757834  0.82741647  1
  O  O608  1  0.08770007  0.85066446  0.07758561  1
  O  O609  1  0.08890205  0.85232237  0.32670122  1
  O  O610  1  0.08798339  0.85221413  0.57770079  1
  O  O611  1  0.08870907  0.85267145  0.82707963  1
  O  O612  1  0.58772261  0.18350558  0.07835481  1
  O  O613  1  0.58640217  0.18513150  0.32767607  1
  O  O614  1  0.58802329  0.18420810  0.57745627  1
  O  O615  1  0.58923010  0.18422790  0.82754189  1
  O  O616  1  0.58644022  0.51830396  0.07726172  1
  O  O617  1  0.58752288  0.51967279  0.32607871  1
  O  O618  1  0.58745431  0.51804799  0.57755402  1
  O  O619  1  0.58779028  0.51846935  0.82760452  1
  O  O620  1  0.58694981  0.85253411  0.07714760  1
  O  O621  1  0.58522311  0.85046867  0.32744112  1
  O  O622  1  0.58810232  0.85224290  0.57758984  1
  O  O623  1  0.58694557  0.85189263  0.82647062  1
  O  O624  1  0.33459032  0.18485944  0.04711943  1
  O  O625  1  0.33789922  0.18386504  0.29783733  1
  O  O626  1  0.33684246  0.18501630  0.54895842  1
  O  O627  1  0.33509590  0.18471319  0.79767290  1
  O  O628  1  0.33525895  0.51772616  0.04840060  1
  O  O629  1  0.33901835  0.51936571  0.29765367  1
  O  O630  1  0.33805304  0.51865514  0.54753887  1
  O  O631  1  0.33445094  0.51887244  0.79863584  1
  O  O632  1  0.33573056  0.85239563  0.04679760  1
  O  O633  1  0.33698333  0.85143872  0.29730577  1
  O  O634  1  0.33832050  0.85093941  0.54658635  1
  O  O635  1  0.33616055  0.85119075  0.79784458  1
  O  O636  1  0.83959825  0.18438456  0.04622818  1
  O  O637  1  0.83889169  0.18453277  0.29793060  1
  O  O638  1  0.83775860  0.18437979  0.54869398  1
  O  O639  1  0.83842230  0.18486301  0.79802940  1
  O  O640  1  0.84081606  0.51855865  0.04725397  1
  O  O641  1  0.83787569  0.51731108  0.29711466  1
  O  O642  1  0.84040816  0.52012026  0.54727445  1
  O  O643  1  0.84003814  0.51790840  0.79712885  1
  O  O644  1  0.83926032  0.85165915  0.04824713  1
  O  O645  1  0.83825388  0.85261118  0.29716225  1
  O  O646  1  0.83739535  0.85102788  0.54673381  1
  O  O647  1  0.83599295  0.85145022  0.79753266  1
  O  O648  1  0.16300567  0.14728958  0.20305955  1
  O  O649  1  0.16111836  0.15005869  0.45272755  1
  O  O650  1  0.16025169  0.14823643  0.70239965  1
  O  O651  1  0.16071480  0.14863833  0.95206432  1
  O  O652  1  0.16136715  0.48198944  0.20217041  1
  O  O653  1  0.16199329  0.48090196  0.45234921  1
  O  O654  1  0.16066385  0.48248104  0.70336776  1
  O  O655  1  0.15932155  0.48204307  0.95284372  1
  O  O656  1  0.16324368  0.81619759  0.20246191  1
  O  O657  1  0.16455090  0.81471757  0.45183230  1
  O  O658  1  0.16346799  0.81523661  0.70243734  1
  O  O659  1  0.16031254  0.81473251  0.95352833  1
  O  O660  1  0.66388283  0.14903680  0.20168029  1
  O  O661  1  0.66188461  0.14950541  0.45316465  1
  O  O662  1  0.66105038  0.14848717  0.70325418  1
  O  O663  1  0.66341619  0.14794396  0.95224110  1
  O  O664  1  0.66553708  0.48271873  0.20207492  1
  O  O665  1  0.66264005  0.48057721  0.45241417  1
  O  O666  1  0.66567708  0.48107411  0.70225975  1
  O  O667  1  0.66618588  0.48215603  0.95200477  1
  O  O668  1  0.66195369  0.81411304  0.20269458  1
  O  O669  1  0.66277126  0.81437735  0.45090843  1
  O  O670  1  0.66458553  0.81569830  0.70275852  1
  O  O671  1  0.66500990  0.81461520  0.95272111  1
