# generated using pymatgen
data_Na2MnFe(PO4)2
_symmetry_space_group_name_H-M   'P 1'
_cell_length_a   21.08053180
_cell_length_b   18.93271551
_cell_length_c   20.04010777
_cell_angle_alpha   89.99981140
_cell_angle_beta   89.99993861
_cell_angle_gamma   89.99701004
_symmetry_Int_Tables_number   1
_chemical_formula_structural   Na2MnFe(PO4)2
_chemical_formula_sum   'Na96 Mn48 Fe48 P96 O384'
_cell_volume   7998.24169615
_cell_formula_units_Z   48
loop_
 _symmetry_equiv_pos_site_id
 _symmetry_equiv_pos_as_xyz
  1  'x, y, z'
loop_
 _atom_site_type_symbol
 _atom_site_label
 _atom_site_symmetry_multiplicity
 _atom_site_fract_x
 _atom_site_fract_y
 _atom_site_fract_z
 _atom_site_occupancy
  Na  Na0  1  0.00116112  -0.00041325  -0.00011970  1
  Na  Na1  1  0.00380797  0.00147020  0.24891191  1
  Na  Na2  1  0.00103221  0.00034745  0.50095978  1
  Na  Na3  1  -0.00049900  -0.00058530  0.75128056  1
  Na  Na4  1  0.00342128  0.33458146  0.00043645  1
  Na  Na5  1  0.00052466  0.33320464  0.25083893  1
  Na  Na6  1  -0.00191491  0.33208210  0.49955647  1
  Na  Na7  1  -0.00005582  0.33253853  0.74970713  1
  Na  Na8  1  -0.00124744  0.66609906  -0.00019024  1
  Na  Na9  1  0.00011588  0.66733896  0.24961529  1
  Na  Na10  1  0.00267759  0.66819806  0.50024038  1
  Na  Na11  1  0.00211985  0.66745883  0.74973032  1
  Na  Na12  1  0.49669722  -0.00031095  -0.00031607  1
  Na  Na13  1  0.49812471  0.00074647  0.24957612  1
  Na  Na14  1  0.49797974  0.00042332  0.49975397  1
  Na  Na15  1  0.49716071  -0.00025873  0.75006476  1
  Na  Na16  1  0.49910070  0.33339410  -0.00070903  1
  Na  Na17  1  0.50104614  0.33398764  0.24898395  1
  Na  Na18  1  0.49971202  0.33259968  0.50099569  1
  Na  Na19  1  0.49911345  0.33301151  0.75069825  1
  Na  Na20  1  0.49776403  0.66654347  -0.00029271  1
  Na  Na21  1  0.49940841  0.66642464  0.25006632  1
  Na  Na22  1  0.50111494  0.66662175  0.50058886  1
  Na  Na23  1  0.49929725  0.66679124  0.74990826  1
  Na  Na24  1  0.24983286  0.00074709  0.12529465  1
  Na  Na25  1  0.24891073  0.00040284  0.37539624  1
  Na  Na26  1  0.25044161  0.00103934  0.62537841  1
  Na  Na27  1  0.24846605  -0.00072117  0.87477388  1
  Na  Na28  1  0.24679621  0.33276526  0.12429572  1
  Na  Na29  1  0.24704349  0.33188202  0.37485502  1
  Na  Na30  1  0.25147089  0.33431270  0.62608903  1
  Na  Na31  1  0.24999615  0.33403608  0.87454556  1
  Na  Na32  1  0.25070822  0.66725393  0.12495683  1
  Na  Na33  1  0.24876742  0.66653125  0.37459876  1
  Na  Na34  1  0.24886571  0.66692724  0.62526508  1
  Na  Na35  1  0.25049703  0.66761152  0.87584960  1
  Na  Na36  1  0.75128956  0.00007332  0.12488903  1
  Na  Na37  1  0.74886737  -0.00066543  0.37480565  1
  Na  Na38  1  0.75220183  0.00079352  0.62518919  1
  Na  Na39  1  0.75320445  0.00075291  0.87431428  1
  Na  Na40  1  0.75223577  0.33352478  0.12561077  1
  Na  Na41  1  0.75231361  0.33353533  0.37531595  1
  Na  Na42  1  0.75169551  0.33338508  0.62450539  1
  Na  Na43  1  0.74911490  0.33196148  0.87449340  1
  Na  Na44  1  0.75297246  0.66750699  0.12361218  1
  Na  Na45  1  0.74940604  0.66600353  0.37413224  1
  Na  Na46  1  0.74785176  0.66604437  0.62592702  1
  Na  Na47  1  0.75025692  0.66663485  0.87540673  1
  Na  Na48  1  0.00231791  0.16597690  -0.00006167  1
  Na  Na49  1  0.00204745  0.16665466  0.24942733  1
  Na  Na50  1  0.00163362  0.16632567  0.50000169  1
  Na  Na51  1  0.00118814  0.16626372  0.75124074  1
  Na  Na52  1  -0.00012713  0.50032064  -0.00036835  1
  Na  Na53  1  -0.00082818  0.50017658  0.25071581  1
  Na  Na54  1  -0.00125089  0.50021798  0.50064511  1
  Na  Na55  1  0.00079598  0.49958200  0.74862313  1
  Na  Na56  1  0.00211619  0.83270320  0.00063074  1
  Na  Na57  1  0.00216090  0.83265417  0.24906109  1
  Na  Na58  1  0.00082755  0.83399690  0.50013354  1
  Na  Na59  1  0.00089641  0.83377301  0.75104638  1
  Na  Na60  1  0.49847807  0.16583430  -0.00018277  1
  Na  Na61  1  0.49873314  0.16590982  0.24925963  1
  Na  Na62  1  0.49866427  0.16636383  0.50038103  1
  Na  Na63  1  0.49777494  0.16658205  0.74979596  1
  Na  Na64  1  0.49700035  0.50075459  -0.00031237  1
  Na  Na65  1  0.49981497  0.50014125  0.24977399  1
  Na  Na66  1  0.50191473  0.49962599  0.50089085  1
  Na  Na67  1  0.49904305  0.50052324  0.75019541  1
  Na  Na68  1  0.49879552  0.83298840  -0.00077902  1
  Na  Na69  1  0.49879285  0.83375404  0.24943620  1
  Na  Na70  1  0.49817671  0.83405422  0.50016327  1
  Na  Na71  1  0.49881340  0.83310958  0.75062955  1
  Na  Na72  1  0.24776784  0.16692587  0.12514611  1
  Na  Na73  1  0.24920188  0.16613399  0.37581105  1
  Na  Na74  1  0.24993846  0.16598864  0.62588569  1
  Na  Na75  1  0.24916373  0.16629347  0.87427913  1
  Na  Na76  1  0.25115858  0.49967156  0.12429539  1
  Na  Na77  1  0.24964691  0.49983668  0.37417886  1
  Na  Na78  1  0.25075911  0.50000431  0.62568366  1
  Na  Na79  1  0.25107473  0.50002430  0.87605119  1
  Na  Na80  1  0.24716925  0.83383015  0.12529766  1
  Na  Na81  1  0.24745249  0.83398911  0.37461289  1
  Na  Na82  1  0.24961490  0.83273033  0.62532966  1
  Na  Na83  1  0.24861158  0.83302995  0.87476421  1
  Na  Na84  1  0.75100019  0.16593019  0.12604374  1
  Na  Na85  1  0.74995013  0.16640675  0.37482869  1
  Na  Na86  1  0.75089011  0.16678974  0.62385830  1
  Na  Na87  1  0.75092309  0.16633277  0.87448420  1
  Na  Na88  1  0.75276638  0.49984833  0.12478594  1
  Na  Na89  1  0.75062391  0.49986706  0.37374222  1
  Na  Na90  1  0.74828660  0.50023465  0.62556480  1
  Na  Na91  1  0.75049063  0.50016058  0.87571915  1
  Na  Na92  1  0.75258964  0.83292277  0.12352703  1
  Na  Na93  1  0.75129823  0.83298765  0.37539908  1
  Na  Na94  1  0.75159139  0.83309133  0.62656052  1
  Na  Na95  1  0.75105429  0.83390246  0.87401941  1
  Mn  Mn96  1  0.14232901  0.58346984  0.99737806  1
  Mn  Mn97  1  0.60803945  0.41685911  0.12248599  1
  Mn  Mn98  1  0.39165918  0.25040574  0.87754070  1
  Mn  Mn99  1  0.39285001  0.58283523  0.37726216  1
  Mn  Mn100  1  0.39208337  0.58344243  0.62764902  1
  Mn  Mn101  1  0.35672842  0.75066078  0.25234430  1
  Mn  Mn102  1  0.89407279  0.25035475  0.12699144  1
  Mn  Mn103  1  0.64192103  0.91605902  0.24727530  1
  Mn  Mn104  1  0.60722670  0.75107847  0.62338413  1
  Mn  Mn105  1  0.89319901  0.25015901  0.87770382  1
  Mn  Mn106  1  0.10794608  0.41601204  0.62234660  1
  Mn  Mn107  1  0.89221859  0.58354367  0.37797522  1
  Mn  Mn108  1  0.39148802  0.25068181  0.37705115  1
  Mn  Mn109  1  0.89333969  0.91756196  0.37688163  1
  Mn  Mn110  1  0.35829543  0.41604471  0.50182641  1
  Mn  Mn111  1  0.14184151  0.91741683  0.49811699  1
  Mn  Mn112  1  0.14255029  0.25047871  0.74711209  1
  Mn  Mn113  1  0.39112769  0.91664189  0.37708840  1
  Mn  Mn114  1  0.64283571  0.24984943  0.24792232  1
  Mn  Mn115  1  0.89210050  0.58380952  0.62771644  1
  Mn  Mn116  1  0.60775537  0.08263207  0.87274723  1
  Mn  Mn117  1  0.85783170  0.41647821  0.75256572  1
  Mn  Mn118  1  0.64259147  0.58373156  0.99782226  1
  Mn  Mn119  1  0.14170809  0.58288194  0.24704705  1
  Mn  Mn120  1  0.85922578  0.41621592  0.00188899  1
  Mn  Mn121  1  0.14189983  0.58247989  0.49778766  1
  Mn  Mn122  1  0.10708490  0.41685605  0.37310000  1
  Mn  Mn123  1  0.60772967  0.75032475  0.12230286  1
  Mn  Mn124  1  0.89391467  0.91655665  0.12721817  1
  Mn  Mn125  1  0.85865277  0.08334891  0.50195637  1
  Mn  Mn126  1  0.60702948  0.41707971  0.87317672  1
  Mn  Mn127  1  0.64248924  0.91690615  0.99791517  1
  Mn  Mn128  1  0.85903054  0.08293397  0.25254838  1
  Mn  Mn129  1  0.64275332  0.91759128  0.74779170  1
  Mn  Mn130  1  0.64320532  0.58375261  0.24685878  1
  Mn  Mn131  1  0.85842893  0.74933319  0.50257916  1
  Mn  Mn132  1  0.60680204  0.08283262  0.12243191  1
  Mn  Mn133  1  0.60693900  0.08286449  0.62339988  1
  Mn  Mn134  1  0.60843015  0.75066950  0.37227322  1
  Mn  Mn135  1  0.35731514  0.41556681  0.25254926  1
  Mn  Mn136  1  0.85839198  0.74987930  0.75277379  1
  Mn  Mn137  1  0.60751086  0.41599413  0.62332604  1
  Mn  Mn138  1  0.64247016  0.24926230  0.99824737  1
  Mn  Mn139  1  0.39077205  0.91595222  0.87738374  1
  Mn  Mn140  1  0.64188272  0.91647430  0.49845753  1
  Mn  Mn141  1  0.39053680  0.24996105  0.12738603  1
  Mn  Mn142  1  0.64226578  0.25014919  0.49757435  1
  Mn  Mn143  1  0.35709640  0.75015489  0.50206035  1
  Fe  Fe144  1  0.35710175  0.41741862  0.75230215  1
  Fe  Fe145  1  0.89347944  0.91728528  0.62670929  1
  Fe  Fe146  1  0.64208861  0.58285333  0.74955706  1
  Fe  Fe147  1  0.39174421  0.24964424  0.62703219  1
  Fe  Fe148  1  0.10739681  0.75045941  0.37286651  1
  Fe  Fe149  1  0.14290117  0.58371646  0.74917705  1
  Fe  Fe150  1  0.10726592  0.41749726  0.12340784  1
  Fe  Fe151  1  0.64281015  0.24958126  0.74823795  1
  Fe  Fe152  1  0.85684635  0.41699395  0.50162610  1
  Fe  Fe153  1  0.60634275  0.08366835  0.37327907  1
  Fe  Fe154  1  0.35653714  0.08363581  0.50181960  1
  Fe  Fe155  1  0.14238439  0.91613053  0.74810511  1
  Fe  Fe156  1  0.10821049  0.41762922  0.87296208  1
  Fe  Fe157  1  0.39088101  0.91594242  0.12669689  1
  Fe  Fe158  1  0.85853882  0.08393778  0.75155110  1
  Fe  Fe159  1  0.35558012  0.08320288  0.00137073  1
  Fe  Fe160  1  0.10760417  0.74936863  0.87357886  1
  Fe  Fe161  1  0.89426009  0.91611362  0.87706653  1
  Fe  Fe162  1  0.89374238  0.24915939  0.37657341  1
  Fe  Fe163  1  0.35618900  0.74983110  0.75195701  1
  Fe  Fe164  1  0.35619497  0.41645477  0.00223712  1
  Fe  Fe165  1  0.14253762  0.25032539  0.49916709  1
  Fe  Fe166  1  0.60853351  0.41577999  0.37298806  1
  Fe  Fe167  1  0.10827070  0.08338565  0.37334319  1
  Fe  Fe168  1  0.10761651  0.75046924  0.62371291  1
  Fe  Fe169  1  0.89316290  0.58365926  0.87565975  1
  Fe  Fe170  1  0.10741182  0.08292985  0.87308166  1
  Fe  Fe171  1  0.85861163  0.75027203  0.25162085  1
  Fe  Fe172  1  0.89305736  0.24893525  0.62656262  1
  Fe  Fe173  1  0.10701110  0.74914267  0.12264153  1
  Fe  Fe174  1  0.14177005  0.24994579  0.24838545  1
  Fe  Fe175  1  0.35583356  0.08302918  0.75179055  1
  Fe  Fe176  1  0.10843308  0.08342330  0.12216313  1
  Fe  Fe177  1  0.39111512  0.91672614  0.62726318  1
  Fe  Fe178  1  0.85840258  0.75078227  0.00091630  1
  Fe  Fe179  1  0.14250777  0.91717813  0.24798650  1
  Fe  Fe180  1  0.35663297  0.75052500  0.00217694  1
  Fe  Fe181  1  0.14286314  0.24999601  0.99770978  1
  Fe  Fe182  1  0.85856746  0.41665040  0.25203337  1
  Fe  Fe183  1  0.35553439  0.08371846  0.25161148  1
  Fe  Fe184  1  0.85873231  0.08328000  0.00161405  1
  Fe  Fe185  1  0.39215542  0.58375334  0.12683248  1
  Fe  Fe186  1  0.89351466  0.58315985  0.12624173  1
  Fe  Fe187  1  0.39179774  0.58385454  0.87628867  1
  Fe  Fe188  1  0.64276793  0.58316577  0.49831077  1
  Fe  Fe189  1  0.10717313  0.08322890  0.62396641  1
  Fe  Fe190  1  0.14309220  0.91693601  0.99814807  1
  Fe  Fe191  1  0.60676067  0.74996005  0.87351910  1
  P  P192  1  0.05625445  0.25045895  0.11052885  1
  P  P193  1  0.05447733  0.24932627  0.36097998  1
  P  P194  1  0.05299187  0.24896687  0.60972935  1
  P  P195  1  0.05567389  0.25018839  0.86129224  1
  P  P196  1  0.05242543  0.58309053  0.10978069  1
  P  P197  1  0.05311870  0.58388191  0.35994381  1
  P  P198  1  0.05468770  0.58396144  0.61139553  1
  P  P199  1  0.05309468  0.58351503  0.85945156  1
  P  P200  1  0.05635437  0.91660246  0.11033534  1
  P  P201  1  0.05464928  0.91724103  0.35928444  1
  P  P202  1  0.05393759  0.91694873  0.61206113  1
  P  P203  1  0.05522081  0.91636864  0.86129622  1
  P  P204  1  0.55236302  0.24966360  0.10959241  1
  P  P205  1  0.55312959  0.24961287  0.35983100  1
  P  P206  1  0.55283192  0.24926702  0.61140221  1
  P  P207  1  0.55373374  0.24941845  0.85932192  1
  P  P208  1  0.55197660  0.58361676  0.10955308  1
  P  P209  1  0.55556984  0.58227164  0.36076971  1
  P  P210  1  0.55523023  0.58340447  0.61109452  1
  P  P211  1  0.55212400  0.58435203  0.86007338  1
  P  P212  1  0.55091451  0.91673467  0.10933342  1
  P  P213  1  0.55266890  0.91798618  0.35972703  1
  P  P214  1  0.55094949  0.91711859  0.61036950  1
  P  P215  1  0.55281056  0.91594119  0.86001769  1
  P  P216  1  0.44282228  0.08223183  0.13916027  1
  P  P217  1  0.44464898  0.08386174  0.38935589  1
  P  P218  1  0.44342938  0.08327784  0.63945345  1
  P  P219  1  0.44379590  0.08308976  0.88953873  1
  P  P220  1  0.44480609  0.41730682  0.13885896  1
  P  P221  1  0.44882066  0.41637621  0.39022062  1
  P  P222  1  0.44555133  0.41578998  0.64101913  1
  P  P223  1  0.44389119  0.41780971  0.88956165  1
  P  P224  1  0.44458904  0.75022168  0.13874997  1
  P  P225  1  0.44676191  0.74983378  0.39015981  1
  P  P226  1  0.44503332  0.75080630  0.64093096  1
  P  P227  1  0.44482125  0.74918324  0.88933008  1
  P  P228  1  0.94823876  0.08345108  0.13858894  1
  P  P229  1  0.94923319  0.08387060  0.38983171  1
  P  P230  1  0.94779314  0.08364914  0.64067370  1
  P  P231  1  0.94702568  0.08262654  0.88947148  1
  P  P232  1  0.94792541  0.41719828  0.14047946  1
  P  P233  1  0.94478590  0.41571704  0.38987646  1
  P  P234  1  0.94532074  0.41555919  0.63867461  1
  P  P235  1  0.94888204  0.41729150  0.88940722  1
  P  P236  1  0.94664691  0.74945921  0.13880350  1
  P  P237  1  0.94749630  0.75070673  0.38913033  1
  P  P238  1  0.94824696  0.75090510  0.64031854  1
  P  P239  1  0.94808272  0.75007173  0.89004393  1
  P  P240  1  0.19502207  0.08353950  0.23576446  1
  P  P241  1  0.19553841  0.08442105  0.48640346  1
  P  P242  1  0.19518201  0.08230917  0.73586657  1
  P  P243  1  0.19564984  0.08311122  0.98537329  1
  P  P244  1  0.19553722  0.41596745  0.23418494  1
  P  P245  1  0.19695823  0.41557412  0.48503761  1
  P  P246  1  0.19668231  0.41824110  0.73644539  1
  P  P247  1  0.19578754  0.41664281  0.98558725  1
  P  P248  1  0.19412241  0.75048780  0.23520381  1
  P  P249  1  0.19451721  0.75025452  0.48538697  1
  P  P250  1  0.19529598  0.74970271  0.73630430  1
  P  P251  1  0.19574271  0.75045851  0.98584032  1
  P  P252  1  0.69584839  0.08300889  0.23576722  1
  P  P253  1  0.69605855  0.08314485  0.48442153  1
  P  P254  1  0.69831131  0.08412047  0.73475710  1
  P  P255  1  0.69861043  0.08281019  0.98477854  1
  P  P256  1  0.69778924  0.41640448  0.23561340  1
  P  P257  1  0.69720318  0.41701450  0.48459664  1
  P  P258  1  0.69627076  0.41609840  0.73556117  1
  P  P259  1  0.69748587  0.41658890  0.98494524  1
  P  P260  1  0.69880995  0.75013754  0.23382740  1
  P  P261  1  0.69697801  0.74961796  0.48534615  1
  P  P262  1  0.69539753  0.74957134  0.73684263  1
  P  P263  1  0.69782272  0.75051308  0.98404478  1
  P  P264  1  0.30137533  0.24985665  0.01454128  1
  P  P265  1  0.30090252  0.24913032  0.26502435  1
  P  P266  1  0.30234692  0.24927459  0.51580587  1
  P  P267  1  0.30432133  0.24997878  0.76390869  1
  P  P268  1  0.30491741  0.58385366  0.01415795  1
  P  P269  1  0.30404316  0.58333069  0.26404096  1
  P  P270  1  0.30308212  0.58319151  0.51512962  1
  P  P271  1  0.30255126  0.58402405  0.76573118  1
  P  P272  1  0.30193060  0.91641995  0.01520655  1
  P  P273  1  0.30208595  0.91762075  0.26383379  1
  P  P274  1  0.30313542  0.91752930  0.51565347  1
  P  P275  1  0.30246150  0.91634320  0.76384308  1
  P  P276  1  0.80428687  0.24884848  0.01533630  1
  P  P277  1  0.80538134  0.25026891  0.26570170  1
  P  P278  1  0.80562767  0.25033098  0.51402304  1
  P  P279  1  0.80417277  0.24896576  0.76373702  1
  P  P280  1  0.80642440  0.58433501  0.01385804  1
  P  P281  1  0.80601759  0.58376775  0.26324291  1
  P  P282  1  0.80213995  0.58262690  0.51531328  1
  P  P283  1  0.80256140  0.58323141  0.76585467  1
  P  P284  1  0.80602999  0.91681702  0.01332617  1
  P  P285  1  0.80411080  0.91574148  0.26486149  1
  P  P286  1  0.80446762  0.91666066  0.51600275  1
  P  P287  1  0.80661359  0.91783603  0.76447828  1
  O  O288  1  0.05899257  0.25012692  0.18742840  1
  O  O289  1  0.05875949  0.25000299  0.43766859  1
  O  O290  1  0.05684695  0.24996088  0.68649432  1
  O  O291  1  0.05960390  0.25019355  0.93813564  1
  O  O292  1  0.05564626  0.58327059  0.18640995  1
  O  O293  1  0.05613201  0.58302295  0.43675625  1
  O  O294  1  0.05900987  0.58311574  0.68811127  1
  O  O295  1  0.05639921  0.58337906  0.93624369  1
  O  O296  1  0.05974059  0.91699945  0.18713838  1
  O  O297  1  0.05670953  0.91746294  0.43623466  1
  O  O298  1  0.05816958  0.91679853  0.68875964  1
  O  O299  1  0.05968728  0.91656170  0.93804001  1
  O  O300  1  0.55635737  0.24952087  0.18635166  1
  O  O301  1  0.55579108  0.24958484  0.43667251  1
  O  O302  1  0.55818034  0.24920748  0.68802655  1
  O  O303  1  0.55692762  0.24915266  0.93613602  1
  O  O304  1  0.55652427  0.58360948  0.18627551  1
  O  O305  1  0.55954885  0.58291492  0.43762006  1
  O  O306  1  0.55936456  0.58320742  0.68789222  1
  O  O307  1  0.55592677  0.58369009  0.93677281  1
  O  O308  1  0.55534562  0.91690144  0.18602260  1
  O  O309  1  0.55579012  0.91719000  0.43650306  1
  O  O310  1  0.55570338  0.91724989  0.68703041  1
  O  O311  1  0.55621165  0.91683772  0.93677281  1
  O  O312  1  0.43829126  0.08331179  0.06234096  1
  O  O313  1  0.43950649  0.08385899  0.31264820  1
  O  O314  1  0.43989423  0.08353971  0.56262020  1
  O  O315  1  0.43912090  0.08297160  0.81277160  1
  O  O316  1  0.44000893  0.41599493  0.06208135  1
  O  O317  1  0.44426616  0.41623187  0.31351501  1
  O  O318  1  0.44317664  0.41651889  0.56417621  1
  O  O319  1  0.43994840  0.41704550  0.81273373  1
  O  O320  1  0.44053610  0.75064470  0.06194451  1
  O  O321  1  0.44296934  0.74990502  0.31335638  1
  O  O322  1  0.44232298  0.74993892  0.56413807  1
  O  O323  1  0.43987717  0.75004581  0.81264674  1
  O  O324  1  0.94316810  0.08328102  0.06195082  1
  O  O325  1  0.94567704  0.08344899  0.31313135  1
  O  O326  1  0.94458956  0.08362654  0.56391613  1
  O  O327  1  0.94244296  0.08368906  0.81281243  1
  O  O328  1  0.94471781  0.41628797  0.06369382  1
  O  O329  1  0.94151752  0.41665410  0.31302362  1
  O  O330  1  0.94096013  0.41665706  0.56194227  1
  O  O331  1  0.94479910  0.41633132  0.81271343  1
  O  O332  1  0.94217106  0.75041578  0.06211701  1
  O  O333  1  0.94279656  0.75040316  0.31244185  1
  O  O334  1  0.94466696  0.75018757  0.56355868  1
  O  O335  1  0.94468565  0.75022079  0.81336754  1
  O  O336  1  0.19192179  0.08315385  0.06217246  1
  O  O337  1  0.19137660  0.08338782  0.31259001  1
  O  O338  1  0.19091377  0.08349539  0.56309598  1
  O  O339  1  0.19073370  0.08277849  0.81259706  1
  O  O340  1  0.19096433  0.41784042  0.06221775  1
  O  O341  1  0.19234008  0.41702943  0.31097805  1
  O  O342  1  0.19422648  0.41650458  0.56186219  1
  O  O343  1  0.19195922  0.41760191  0.81314950  1
  O  O344  1  0.19083779  0.74908774  0.06250444  1
  O  O345  1  0.19036530  0.74956091  0.31205305  1
  O  O346  1  0.19063978  0.75042100  0.56225051  1
  O  O347  1  0.19093209  0.74975675  0.81307947  1
  O  O348  1  0.69405729  0.08247660  0.06146927  1
  O  O349  1  0.69074989  0.08303483  0.31243287  1
  O  O350  1  0.69263851  0.08332303  0.56122190  1
  O  O351  1  0.69424558  0.08322772  0.81143236  1
  O  O352  1  0.69446099  0.41696862  0.06177395  1
  O  O353  1  0.69266325  0.41617023  0.31227108  1
  O  O354  1  0.69329957  0.41589333  0.56133331  1
  O  O355  1  0.69328463  0.41610831  0.81233291  1
  O  O356  1  0.69387449  0.75044619  0.06079111  1
  O  O357  1  0.69435446  0.75017272  0.31053839  1
  O  O358  1  0.69361507  0.75069203  0.56215235  1
  O  O359  1  0.69106527  0.75033084  0.81356604  1
  O  O360  1  0.30446763  0.25001693  0.18834380  1
  O  O361  1  0.30550567  0.24986072  0.43903254  1
  O  O362  1  0.30782796  0.25001510  0.68715216  1
  O  O363  1  0.30503540  0.25002675  0.93785393  1
  O  O364  1  0.30829836  0.58352248  0.18724672  1
  O  O365  1  0.30637394  0.58324769  0.43832476  1
  O  O366  1  0.30583036  0.58394231  0.68900702  1
  O  O367  1  0.30836169  0.58408340  0.93738166  1
  O  O368  1  0.30636775  0.91647480  0.18717553  1
  O  O369  1  0.30566282  0.91682895  0.43880354  1
  O  O370  1  0.30673804  0.91635336  0.68718557  1
  O  O371  1  0.30506401  0.91593689  0.93845706  1
  O  O372  1  0.80871348  0.24948001  0.18889501  1
  O  O373  1  0.80997933  0.24881195  0.43731414  1
  O  O374  1  0.80899008  0.24935437  0.68705659  1
  O  O375  1  0.80724450  0.24958076  0.93848691  1
  O  O376  1  0.81018816  0.58360230  0.18643861  1
  O  O377  1  0.80607013  0.58350630  0.43856774  1
  O  O378  1  0.80634918  0.58348259  0.68912880  1
  O  O379  1  0.81063750  0.58336673  0.93706720  1
  O  O380  1  0.80786344  0.91669935  0.18806619  1
  O  O381  1  0.80775909  0.91679686  0.43921025  1
  O  O382  1  0.81087024  0.91686816  0.68768531  1
  O  O383  1  0.81020261  0.91666468  0.93654323  1
  O  O384  1  0.23126016  0.24981436  0.03909560  1
  O  O385  1  0.23091022  0.24907933  0.28970429  1
  O  O386  1  0.23244934  0.24996328  0.54102036  1
  O  O387  1  0.23438212  0.25006437  0.78851051  1
  O  O388  1  0.23481421  0.58370704  0.03860558  1
  O  O389  1  0.23397045  0.58315745  0.28796696  1
  O  O390  1  0.23344196  0.58304297  0.54029199  1
  O  O391  1  0.23256984  0.58403532  0.79077247  1
  O  O392  1  0.23182119  0.91684787  0.03983398  1
  O  O393  1  0.23189027  0.91737476  0.28808437  1
  O  O394  1  0.23341993  0.91725885  0.54091076  1
  O  O395  1  0.23219711  0.91613329  0.78802226  1
  O  O396  1  0.73482007  0.24943945  0.04104352  1
  O  O397  1  0.73556428  0.24981993  0.29049047  1
  O  O398  1  0.73544197  0.24990331  0.53792733  1
  O  O399  1  0.73391510  0.24922902  0.78764364  1
  O  O400  1  0.73631673  0.58370382  0.03803468  1
  O  O401  1  0.73603736  0.58336532  0.28755485  1
  O  O402  1  0.73212817  0.58288067  0.53987632  1
  O  O403  1  0.73243925  0.58311249  0.79021208  1
  O  O404  1  0.73611066  0.91668563  0.03797532  1
  O  O405  1  0.73440712  0.91598704  0.28978641  1
  O  O406  1  0.73473148  0.91693412  0.54111696  1
  O  O407  1  0.73640980  0.91737079  0.78825758  1
  O  O408  1  0.26516522  0.08384990  0.21129663  1
  O  O409  1  0.26584223  0.08346038  0.46253226  1
  O  O410  1  0.26559939  0.08317325  0.71240936  1
  O  O411  1  0.26589534  0.08279853  0.96105821  1
  O  O412  1  0.26525347  0.41615446  0.20919282  1
  O  O413  1  0.26636625  0.41561843  0.45911826  1
  O  O414  1  0.26706649  0.41764223  0.71285220  1
  O  O415  1  0.26629903  0.41706665  0.96224702  1
  O  O416  1  0.26413052  0.75023294  0.21101436  1
  O  O417  1  0.26443589  0.75036081  0.46092770  1
  O  O418  1  0.26565999  0.74986291  0.71245352  1
  O  O419  1  0.26621424  0.75024047  0.96250447  1
  O  O420  1  0.76617823  0.08308678  0.21236531  1
  O  O421  1  0.76606306  0.08309317  0.45992976  1
  O  O422  1  0.76842859  0.08373100  0.71034100  1
  O  O423  1  0.76879357  0.08302402  0.96064368  1
  O  O424  1  0.76829772  0.41653509  0.21230746  1
  O  O425  1  0.76738654  0.41652209  0.46033651  1
  O  O426  1  0.76591078  0.41652294  0.71015667  1
  O  O427  1  0.76719886  0.41630995  0.95978742  1
  O  O428  1  0.76894553  0.75012864  0.20971034  1
  O  O429  1  0.76670979  0.74948997  0.46018352  1
  O  O430  1  0.76553972  0.74977352  0.71273078  1
  O  O431  1  0.76808820  0.75036872  0.95998210  1
  O  O432  1  0.01875292  0.08378786  0.16170600  1
  O  O433  1  0.01919194  0.08331108  0.41471350  1
  O  O434  1  0.01782644  0.08334482  0.66559447  1
  O  O435  1  0.01759163  0.08276587  0.91285183  1
  O  O436  1  0.01791535  0.41683514  0.16532159  1
  O  O437  1  0.01470472  0.41645153  0.41451273  1
  O  O438  1  0.01541352  0.41557418  0.66278731  1
  O  O439  1  0.01897039  0.41746570  0.91389889  1
  O  O440  1  0.01717084  0.75003899  0.16219531  1
  O  O441  1  0.01780675  0.75106096  0.41293168  1
  O  O442  1  0.01826445  0.75067902  0.66503723  1
  O  O443  1  0.01827769  0.74981160  0.91460600  1
  O  O444  1  0.51302831  0.08298434  0.16281361  1
  O  O445  1  0.51499977  0.08365527  0.41294243  1
  O  O446  1  0.51339458  0.08308594  0.66414860  1
  O  O447  1  0.51399520  0.08280512  0.91317217  1
  O  O448  1  0.51491236  0.41726659  0.16279556  1
  O  O449  1  0.51878913  0.41592760  0.41475393  1
  O  O450  1  0.51521158  0.41640038  0.66634723  1
  O  O451  1  0.51398950  0.41705194  0.91366513  1
  O  O452  1  0.51451695  0.75018964  0.16338353  1
  O  O453  1  0.51648965  0.75033808  0.41498074  1
  O  O454  1  0.51475412  0.75037223  0.66606199  1
  O  O455  1  0.51525341  0.74970832  0.91290171  1
  O  O456  1  0.48245323  0.24949676  0.08508420  1
  O  O457  1  0.48359956  0.24995104  0.33398299  1
  O  O458  1  0.48239248  0.24932688  0.58799405  1
  O  O459  1  0.48374425  0.24966255  0.83502033  1
  O  O460  1  0.48179440  0.58367546  0.08563057  1
  O  O461  1  0.48560785  0.58302238  0.33629500  1
  O  O462  1  0.48504565  0.58319526  0.58729015  1
  O  O463  1  0.48195680  0.58390798  0.83566123  1
  O  O464  1  0.48074460  0.91642485  0.08521386  1
  O  O465  1  0.48290992  0.91752403  0.33459122  1
  O  O466  1  0.48075214  0.91708903  0.58643638  1
  O  O467  1  0.48288760  0.91629948  0.83547780  1
  O  O468  1  0.98648019  0.25022604  0.08536130  1
  O  O469  1  0.98426311  0.24983678  0.33677285  1
  O  O470  1  0.98293205  0.24915798  0.58541398  1
  O  O471  1  0.98571546  0.24983653  0.83684530  1
  O  O472  1  0.98252543  0.58313278  0.08473955  1
  O  O473  1  0.98347855  0.58366439  0.33483557  1
  O  O474  1  0.98471716  0.58400580  0.58692757  1
  O  O475  1  0.98305452  0.58375680  0.83453743  1
  O  O476  1  0.98640340  0.91623142  0.08587195  1
  O  O477  1  0.98529516  0.91728883  0.33314903  1
  O  O478  1  0.98382317  0.91723061  0.58751813  1
  O  O479  1  0.98474338  0.91639405  0.83778422  1
  O  O480  1  0.08998921  0.31583102  0.07821152  1
  O  O481  1  0.08818106  0.31416157  0.32746718  1
  O  O482  1  0.08704443  0.31371064  0.57646316  1
  O  O483  1  0.08901980  0.31539165  0.82826550  1
  O  O484  1  0.08638149  0.64802493  0.07686490  1
  O  O485  1  0.08717595  0.64896551  0.32775009  1
  O  O486  1  0.08832933  0.64927230  0.57900759  1
  O  O487  1  0.08730987  0.64864518  0.82723056  1
  O  O488  1  0.08988753  0.98172444  0.07719053  1
  O  O489  1  0.08932943  0.98230206  0.32737838  1
  O  O490  1  0.08743309  0.98211475  0.57902878  1
  O  O491  1  0.08847724  0.98133386  0.82768151  1
  O  O492  1  0.58617861  0.31487323  0.07714012  1
  O  O493  1  0.58776015  0.31467949  0.32775589  1
  O  O494  1  0.58610271  0.31437503  0.57797743  1
  O  O495  1  0.58784528  0.31454851  0.82695200  1
  O  O496  1  0.58559621  0.64873461  0.07665546  1
  O  O497  1  0.58946240  0.64725456  0.32759484  1
  O  O498  1  0.58867177  0.64850388  0.57798293  1
  O  O499  1  0.58595578  0.64946435  0.82748563  1
  O  O500  1  0.58449697  0.98183059  0.07626702  1
  O  O501  1  0.58639147  0.98336899  0.32752216  1
  O  O502  1  0.58457593  0.98204222  0.57726736  1
  O  O503  1  0.58684614  0.98083481  0.82699122  1
  O  O504  1  0.40961685  0.01676900  0.17190499  1
  O  O505  1  0.41090332  0.01901827  0.42275004  1
  O  O506  1  0.40940636  0.01822258  0.67232112  1
  O  O507  1  0.40983335  0.01822865  0.92263457  1
  O  O508  1  0.41147129  0.35223943  0.17251845  1
  O  O509  1  0.41458859  0.35139564  0.42283975  1
  O  O510  1  0.41135449  0.35057244  0.67290427  1
  O  O511  1  0.40986083  0.35299487  0.92291906  1
  O  O512  1  0.41096925  0.68497824  0.17146390  1
  O  O513  1  0.41307164  0.68469377  0.42286184  1
  O  O514  1  0.41064374  0.68592109  0.67369234  1
  O  O515  1  0.41154749  0.68406183  0.92241379  1
  O  O516  1  0.91540191  0.01833665  0.17230256  1
  O  O517  1  0.91521052  0.01898211  0.42269529  1
  O  O518  1  0.91361430  0.01879447  0.67331638  1
  O  O519  1  0.91392468  0.01737229  0.92252066  1
  O  O520  1  0.91382356  0.35233211  0.17343182  1
  O  O521  1  0.91139107  0.35026524  0.42211265  1
  O  O522  1  0.91201231  0.35014650  0.67134916  1
  O  O523  1  0.91545923  0.35223169  0.92275587  1
  O  O524  1  0.91367641  0.68419842  0.17189659  1
  O  O525  1  0.91446286  0.68557413  0.42280379  1
  O  O526  1  0.91429198  0.68590416  0.67319582  1
  O  O527  1  0.91391822  0.68507030  0.92236965  1
  O  O528  1  0.16168872  0.01848060  0.20238474  1
  O  O529  1  0.16165578  0.01977157  0.45267051  1
  O  O530  1  0.16223751  0.01712826  0.70257871  1
  O  O531  1  0.16206201  0.01801280  0.95239805  1
  O  O532  1  0.16138529  0.35065933  0.20243737  1
  O  O533  1  0.16251486  0.35025300  0.45356457  1
  O  O534  1  0.16329282  0.35328714  0.70282066  1
  O  O535  1  0.16276797  0.35146355  0.95238299  1
  O  O536  1  0.16034093  0.68566648  0.20161655  1
  O  O537  1  0.16066189  0.68536801  0.45237855  1
  O  O538  1  0.16202831  0.68456325  0.70315153  1
  O  O539  1  0.16234606  0.68566038  0.95183735  1
  O  O540  1  0.66262699  0.01797402  0.20212643  1
  O  O541  1  0.66189623  0.01813282  0.45199765  1
  O  O542  1  0.66441455  0.01907209  0.70176370  1
  O  O543  1  0.66506175  0.01778787  0.95151863  1
  O  O544  1  0.66456835  0.35132542  0.20222563  1
  O  O545  1  0.66325794  0.35212000  0.45135651  1
  O  O546  1  0.66256242  0.35077725  0.70290501  1
  O  O547  1  0.66305011  0.35161790  0.95288495  1
  O  O548  1  0.66516213  0.68503868  0.20086074  1
  O  O549  1  0.66292642  0.68441705  0.45324486  1
  O  O550  1  0.66195159  0.68427893  0.70432212  1
  O  O551  1  0.66371868  0.68544570  0.95151429  1
  O  O552  1  0.33495922  0.31491535  0.04751119  1
  O  O553  1  0.33464437  0.31415967  0.29812247  1
  O  O554  1  0.33714042  0.31394211  0.54836585  1
  O  O555  1  0.33789694  0.31510201  0.79678723  1
  O  O556  1  0.33843396  0.64898951  0.04718600  1
  O  O557  1  0.33738473  0.64841157  0.29722552  1
  O  O558  1  0.33690918  0.64832107  0.54773425  1
  O  O559  1  0.33650408  0.64914843  0.79835767  1
  O  O560  1  0.33593324  0.98146743  0.04757649  1
  O  O561  1  0.33525493  0.98299410  0.29660149  1
  O  O562  1  0.33721379  0.98272329  0.54768414  1
  O  O563  1  0.33567272  0.98148038  0.79708534  1
  O  O564  1  0.83892321  0.31390283  0.04743508  1
  O  O565  1  0.83933990  0.31552774  0.29780613  1
  O  O566  1  0.83886547  0.31570523  0.54673242  1
  O  O567  1  0.83760080  0.31395687  0.79735657  1
  O  O568  1  0.83973746  0.64987687  0.04630143  1
  O  O569  1  0.83918641  0.64920418  0.29628843  1
  O  O570  1  0.83606733  0.64757573  0.54840809  1
  O  O571  1  0.83673967  0.64813190  0.79862720  1
  O  O572  1  0.83977582  0.98187013  0.04639677  1
  O  O573  1  0.83822416  0.98077745  0.29768059  1
  O  O574  1  0.83904742  0.98171185  0.54825540  1
  O  O575  1  0.84016411  0.98308607  0.79710225  1
  O  O576  1  0.40885938  0.14689645  0.17290256  1
  O  O577  1  0.41132322  0.14890817  0.42286556  1
  O  O578  1  0.40966981  0.14833977  0.67245109  1
  O  O579  1  0.41031872  0.14812156  0.92287361  1
  O  O580  1  0.41142108  0.48265124  0.17146586  1
  O  O581  1  0.41518451  0.48146011  0.42313132  1
  O  O582  1  0.41093501  0.48071256  0.67351297  1
  O  O583  1  0.41051201  0.48313316  0.92205469  1
  O  O584  1  0.41080305  0.81541456  0.17168471  1
  O  O585  1  0.41228917  0.81486983  0.42231787  1
  O  O586  1  0.41078523  0.81598219  0.67308101  1
  O  O587  1  0.41106341  0.81398623  0.92302875  1
  O  O588  1  0.91497782  0.14832403  0.17211522  1
  O  O589  1  0.91548161  0.14892701  0.42252025  1
  O  O590  1  0.91400740  0.14886778  0.67337404  1
  O  O591  1  0.91375991  0.14748614  0.92335271  1
  O  O592  1  0.91389259  0.48238752  0.17257754  1
  O  O593  1  0.91048240  0.48039007  0.42313249  1
  O  O594  1  0.91194038  0.48057368  0.67218609  1
  O  O595  1  0.91493842  0.48240853  0.92159934  1
  O  O596  1  0.91326680  0.81423166  0.17274073  1
  O  O597  1  0.91411374  0.81570938  0.42229035  1
  O  O598  1  0.91453006  0.81599255  0.67281606  1
  O  O599  1  0.91448531  0.81517218  0.92309268  1
  O  O600  1  0.09047040  0.18558181  0.07766308  1
  O  O601  1  0.08788400  0.18416939  0.32790920  1
  O  O602  1  0.08696084  0.18373641  0.57760536  1
  O  O603  1  0.08928782  0.18494977  0.82861257  1
  O  O604  1  0.08631959  0.51795765  0.07723503  1
  O  O605  1  0.08716906  0.51878363  0.32738550  1
  O  O606  1  0.08800926  0.51881509  0.57799083  1
  O  O607  1  0.08722951  0.51865607  0.82666574  1
  O  O608  1  0.09025128  0.85152561  0.07762646  1
  O  O609  1  0.08921011  0.85220581  0.32731542  1
  O  O610  1  0.08739127  0.85194877  0.57885301  1
  O  O611  1  0.08844192  0.85119733  0.82807514  1
  O  O612  1  0.58621225  0.18453976  0.07687568  1
  O  O613  1  0.58707722  0.18421786  0.32767329  1
  O  O614  1  0.58604783  0.18438876  0.57772775  1
  O  O615  1  0.58764348  0.18442387  0.82641059  1
  O  O616  1  0.58569206  0.51861999  0.07660008  1
  O  O617  1  0.58879667  0.51677300  0.32808492  1
  O  O618  1  0.58898135  0.51845204  0.57790142  1
  O  O619  1  0.58619728  0.51940783  0.82708846  1
  O  O620  1  0.58503347  0.85178084  0.07667365  1
  O  O621  1  0.58687801  0.85297314  0.32693234  1
  O  O622  1  0.58463843  0.85201171  0.57746579  1
  O  O623  1  0.58656585  0.85058247  0.82789616  1
  O  O624  1  0.33478485  0.18461992  0.04723348  1
  O  O625  1  0.33484090  0.18410030  0.29743710  1
  O  O626  1  0.33611640  0.18397251  0.54815434  1
  O  O627  1  0.33763340  0.18466912  0.79672606  1
  O  O628  1  0.33864447  0.51873148  0.04693867  1
  O  O629  1  0.33762936  0.51818650  0.29698688  1
  O  O630  1  0.33732226  0.51813925  0.54743754  1
  O  O631  1  0.33681902  0.51913883  0.79838082  1
  O  O632  1  0.33564305  0.85138311  0.04820851  1
  O  O633  1  0.33554118  0.85282369  0.29755685  1
  O  O634  1  0.33750417  0.85265953  0.54827070  1
  O  O635  1  0.33584413  0.85131441  0.79720350  1
  O  O636  1  0.83845792  0.18358745  0.04729862  1
  O  O637  1  0.83985422  0.18541583  0.29853263  1
  O  O638  1  0.83950757  0.18560228  0.54778799  1
  O  O639  1  0.83772120  0.18392325  0.79691420  1
  O  O640  1  0.84055329  0.51965121  0.04733726  1
  O  O641  1  0.83964536  0.51870754  0.29629537  1
  O  O642  1  0.83586794  0.51740200  0.54770141  1
  O  O643  1  0.83676640  0.51832357  0.79851202  1
  O  O644  1  0.83973255  0.85152418  0.04600902  1
  O  O645  1  0.83814184  0.85044440  0.29690978  1
  O  O646  1  0.83876035  0.85171388  0.54859199  1
  O  O647  1  0.84045465  0.85299835  0.79802438  1
  O  O648  1  0.16118003  0.14850014  0.20285046  1
  O  O649  1  0.16264020  0.14982535  0.45337854  1
  O  O650  1  0.16150982  0.14711442  0.70235106  1
  O  O651  1  0.16217383  0.14814277  0.95226624  1
  O  O652  1  0.16129325  0.48076273  0.20097658  1
  O  O653  1  0.16252200  0.48038972  0.45240277  1
  O  O654  1  0.16364694  0.48340845  0.70339350  1
  O  O655  1  0.16245469  0.48156987  0.95170910  1
  O  O656  1  0.16056692  0.81576764  0.20274756  1
  O  O657  1  0.16074264  0.81541883  0.45263476  1
  O  O658  1  0.16176781  0.81471009  0.70291051  1
  O  O659  1  0.16257947  0.81564220  0.95279593  1
  O  O660  1  0.66258166  0.14814592  0.20240393  1
  O  O661  1  0.66200372  0.14819534  0.45175208  1
  O  O662  1  0.66446413  0.14923760  0.70217813  1
  O  O663  1  0.66473910  0.14785672  0.95206219  1
  O  O664  1  0.66459443  0.48144621  0.20203942  1
  O  O665  1  0.66368529  0.48227905  0.45208781  1
  O  O666  1  0.66194527  0.48130848  0.70364172  1
  O  O667  1  0.66340457  0.48176198  0.95257371  1
  O  O668  1  0.66492302  0.81515541  0.20095502  1
  O  O669  1  0.66315222  0.81481015  0.45256347  1
  O  O670  1  0.66206982  0.81466926  0.70327913  1
  O  O671  1  0.66390413  0.81548649  0.95128915  1
