# generated using pymatgen
data_Na2MnFe(PO4)2
_symmetry_space_group_name_H-M   'P 1'
_cell_length_a   21.08018071
_cell_length_b   18.93165560
_cell_length_c   20.03911248
_cell_angle_alpha   89.99956656
_cell_angle_beta   89.99916419
_cell_angle_gamma   90.00140606
_symmetry_Int_Tables_number   1
_chemical_formula_structural   Na2MnFe(PO4)2
_chemical_formula_sum   'Na96 Mn48 Fe48 P96 O384'
_cell_volume   7997.26353403
_cell_formula_units_Z   48
loop_
 _symmetry_equiv_pos_site_id
 _symmetry_equiv_pos_as_xyz
  1  'x, y, z'
loop_
 _atom_site_type_symbol
 _atom_site_label
 _atom_site_symmetry_multiplicity
 _atom_site_fract_x
 _atom_site_fract_y
 _atom_site_fract_z
 _atom_site_occupancy
  Na  Na0  1  -0.00218289  -0.00034952  -0.00082039  1
  Na  Na1  1  -0.00171770  -0.00051350  0.24941896  1
  Na  Na2  1  -0.00002124  0.00038561  0.50060339  1
  Na  Na3  1  -0.00272521  -0.00121990  0.75077319  1
  Na  Na4  1  0.00007711  0.33309035  -0.00059342  1
  Na  Na5  1  0.00036632  0.33241291  0.25016253  1
  Na  Na6  1  0.00053378  0.33347499  0.50044656  1
  Na  Na7  1  -0.00108328  0.33315589  0.75038603  1
  Na  Na8  1  0.00023965  0.66703143  0.00057748  1
  Na  Na9  1  -0.00123214  0.66587317  0.24984263  1
  Na  Na10  1  -0.00003978  0.66667960  0.49955564  1
  Na  Na11  1  0.00111306  0.66725839  0.74936544  1
  Na  Na12  1  0.49891185  -0.00015105  0.00068212  1
  Na  Na13  1  0.49805858  -0.00097615  0.25058931  1
  Na  Na14  1  0.50200197  0.00074422  0.49917241  1
  Na  Na15  1  0.50147281  0.00076797  0.74954207  1
  Na  Na16  1  0.49797437  0.33265798  -0.00077677  1
  Na  Na17  1  0.49797750  0.33317435  0.25174736  1
  Na  Na18  1  0.49965437  0.33393645  0.50025377  1
  Na  Na19  1  0.49884405  0.33288863  0.74870515  1
  Na  Na20  1  0.49975085  0.66636671  -0.00082775  1
  Na  Na21  1  0.50137023  0.66674609  0.24914927  1
  Na  Na22  1  0.50077237  0.66634665  0.50118472  1
  Na  Na23  1  0.50039012  0.66672982  0.75058015  1
  Na  Na24  1  0.25291003  0.00078289  0.12538701  1
  Na  Na25  1  0.24852869  -0.00027197  0.37413846  1
  Na  Na26  1  0.24859537  -0.00033852  0.62499640  1
  Na  Na27  1  0.25097221  -0.00033539  0.87552532  1
  Na  Na28  1  0.25078628  0.33319134  0.12570755  1
  Na  Na29  1  0.24892348  0.33326651  0.37414835  1
  Na  Na30  1  0.25020404  0.33349581  0.62518919  1
  Na  Na31  1  0.25300300  0.33412502  0.87529031  1
  Na  Na32  1  0.25063953  0.66681924  0.12534968  1
  Na  Na33  1  0.24823102  0.66600776  0.37523330  1
  Na  Na34  1  0.24747295  0.66617017  0.62405023  1
  Na  Na35  1  0.25016951  0.66737110  0.87502977  1
  Na  Na36  1  0.75149894  0.00106674  0.12588331  1
  Na  Na37  1  0.74967188  -0.00057654  0.37513835  1
  Na  Na38  1  0.75103332  0.00025493  0.62463791  1
  Na  Na39  1  0.75087637  0.00045094  0.87404389  1
  Na  Na40  1  0.75203322  0.33399018  0.12604642  1
  Na  Na41  1  0.75204929  0.33372010  0.37441538  1
  Na  Na42  1  0.74992609  0.33273666  0.62412426  1
  Na  Na43  1  0.74932760  0.33293509  0.87571968  1
  Na  Na44  1  0.74918894  0.66712564  0.12548782  1
  Na  Na45  1  0.75152885  0.66697609  0.37545208  1
  Na  Na46  1  0.75162445  0.66641481  0.62388502  1
  Na  Na47  1  0.74936081  0.66629747  0.87493103  1
  Na  Na48  1  -0.00043022  0.16683647  -0.00043036  1
  Na  Na49  1  0.00102142  0.16709582  0.24924284  1
  Na  Na50  1  0.00141696  0.16680960  0.50020016  1
  Na  Na51  1  -0.00047717  0.16659581  0.75110001  1
  Na  Na52  1  0.00047867  0.50033203  -0.00037645  1
  Na  Na53  1  0.00129263  0.49956958  0.25009923  1
  Na  Na54  1  -0.00096585  0.50088917  0.50098335  1
  Na  Na55  1  -0.00038387  0.50028382  0.74966435  1
  Na  Na56  1  -0.00202268  0.83289656  -0.00008606  1
  Na  Na57  1  -0.00352244  0.83386543  0.25041018  1
  Na  Na58  1  -0.00221543  0.83374978  0.49891350  1
  Na  Na59  1  -0.00032850  0.83208572  0.74996986  1
  Na  Na60  1  0.49928629  0.16720364  0.00037705  1
  Na  Na61  1  0.49918230  0.16706129  0.25148631  1
  Na  Na62  1  0.50349208  0.16578672  0.49961543  1
  Na  Na63  1  0.50251544  0.16660774  0.74873171  1
  Na  Na64  1  0.50058922  0.49985838  -0.00053122  1
  Na  Na65  1  0.49815559  0.50113243  0.25037107  1
  Na  Na66  1  0.49792046  0.50102347  0.50047713  1
  Na  Na67  1  0.50068122  0.49994529  0.74928278  1
  Na  Na68  1  0.49764197  0.83366435  -0.00067758  1
  Na  Na69  1  0.50142683  0.83175299  0.24987502  1
  Na  Na70  1  0.50094753  0.83241155  0.50048105  1
  Na  Na71  1  0.49670211  0.83436059  0.75055918  1
  Na  Na72  1  0.25011502  0.16683407  0.12513770  1
  Na  Na73  1  0.24675420  0.16767801  0.37431811  1
  Na  Na74  1  0.24857819  0.16696292  0.62477383  1
  Na  Na75  1  0.25060585  0.16737240  0.87525307  1
  Na  Na76  1  0.25231780  0.49961428  0.12632381  1
  Na  Na77  1  0.25031334  0.50022078  0.37455646  1
  Na  Na78  1  0.24973672  0.50012526  0.62377883  1
  Na  Na79  1  0.24964901  0.50091691  0.87577640  1
  Na  Na80  1  0.25178053  0.83264259  0.12480872  1
  Na  Na81  1  0.24832832  0.83372024  0.37471871  1
  Na  Na82  1  0.24870752  0.83325362  0.62561447  1
  Na  Na83  1  0.25214384  0.83227570  0.87514778  1
  Na  Na84  1  0.75168163  0.16601030  0.12662565  1
  Na  Na85  1  0.74910431  0.16752296  0.37490064  1
  Na  Na86  1  0.74832737  0.16706211  0.62408411  1
  Na  Na87  1  0.74932173  0.16638188  0.87504234  1
  Na  Na88  1  0.74778815  0.50134533  0.12505204  1
  Na  Na89  1  0.75108760  0.50032070  0.37549922  1
  Na  Na90  1  0.75341916  0.49925864  0.62423574  1
  Na  Na91  1  0.74937280  0.50061468  0.87457159  1
  Na  Na92  1  0.75150527  0.83239476  0.12605894  1
  Na  Na93  1  0.75274157  0.83208085  0.37449093  1
  Na  Na94  1  0.75254840  0.83229974  0.62401439  1
  Na  Na95  1  0.75153467  0.83262290  0.87502096  1
  Mn  Mn96  1  0.60759818  0.41749147  0.37319394  1
  Mn  Mn97  1  0.64266005  0.91608897  0.24783620  1
  Mn  Mn98  1  0.89137256  0.91603668  0.87749539  1
  Mn  Mn99  1  0.64221688  0.91677604  0.99822342  1
  Mn  Mn100  1  0.10843637  0.41640826  0.12265933  1
  Mn  Mn101  1  0.10631800  0.75009945  0.37234122  1
  Mn  Mn102  1  0.85846227  0.08325519  0.25327576  1
  Mn  Mn103  1  0.14284311  0.58344781  0.99817992  1
  Mn  Mn104  1  0.39230059  0.91563853  0.37803075  1
  Mn  Mn105  1  0.35690381  0.08354696  0.50187919  1
  Mn  Mn106  1  0.89112313  0.25022441  0.87743543  1
  Mn  Mn107  1  0.14159644  0.91642436  0.24696398  1
  Mn  Mn108  1  0.39221461  0.58339832  0.87671126  1
  Mn  Mn109  1  0.35696197  0.74998281  0.50205392  1
  Mn  Mn110  1  0.10686437  0.75054667  0.12308063  1
  Mn  Mn111  1  0.60676932  0.41646973  0.12348632  1
  Mn  Mn112  1  0.39178807  0.25020433  0.37823066  1
  Mn  Mn113  1  0.64246767  0.91593981  0.74761588  1
  Mn  Mn114  1  0.60831598  0.41665696  0.62243234  1
  Mn  Mn115  1  0.10745629  0.08257597  0.12233361  1
  Mn  Mn116  1  0.60688361  0.08321546  0.12310340  1
  Mn  Mn117  1  0.10768964  0.41702650  0.62288410  1
  Mn  Mn118  1  0.10744427  0.08252132  0.87289967  1
  Mn  Mn119  1  0.35846406  0.41728068  0.00263999  1
  Mn  Mn120  1  0.60760465  0.75100128  0.87249376  1
  Mn  Mn121  1  0.89218754  0.58343701  0.87689113  1
  Mn  Mn122  1  0.39138277  0.58388230  0.62739723  1
  Mn  Mn123  1  0.10829666  0.41719909  0.87244389  1
  Mn  Mn124  1  0.64331599  0.91625261  0.49762078  1
  Mn  Mn125  1  0.14291143  0.25063817  0.74844719  1
  Mn  Mn126  1  0.10733887  0.08261583  0.62353791  1
  Mn  Mn127  1  0.14216910  0.91643702  0.74813496  1
  Mn  Mn128  1  0.64174880  0.25004865  0.99890870  1
  Mn  Mn129  1  0.60795430  0.41571706  0.87208299  1
  Mn  Mn130  1  0.89137434  0.58285461  0.12760769  1
  Mn  Mn131  1  0.39258868  0.24943134  0.62609451  1
  Mn  Mn132  1  0.89184574  0.24982622  0.62770052  1
  Mn  Mn133  1  0.35862112  0.08315657  0.00227578  1
  Mn  Mn134  1  0.64352513  0.58282502  0.49769009  1
  Mn  Mn135  1  0.35852816  0.74984930  0.25294874  1
  Mn  Mn136  1  0.85861123  0.41775781  0.25271069  1
  Mn  Mn137  1  0.64251911  0.25103470  0.24762884  1
  Mn  Mn138  1  0.85742843  0.41666683  0.00285180  1
  Mn  Mn139  1  0.14255228  0.91673846  0.99820400  1
  Mn  Mn140  1  0.60820634  0.75053626  0.62357349  1
  Mn  Mn141  1  0.39164785  0.91713499  0.62631571  1
  Mn  Mn142  1  0.35897798  0.08342750  0.75221786  1
  Mn  Mn143  1  0.85802204  0.08368164  0.50196520  1
  Fe  Fe144  1  0.60720089  0.75000561  0.12286878  1
  Fe  Fe145  1  0.64211344  0.58354970  0.99853726  1
  Fe  Fe146  1  0.85642314  0.74920906  0.25173433  1
  Fe  Fe147  1  0.14333542  0.24996035  0.99829995  1
  Fe  Fe148  1  0.89283066  0.91733190  0.37727121  1
  Fe  Fe149  1  0.14177337  0.25005510  0.49823046  1
  Fe  Fe150  1  0.64368314  0.58303469  0.74811661  1
  Fe  Fe151  1  0.89361432  0.58404617  0.62724192  1
  Fe  Fe152  1  0.10736818  0.41642090  0.37375053  1
  Fe  Fe153  1  0.64355810  0.25078420  0.49765909  1
  Fe  Fe154  1  0.14282040  0.25040451  0.24776103  1
  Fe  Fe155  1  0.85867485  0.41646277  0.50141041  1
  Fe  Fe156  1  0.89299510  0.58249536  0.37655274  1
  Fe  Fe157  1  0.39292153  0.91647329  0.12741535  1
  Fe  Fe158  1  0.60735875  0.08267012  0.37294470  1
  Fe  Fe159  1  0.64252462  0.25061604  0.74834280  1
  Fe  Fe160  1  0.85809683  0.74917511  0.50187368  1
  Fe  Fe161  1  0.60850209  0.08287573  0.62287146  1
  Fe  Fe162  1  0.39259779  0.91765280  0.87651010  1
  Fe  Fe163  1  0.89162609  0.91715263  0.12652068  1
  Fe  Fe164  1  0.39339249  0.24918376  0.87607609  1
  Fe  Fe165  1  0.35680863  0.41661099  0.25234035  1
  Fe  Fe166  1  0.39257998  0.58415203  0.37662470  1
  Fe  Fe167  1  0.35673881  0.08383242  0.25251182  1
  Fe  Fe168  1  0.85710048  0.74991365  0.00197667  1
  Fe  Fe169  1  0.39155026  0.24986584  0.12745321  1
  Fe  Fe170  1  0.35765450  0.74964587  0.00178969  1
  Fe  Fe171  1  0.64226549  0.58323858  0.24899162  1
  Fe  Fe172  1  0.85705007  0.08327265  0.00166992  1
  Fe  Fe173  1  0.14273800  0.58322229  0.74844130  1
  Fe  Fe174  1  0.14191600  0.58276346  0.49745794  1
  Fe  Fe175  1  0.10672620  0.75043975  0.62327108  1
  Fe  Fe176  1  0.35749416  0.41734531  0.75119095  1
  Fe  Fe177  1  0.89293956  0.91640188  0.62680690  1
  Fe  Fe178  1  0.14297773  0.58321640  0.24853008  1
  Fe  Fe179  1  0.60847977  0.74976984  0.37384655  1
  Fe  Fe180  1  0.60786004  0.08326504  0.87374941  1
  Fe  Fe181  1  0.85690707  0.41643328  0.75170488  1
  Fe  Fe182  1  0.89405749  0.25017275  0.37663061  1
  Fe  Fe183  1  0.35592996  0.41655184  0.50111326  1
  Fe  Fe184  1  0.85801228  0.74941793  0.75178850  1
  Fe  Fe185  1  0.10707869  0.08348265  0.37321412  1
  Fe  Fe186  1  0.85626312  0.08389801  0.75149076  1
  Fe  Fe187  1  0.14090517  0.91680131  0.49807924  1
  Fe  Fe188  1  0.89333465  0.24985488  0.12651921  1
  Fe  Fe189  1  0.39340311  0.58349706  0.12735416  1
  Fe  Fe190  1  0.10762831  0.75004330  0.87346449  1
  Fe  Fe191  1  0.35625369  0.74934385  0.75127333  1
  P  P192  1  0.05439418  0.24980211  0.11003223  1
  P  P193  1  0.05465642  0.25031281  0.36067469  1
  P  P194  1  0.05379510  0.25010528  0.60998869  1
  P  P195  1  0.05415033  0.25002017  0.86105005  1
  P  P196  1  0.05410574  0.58342795  0.11106431  1
  P  P197  1  0.05381770  0.58224605  0.36059342  1
  P  P198  1  0.05438912  0.58427044  0.61075092  1
  P  P199  1  0.05427240  0.58446939  0.85930287  1
  P  P200  1  0.05099240  0.91646172  0.10956033  1
  P  P201  1  0.05266532  0.91744198  0.36072477  1
  P  P202  1  0.05228645  0.91551301  0.60987898  1
  P  P203  1  0.05296859  0.91532652  0.86024711  1
  P  P204  1  0.55088977  0.25038427  0.11070995  1
  P  P205  1  0.55482154  0.25017369  0.36144929  1
  P  P206  1  0.55608812  0.24971237  0.60990661  1
  P  P207  1  0.55308650  0.24916134  0.85933336  1
  P  P208  1  0.55393416  0.58381411  0.11058190  1
  P  P209  1  0.55291752  0.58398655  0.35992663  1
  P  P210  1  0.55485871  0.58339630  0.61104045  1
  P  P211  1  0.55544113  0.58341206  0.85998831  1
  P  P212  1  0.55206286  0.91582407  0.11025828  1
  P  P213  1  0.55389617  0.91591299  0.36010396  1
  P  P214  1  0.55361960  0.91698708  0.60976550  1
  P  P215  1  0.55225215  0.91750973  0.86022996  1
  P  P216  1  0.44549319  0.08350377  0.14136767  1
  P  P217  1  0.44653642  0.08333910  0.38937644  1
  P  P218  1  0.44852103  0.08353154  0.63922633  1
  P  P219  1  0.44835688  0.08385927  0.88965220  1
  P  P220  1  0.44544211  0.41685756  0.14106271  1
  P  P221  1  0.44428409  0.41800164  0.38994752  1
  P  P222  1  0.44461320  0.41674597  0.63892947  1
  P  P223  1  0.44552586  0.41616457  0.88816282  1
  P  P224  1  0.44669317  0.74952052  0.13864798  1
  P  P225  1  0.44842389  0.74870507  0.39045902  1
  P  P226  1  0.44574974  0.75000544  0.64089042  1
  P  P227  1  0.44445801  0.75050298  0.88900048  1
  P  P228  1  0.94512326  0.08359839  0.13863198  1
  P  P229  1  0.94818978  0.08408612  0.39000884  1
  P  P230  1  0.94574923  0.08274454  0.64091372  1
  P  P231  1  0.94409348  0.08346938  0.88956843  1
  P  P232  1  0.94710120  0.41577392  0.14011046  1
  P  P233  1  0.94794103  0.41646879  0.39049356  1
  P  P234  1  0.94499066  0.41741470  0.63969146  1
  P  P235  1  0.94540843  0.41706288  0.88911261  1
  P  P236  1  0.94389471  0.75054452  0.13969732  1
  P  P237  1  0.94407303  0.74925587  0.38883674  1
  P  P238  1  0.94603390  0.74981806  0.63894815  1
  P  P239  1  0.94601581  0.74922693  0.88971172  1
  P  P240  1  0.19594165  0.08390380  0.23584469  1
  P  P241  1  0.19502743  0.08309888  0.48425001  1
  P  P242  1  0.19730745  0.08332478  0.73527438  1
  P  P243  1  0.19704865  0.08389595  0.98518794  1
  P  P244  1  0.19617488  0.41700378  0.23670031  1
  P  P245  1  0.19631827  0.41668532  0.48427625  1
  P  P246  1  0.19804902  0.41769015  0.73501659  1
  P  P247  1  0.19716646  0.41587336  0.98538664  1
  P  P248  1  0.19639172  0.74909421  0.23506660  1
  P  P249  1  0.19410466  0.75021966  0.48598133  1
  P  P250  1  0.19544796  0.74920844  0.73563646  1
  P  P251  1  0.19737403  0.75031206  0.98486710  1
  P  P252  1  0.69562503  0.08323807  0.23624342  1
  P  P253  1  0.69529393  0.08389375  0.48514132  1
  P  P254  1  0.69575986  0.08381811  0.73554688  1
  P  P255  1  0.69718859  0.08324315  0.98499892  1
  P  P256  1  0.69686776  0.41798808  0.23534145  1
  P  P257  1  0.69877053  0.41624547  0.48484463  1
  P  P258  1  0.69795601  0.41675865  0.73470285  1
  P  P259  1  0.69608827  0.41719930  0.98538376  1
  P  P260  1  0.69544230  0.74889710  0.23590169  1
  P  P261  1  0.69820286  0.74976472  0.48458020  1
  P  P262  1  0.69866862  0.74929027  0.73480864  1
  P  P263  1  0.69632980  0.74985832  0.98623881  1
  P  P264  1  0.30445161  0.24984303  0.01467881  1
  P  P265  1  0.30344144  0.24991316  0.26416837  1
  P  P266  1  0.30127737  0.25058161  0.51449157  1
  P  P267  1  0.30475921  0.25078907  0.76519384  1
  P  P268  1  0.30454221  0.58430656  0.01597272  1
  P  P269  1  0.30430839  0.58305692  0.26473013  1
  P  P270  1  0.30274626  0.58296346  0.51325701  1
  P  P271  1  0.30190720  0.58352685  0.76462535  1
  P  P272  1  0.30565813  0.91587190  0.01466471  1
  P  P273  1  0.30452311  0.91714274  0.26421371  1
  P  P274  1  0.30074953  0.91663804  0.51477226  1
  P  P275  1  0.30400514  0.91583459  0.76539352  1
  P  P276  1  0.80340884  0.24899652  0.01629945  1
  P  P277  1  0.80585247  0.25022176  0.26503818  1
  P  P278  1  0.80433625  0.25051457  0.51335912  1
  P  P279  1  0.80177475  0.24996526  0.76471242  1
  P  P280  1  0.80182847  0.58412049  0.01498396  1
  P  P281  1  0.80254340  0.58419012  0.26580644  1
  P  P282  1  0.80664748  0.58294373  0.51411049  1
  P  P283  1  0.80408551  0.58337521  0.76342658  1
  P  P284  1  0.80354620  0.91673003  0.01571105  1
  P  P285  1  0.80537074  0.91583885  0.26471539  1
  P  P286  1  0.80604514  0.91610679  0.51424539  1
  P  P287  1  0.80482642  0.91634224  0.76327718  1
  O  O288  1  0.05943968  0.25005327  0.18683388  1
  O  O289  1  0.05878803  0.25050482  0.43744782  1
  O  O290  1  0.05705824  0.25038885  0.68677419  1
  O  O291  1  0.05882489  0.25016752  0.93778968  1
  O  O292  1  0.05876416  0.58332408  0.18782653  1
  O  O293  1  0.05826369  0.58286874  0.43738039  1
  O  O294  1  0.05910094  0.58314230  0.68742785  1
  O  O295  1  0.05724761  0.58366579  0.93613062  1
  O  O296  1  0.05507034  0.91642797  0.18632333  1
  O  O297  1  0.05723121  0.91687211  0.43740967  1
  O  O298  1  0.05596993  0.91580525  0.68658983  1
  O  O299  1  0.05629051  0.91605702  0.93698261  1
  O  O300  1  0.55531594  0.25069622  0.18737209  1
  O  O301  1  0.55941778  0.25124530  0.43821088  1
  O  O302  1  0.55999664  0.25104489  0.68674460  1
  O  O303  1  0.55635387  0.25028346  0.93609353  1
  O  O304  1  0.55848373  0.58334689  0.18727272  1
  O  O305  1  0.55693175  0.58305086  0.43667406  1
  O  O306  1  0.55997199  0.58313366  0.68777191  1
  O  O307  1  0.55943013  0.58339581  0.93684270  1
  O  O308  1  0.55629393  0.91594398  0.18689796  1
  O  O309  1  0.55717221  0.91598108  0.43687108  1
  O  O310  1  0.55650141  0.91619327  0.68657307  1
  O  O311  1  0.55589540  0.91651093  0.93691823  1
  O  O312  1  0.44335748  0.08385091  0.06447103  1
  O  O313  1  0.44091209  0.08374989  0.31277883  1
  O  O314  1  0.44399469  0.08365243  0.56255247  1
  O  O315  1  0.44536597  0.08388476  0.81293963  1
  O  O316  1  0.44351211  0.41669947  0.06414656  1
  O  O317  1  0.44002852  0.41683755  0.31316682  1
  O  O318  1  0.43967486  0.41697451  0.56217499  1
  O  O319  1  0.44153508  0.41751108  0.81139923  1
  O  O320  1  0.44223521  0.74945702  0.06198858  1
  O  O321  1  0.44464699  0.74916090  0.31372382  1
  O  O322  1  0.44255158  0.74938030  0.56406007  1
  O  O323  1  0.44008993  0.74914882  0.81227424  1
  O  O324  1  0.94129010  0.08358920  0.06190052  1
  O  O325  1  0.94488134  0.08404842  0.31322841  1
  O  O326  1  0.94329967  0.08412900  0.56411805  1
  O  O327  1  0.93946616  0.08389954  0.81281280  1
  O  O328  1  0.94383731  0.41682443  0.06330856  1
  O  O329  1  0.94468251  0.41663504  0.31374776  1
  O  O330  1  0.94145452  0.41627511  0.56288430  1
  O  O331  1  0.94042548  0.41680178  0.81233120  1
  O  O332  1  0.94018813  0.74932436  0.06283225  1
  O  O333  1  0.94039879  0.74882001  0.31204566  1
  O  O334  1  0.94197269  0.74951650  0.56220588  1
  O  O335  1  0.94128102  0.74906238  0.81294767  1
  O  O336  1  0.19391737  0.08298219  0.06200584  1
  O  O337  1  0.19063146  0.08307555  0.31249103  1
  O  O338  1  0.19245470  0.08287852  0.56108265  1
  O  O339  1  0.19394481  0.08312655  0.81203209  1
  O  O340  1  0.19440028  0.41628281  0.06221840  1
  O  O341  1  0.19138256  0.41693108  0.31333143  1
  O  O342  1  0.19321297  0.41685701  0.56105624  1
  O  O343  1  0.19462180  0.41719025  0.81172361  1
  O  O344  1  0.19310086  0.75052127  0.06157252  1
  O  O345  1  0.19241261  0.74990466  0.31183209  1
  O  O346  1  0.19041739  0.75051529  0.56279018  1
  O  O347  1  0.19143550  0.75015304  0.81234733  1
  O  O348  1  0.69313530  0.08320076  0.06175265  1
  O  O349  1  0.69091628  0.08300260  0.31300212  1
  O  O350  1  0.69183317  0.08274665  0.56201879  1
  O  O351  1  0.69120307  0.08300663  0.81230696  1
  O  O352  1  0.69289654  0.41652835  0.06215251  1
  O  O353  1  0.69367744  0.41702374  0.31207613  1
  O  O354  1  0.69481224  0.41683386  0.56149932  1
  O  O355  1  0.69434837  0.41669899  0.81142933  1
  O  O356  1  0.69129891  0.75063177  0.06295398  1
  O  O357  1  0.69125539  0.74972516  0.31264688  1
  O  O358  1  0.69396302  0.74997266  0.56123740  1
  O  O359  1  0.69442620  0.75028987  0.81151819  1
  O  O360  1  0.30790249  0.24976154  0.18744145  1
  O  O361  1  0.30498273  0.24980607  0.43778537  1
  O  O362  1  0.30722569  0.24941560  0.68836177  1
  O  O363  1  0.30956977  0.24955687  0.93802875  1
  O  O364  1  0.30927866  0.58409338  0.18806494  1
  O  O365  1  0.30777743  0.58421936  0.43665722  1
  O  O366  1  0.30481984  0.58368474  0.68785947  1
  O  O367  1  0.30713464  0.58359713  0.93914818  1
  O  O368  1  0.30932643  0.91615566  0.18744158  1
  O  O369  1  0.30521840  0.91640764  0.43805451  1
  O  O370  1  0.30639219  0.91697465  0.68855373  1
  O  O371  1  0.30964684  0.91702267  0.93785815  1
  O  O372  1  0.81023135  0.24998986  0.18831925  1
  O  O373  1  0.80964638  0.24988343  0.43672182  1
  O  O374  1  0.80525793  0.24970680  0.68798953  1
  O  O375  1  0.80576091  0.24983659  0.93945038  1
  O  O376  1  0.80569257  0.58331061  0.18907386  1
  O  O377  1  0.81025843  0.58285081  0.43729477  1
  O  O378  1  0.80879059  0.58376582  0.68675122  1
  O  O379  1  0.80577669  0.58361997  0.93830261  1
  O  O380  1  0.80878282  0.91722320  0.18792976  1
  O  O381  1  0.80991082  0.91727576  0.43736098  1
  O  O382  1  0.80855417  0.91619573  0.68649081  1
  O  O383  1  0.80590903  0.91649447  0.93881585  1
  O  O384  1  0.23411335  0.24994171  0.03842073  1
  O  O385  1  0.23300033  0.25039085  0.28779532  1
  O  O386  1  0.23123934  0.25038966  0.53910401  1
  O  O387  1  0.23515500  0.25065472  0.79069354  1
  O  O388  1  0.23487607  0.58325034  0.04125610  1
  O  O389  1  0.23382626  0.58323539  0.28818289  1
  O  O390  1  0.23227231  0.58289148  0.53674545  1
  O  O391  1  0.23215870  0.58381378  0.79014221  1
  O  O392  1  0.23566240  0.91672954  0.03917161  1
  O  O393  1  0.23428889  0.91665676  0.28775151  1
  O  O394  1  0.23065653  0.91669150  0.53903568  1
  O  O395  1  0.23440802  0.91603626  0.79095618  1
  O  O396  1  0.73384790  0.24981363  0.04204264  1
  O  O397  1  0.73565100  0.25054750  0.28862823  1
  O  O398  1  0.73395357  0.25020387  0.53688658  1
  O  O399  1  0.73179782  0.25007859  0.78970660  1
  O  O400  1  0.73177009  0.58411545  0.03955835  1
  O  O401  1  0.73262743  0.58375608  0.29078270  1
  O  O402  1  0.73656593  0.58286163  0.53837262  1
  O  O403  1  0.73385008  0.58341575  0.78758823  1
  O  O404  1  0.73404850  0.91669902  0.04160544  1
  O  O405  1  0.73541781  0.91588345  0.28918574  1
  O  O406  1  0.73600871  0.91642914  0.53842003  1
  O  O407  1  0.73501494  0.91643795  0.78834638  1
  O  O408  1  0.26634784  0.08389910  0.21243258  1
  O  O409  1  0.26466426  0.08348746  0.45862078  1
  O  O410  1  0.26696683  0.08334768  0.71004563  1
  O  O411  1  0.26680957  0.08356157  0.96017390  1
  O  O412  1  0.26656406  0.41667448  0.21294766  1
  O  O413  1  0.26631941  0.41680456  0.45937232  1
  O  O414  1  0.26790495  0.41711708  0.70989592  1
  O  O415  1  0.26683421  0.41712669  0.96025313  1
  O  O416  1  0.26630310  0.74951205  0.21077221  1
  O  O417  1  0.26398297  0.74981579  0.46106943  1
  O  O418  1  0.26571536  0.74969237  0.71140307  1
  O  O419  1  0.26762864  0.74982975  0.96099107  1
  O  O420  1  0.76588854  0.08342267  0.21295777  1
  O  O421  1  0.76532045  0.08348883  0.46072192  1
  O  O422  1  0.76615535  0.08345418  0.71165758  1
  O  O423  1  0.76730193  0.08324227  0.96073115  1
  O  O424  1  0.76658013  0.41802690  0.21029225  1
  O  O425  1  0.76888937  0.41698735  0.46043912  1
  O  O426  1  0.76796266  0.41638586  0.70984974  1
  O  O427  1  0.76577099  0.41676495  0.96012247  1
  O  O428  1  0.76585480  0.74952053  0.21226863  1
  O  O429  1  0.76851861  0.74952708  0.46089741  1
  O  O430  1  0.76875287  0.74936952  0.71037138  1
  O  O431  1  0.76672620  0.74986977  0.96257583  1
  O  O432  1  0.01501357  0.08330428  0.16341752  1
  O  O433  1  0.01809119  0.08394306  0.41495433  1
  O  O434  1  0.01534588  0.08283251  0.66647513  1
  O  O435  1  0.01424421  0.08307264  0.91329193  1
  O  O436  1  0.01672777  0.41585518  0.16532265  1
  O  O437  1  0.01796640  0.41675260  0.41535309  1
  O  O438  1  0.01502973  0.41667084  0.66409331  1
  O  O439  1  0.01553813  0.41726796  0.91277664  1
  O  O440  1  0.01384639  0.75002098  0.16427179  1
  O  O441  1  0.01411445  0.74984988  0.41316712  1
  O  O442  1  0.01635050  0.74963539  0.66299992  1
  O  O443  1  0.01632441  0.74980065  0.91341824  1
  O  O444  1  0.51509548  0.08321131  0.16700677  1
  O  O445  1  0.51711755  0.08322546  0.41224130  1
  O  O446  1  0.51868419  0.08359101  0.66332285  1
  O  O447  1  0.51808285  0.08347587  0.91539623  1
  O  O448  1  0.51491148  0.41696230  0.16704642  1
  O  O449  1  0.51439279  0.41746601  0.41402063  1
  O  O450  1  0.51489827  0.41663605  0.66233914  1
  O  O451  1  0.51540510  0.41620416  0.91281027  1
  O  O452  1  0.51701073  0.74950155  0.16270989  1
  O  O453  1  0.51846143  0.74916073  0.41510709  1
  O  O454  1  0.51551302  0.75034843  0.66588239  1
  O  O455  1  0.51462730  0.75010855  0.91294959  1
  O  O456  1  0.48076322  0.25006956  0.08650369  1
  O  O457  1  0.48454423  0.25025801  0.33796833  1
  O  O458  1  0.48599071  0.24989720  0.58563345  1
  O  O459  1  0.48318502  0.24965380  0.83427276  1
  O  O460  1  0.48356501  0.58315060  0.08672987  1
  O  O461  1  0.48280123  0.58377135  0.33553563  1
  O  O462  1  0.48458551  0.58364638  0.58768404  1
  O  O463  1  0.48526901  0.58341874  0.83612283  1
  O  O464  1  0.48189326  0.91647108  0.08608703  1
  O  O465  1  0.48415494  0.91562407  0.33504020  1
  O  O466  1  0.48408367  0.91680019  0.58407950  1
  O  O467  1  0.48222745  0.91754142  0.83555270  1
  O  O468  1  0.98394910  0.24984278  0.08676684  1
  O  O469  1  0.98427217  0.25016218  0.33672090  1
  O  O470  1  0.98394409  0.25005256  0.58533654  1
  O  O471  1  0.98401508  0.24990486  0.83715544  1
  O  O472  1  0.98404465  0.58364408  0.08705312  1
  O  O473  1  0.98331883  0.58266318  0.33705748  1
  O  O474  1  0.98392132  0.58416247  0.58732355  1
  O  O475  1  0.98458334  0.58370181  0.83417730  1
  O  O476  1  0.98096664  0.91659894  0.08521825  1
  O  O477  1  0.98221404  0.91673486  0.33714835  1
  O  O478  1  0.98216681  0.91646120  0.58545684  1
  O  O479  1  0.98319534  0.91533481  0.83538275  1
  O  O480  1  0.08790986  0.31470885  0.07660744  1
  O  O481  1  0.08791128  0.31554335  0.32741361  1
  O  O482  1  0.08789565  0.31506061  0.57716580  1
  O  O483  1  0.08744644  0.31515750  0.82770451  1
  O  O484  1  0.08763888  0.64844879  0.07791627  1
  O  O485  1  0.08728764  0.64711407  0.32695168  1
  O  O486  1  0.08768982  0.64931983  0.57759682  1
  O  O487  1  0.08803400  0.64994968  0.82727301  1
  O  O488  1  0.08497483  0.98139198  0.07680500  1
  O  O489  1  0.08558719  0.98266294  0.32743513  1
  O  O490  1  0.08660945  0.98039453  0.57714175  1
  O  O491  1  0.08678496  0.98037687  0.82735131  1
  O  O492  1  0.58432792  0.31541010  0.07748946  1
  O  O493  1  0.58787430  0.31534505  0.32787529  1
  O  O494  1  0.58984458  0.31457093  0.57634493  1
  O  O495  1  0.58735706  0.31386565  0.82598415  1
  O  O496  1  0.58717452  0.64899360  0.07720662  1
  O  O497  1  0.58695284  0.64903189  0.32739652  1
  O  O498  1  0.58836558  0.64846781  0.57796866  1
  O  O499  1  0.58917641  0.64844919  0.82702528  1
  O  O500  1  0.58579050  0.98100677  0.07752587  1
  O  O501  1  0.58773308  0.98112550  0.32752049  1
  O  O502  1  0.58801540  0.98209971  0.57786491  1
  O  O503  1  0.58638303  0.98257036  0.82805394  1
  O  O504  1  0.41095836  0.01832907  0.17314872  1
  O  O505  1  0.41354394  0.01815385  0.42276817  1
  O  O506  1  0.41484653  0.01848571  0.67211924  1
  O  O507  1  0.41376352  0.01900916  0.92202804  1
  O  O508  1  0.41081771  0.35192700  0.17329053  1
  O  O509  1  0.41024704  0.35328853  0.42349071  1
  O  O510  1  0.41120191  0.35164073  0.67197306  1
  O  O511  1  0.41189504  0.35075444  0.92047372  1
  O  O512  1  0.41352813  0.68434791  0.17212753  1
  O  O513  1  0.41451189  0.68359901  0.42298201  1
  O  O514  1  0.41160873  0.68503530  0.67370380  1
  O  O515  1  0.41081006  0.68570121  0.92277628  1
  O  O516  1  0.91127094  0.01851551  0.17155543  1
  O  O517  1  0.91399968  0.01912540  0.42244714  1
  O  O518  1  0.91140398  0.01741125  0.67242180  1
  O  O519  1  0.91034642  0.01842130  0.92254526  1
  O  O520  1  0.91304654  0.35061111  0.17214265  1
  O  O521  1  0.91409196  0.35129098  0.42316483  1
  O  O522  1  0.91071225  0.35281597  0.67307023  1
  O  O523  1  0.91200156  0.35204093  0.92237552  1
  O  O524  1  0.90976335  0.68581374  0.17307701  1
  O  O525  1  0.91102953  0.68397808  0.42215384  1
  O  O526  1  0.91256861  0.68482862  0.67251102  1
  O  O527  1  0.91280788  0.68418326  0.92321005  1
  O  O528  1  0.16286249  0.01887485  0.20200555  1
  O  O529  1  0.16076812  0.01798160  0.45179500  1
  O  O530  1  0.16310992  0.01819643  0.70290021  1
  O  O531  1  0.16287863  0.01887073  0.95263024  1
  O  O532  1  0.16288727  0.35194074  0.20326915  1
  O  O533  1  0.16234357  0.35157351  0.45176737  1
  O  O534  1  0.16374461  0.35281510  0.70233730  1
  O  O535  1  0.16369749  0.35052264  0.95294265  1
  O  O536  1  0.16271908  0.68368991  0.20291978  1
  O  O537  1  0.16018738  0.68499935  0.45344784  1
  O  O538  1  0.16200942  0.68400706  0.70269725  1
  O  O539  1  0.16335138  0.68536247  0.95202452  1
  O  O540  1  0.66261897  0.01808637  0.20278985  1
  O  O541  1  0.66136451  0.01899433  0.45194538  1
  O  O542  1  0.66233689  0.01886416  0.70187635  1
  O  O543  1  0.66341184  0.01826402  0.95187005  1
  O  O544  1  0.66290019  0.35303650  0.20234587  1
  O  O545  1  0.66516321  0.35120214  0.45205718  1
  O  O546  1  0.66387695  0.35171099  0.70224256  1
  O  O547  1  0.66190995  0.35204733  0.95289394  1
  O  O548  1  0.66226696  0.68354981  0.20301063  1
  O  O549  1  0.66437419  0.68477268  0.45165399  1
  O  O550  1  0.66488871  0.68423981  0.70221440  1
  O  O551  1  0.66287077  0.68486043  0.95316332  1
  O  O552  1  0.33788516  0.31487551  0.04806765  1
  O  O553  1  0.33693000  0.31494937  0.29728861  1
  O  O554  1  0.33520401  0.31576123  0.54669060  1
  O  O555  1  0.33895308  0.31613949  0.79686191  1
  O  O556  1  0.33828988  0.64972484  0.04814077  1
  O  O557  1  0.33769700  0.64788184  0.29874134  1
  O  O558  1  0.33581251  0.64780962  0.54737199  1
  O  O559  1  0.33616723  0.64848811  0.79710524  1
  O  O560  1  0.33997228  0.98053895  0.04785390  1
  O  O561  1  0.33756928  0.98254016  0.29708840  1
  O  O562  1  0.33461992  0.98175970  0.54746002  1
  O  O563  1  0.33867081  0.98064843  0.79808642  1
  O  O564  1  0.83850421  0.31367819  0.04860456  1
  O  O565  1  0.83972039  0.31515389  0.29811170  1
  O  O566  1  0.83744664  0.31567558  0.54662216  1
  O  O567  1  0.83577642  0.31504930  0.79727084  1
  O  O568  1  0.83567783  0.64908541  0.04768641  1
  O  O569  1  0.83664732  0.64929195  0.29799738  1
  O  O570  1  0.84012236  0.64822420  0.54715102  1
  O  O571  1  0.83743474  0.64837546  0.79695082  1
  O  O572  1  0.83791815  0.98193165  0.04771844  1
  O  O573  1  0.83931081  0.98058823  0.29839810  1
  O  O574  1  0.83987185  0.98090504  0.54756904  1
  O  O575  1  0.83844070  0.98154845  0.79596756  1
  O  O576  1  0.41116201  0.14856069  0.17372606  1
  O  O577  1  0.41363834  0.14836178  0.42325531  1
  O  O578  1  0.41498706  0.14859979  0.67223506  1
  O  O579  1  0.41440618  0.14909967  0.92209823  1
  O  O580  1  0.41097840  0.48212491  0.17288292  1
  O  O581  1  0.41094539  0.48348665  0.42238537  1
  O  O582  1  0.41116642  0.48169715  0.67254259  1
  O  O583  1  0.41198451  0.48109256  0.92172746  1
  O  O584  1  0.41333680  0.81450975  0.17211519  1
  O  O585  1  0.41421005  0.81363788  0.42321460  1
  O  O586  1  0.41112108  0.81501679  0.67268877  1
  O  O587  1  0.41112246  0.81589582  0.92158415  1
  O  O588  1  0.91184578  0.14884807  0.17176707  1
  O  O589  1  0.91444255  0.14922543  0.42266307  1
  O  O590  1  0.91124889  0.14757352  0.67371108  1
  O  O591  1  0.91063427  0.14831658  0.92314070  1
  O  O592  1  0.91307451  0.48086852  0.17289092  1
  O  O593  1  0.91360967  0.48134188  0.42304093  1
  O  O594  1  0.91181221  0.48302264  0.67208110  1
  O  O595  1  0.91207238  0.48219595  0.92231670  1
  O  O596  1  0.91029712  0.81593041  0.17193714  1
  O  O597  1  0.91014675  0.81424552  0.42166204  1
  O  O598  1  0.91266555  0.81493591  0.67209453  1
  O  O599  1  0.91186053  0.81396747  0.92280849  1
  O  O600  1  0.08767294  0.18475558  0.07669990  1
  O  O601  1  0.08812257  0.18527855  0.32737783  1
  O  O602  1  0.08792274  0.18508803  0.57752088  1
  O  O603  1  0.08765864  0.18495573  0.82800107  1
  O  O604  1  0.08750519  0.51833155  0.07788746  1
  O  O605  1  0.08718913  0.51711111  0.32761452  1
  O  O606  1  0.08761711  0.51924011  0.57692756  1
  O  O607  1  0.08901391  0.51984729  0.82639620  1
  O  O608  1  0.08476800  0.85139536  0.07689464  1
  O  O609  1  0.08597500  0.85248406  0.32708458  1
  O  O610  1  0.08562900  0.85036246  0.57681105  1
  O  O611  1  0.08694150  0.85012467  0.82797275  1
  O  O612  1  0.58479812  0.18533075  0.07797514  1
  O  O613  1  0.58821363  0.18500711  0.32859353  1
  O  O614  1  0.58989622  0.18444372  0.57772631  1
  O  O615  1  0.58714098  0.18383692  0.82741412  1
  O  O616  1  0.58761116  0.51890854  0.07715585  1
  O  O617  1  0.58676315  0.51906259  0.32665199  1
  O  O618  1  0.58792346  0.51836031  0.57732047  1
  O  O619  1  0.58911112  0.51844919  0.82678143  1
  O  O620  1  0.58548155  0.85078520  0.07708703  1
  O  O621  1  0.58800214  0.85066947  0.32791155  1
  O  O622  1  0.58801046  0.85194429  0.57742352  1
  O  O623  1  0.58594114  0.85247927  0.82699309  1
  O  O624  1  0.33779196  0.18483870  0.04823766  1
  O  O625  1  0.33632408  0.18476260  0.29777494  1
  O  O626  1  0.33524111  0.18562327  0.54743009  1
  O  O627  1  0.33927090  0.18601783  0.79813149  1
  O  O628  1  0.33948064  0.51971030  0.04849837  1
  O  O629  1  0.33753904  0.51785330  0.29773718  1
  O  O630  1  0.33600612  0.51768898  0.54616337  1
  O  O631  1  0.33603761  0.51841745  0.79701508  1
  O  O632  1  0.33889704  0.85031299  0.04721156  1
  O  O633  1  0.33795100  0.85211372  0.29774900  1
  O  O634  1  0.33458092  0.85161491  0.54752980  1
  O  O635  1  0.33817929  0.85048431  0.79705678  1
  O  O636  1  0.83740632  0.18358038  0.04813184  1
  O  O637  1  0.83927700  0.18525175  0.29864317  1
  O  O638  1  0.83731316  0.18549476  0.54722765  1
  O  O639  1  0.83557043  0.18488203  0.79740638  1
  O  O640  1  0.83550366  0.51901720  0.04802002  1
  O  O641  1  0.83724484  0.51953557  0.29869891  1
  O  O642  1  0.84055492  0.51804199  0.54701241  1
  O  O643  1  0.83723664  0.51806823  0.79651167  1
  O  O644  1  0.83806721  0.85167593  0.04774852  1
  O  O645  1  0.83912621  0.85047307  0.29677042  1
  O  O646  1  0.83957809  0.85072954  0.54666646  1
  O  O647  1  0.83849386  0.85111738  0.79615018  1
  O  O648  1  0.16274589  0.14918579  0.20288258  1
  O  O649  1  0.16059786  0.14828088  0.45217785  1
  O  O650  1  0.16304572  0.14830929  0.70296121  1
  O  O651  1  0.16312084  0.14919488  0.95318777  1
  O  O652  1  0.16323974  0.48228825  0.20335729  1
  O  O653  1  0.16216560  0.48163602  0.45154919  1
  O  O654  1  0.16420571  0.48287526  0.70248551  1
  O  O655  1  0.16244615  0.48075061  0.95321321  1
  O  O656  1  0.16240754  0.81404346  0.20206306  1
  O  O657  1  0.16053032  0.81537412  0.45295561  1
  O  O658  1  0.16149749  0.81397155  0.70210922  1
  O  O659  1  0.16389353  0.81536119  0.95165695  1
  O  O660  1  0.66228676  0.14830881  0.20302583  1
  O  O661  1  0.66159581  0.14915254  0.45278457  1
  O  O662  1  0.66252492  0.14907069  0.70263666  1
  O  O663  1  0.66315968  0.14829082  0.95232890  1
  O  O664  1  0.66263275  0.48328554  0.20356892  1
  O  O665  1  0.66463319  0.48121307  0.45210012  1
  O  O666  1  0.66443874  0.48195593  0.70183517  1
  O  O667  1  0.66223706  0.48241615  0.95309886  1
  O  O668  1  0.66183067  0.81360339  0.20201235  1
  O  O669  1  0.66467259  0.81470275  0.45126832  1
  O  O670  1  0.66505891  0.81442284  0.70175070  1
  O  O671  1  0.66333441  0.81500160  0.95248278  1
