# generated using pymatgen
data_Na2MnFe(PO4)2
_symmetry_space_group_name_H-M   'P 1'
_cell_length_a   21.07361725
_cell_length_b   18.92383914
_cell_length_c   20.03354582
_cell_angle_alpha   90.00021161
_cell_angle_beta   90.00257913
_cell_angle_gamma   90.00000902
_symmetry_Int_Tables_number   1
_chemical_formula_structural   Na2MnFe(PO4)2
_chemical_formula_sum   'Na96 Mn48 Fe48 P96 O384'
_cell_volume   7989.25271229
_cell_formula_units_Z   48
loop_
 _symmetry_equiv_pos_site_id
 _symmetry_equiv_pos_as_xyz
  1  'x, y, z'
loop_
 _atom_site_type_symbol
 _atom_site_label
 _atom_site_symmetry_multiplicity
 _atom_site_fract_x
 _atom_site_fract_y
 _atom_site_fract_z
 _atom_site_occupancy
  Na  Na0  1  0.00322560  0.00129446  -0.00050350  1
  Na  Na1  1  0.00048599  0.00025654  0.25061637  1
  Na  Na2  1  -0.00125117  -0.00033436  0.49997626  1
  Na  Na3  1  -0.00013700  -0.00063665  0.75035181  1
  Na  Na4  1  0.00114588  0.33276242  -0.00066723  1
  Na  Na5  1  0.00008458  0.33237303  0.24972237  1
  Na  Na6  1  0.00044578  0.33332389  0.50129367  1
  Na  Na7  1  0.00130504  0.33371983  0.75023677  1
  Na  Na8  1  -0.00126298  0.66625466  0.00050700  1
  Na  Na9  1  0.00000125  0.66671164  0.25029081  1
  Na  Na10  1  0.00226524  0.66753346  0.49855280  1
  Na  Na11  1  0.00057789  0.66665380  0.75013116  1
  Na  Na12  1  0.49864911  0.00032580  -0.00013813  1
  Na  Na13  1  0.50130696  0.00030220  0.24901587  1
  Na  Na14  1  0.49968568  0.00032314  0.49978240  1
  Na  Na15  1  0.49722292  0.00027573  0.74999644  1
  Na  Na16  1  0.49914645  0.33264186  0.00107762  1
  Na  Na17  1  0.50210886  0.33391332  0.25030461  1
  Na  Na18  1  0.50009649  0.33292255  0.49968259  1
  Na  Na19  1  0.50044348  0.33342659  0.74906582  1
  Na  Na20  1  0.49945190  0.66678452  -0.00040751  1
  Na  Na21  1  0.49799308  0.66535242  0.25059374  1
  Na  Na22  1  0.50045914  0.66692179  0.50124302  1
  Na  Na23  1  0.49842078  0.66591976  0.74940840  1
  Na  Na24  1  0.24840192  0.00014806  0.12545813  1
  Na  Na25  1  0.24946043  0.00008483  0.37432774  1
  Na  Na26  1  0.25046343  0.00015497  0.62573300  1
  Na  Na27  1  0.24931658  -0.00004149  0.87518392  1
  Na  Na28  1  0.25024393  0.33356099  0.12450018  1
  Na  Na29  1  0.24978031  0.33290594  0.37553538  1
  Na  Na30  1  0.25137434  0.33390508  0.62529954  1
  Na  Na31  1  0.24911361  0.33235301  0.87391063  1
  Na  Na32  1  0.25023112  0.66625019  0.12547292  1
  Na  Na33  1  0.24866594  0.66621834  0.37584657  1
  Na  Na34  1  0.24945024  0.66634244  0.62389014  1
  Na  Na35  1  0.25197529  0.66762891  0.87530766  1
  Na  Na36  1  0.74977063  0.00019008  0.12520832  1
  Na  Na37  1  0.75031261  0.00010374  0.37562129  1
  Na  Na38  1  0.75228300  0.00091973  0.62449304  1
  Na  Na39  1  0.75020642  0.00017832  0.87466869  1
  Na  Na40  1  0.74976991  0.33314124  0.12598879  1
  Na  Na41  1  0.74713525  0.33225062  0.37434702  1
  Na  Na42  1  0.74754967  0.33250845  0.62392013  1
  Na  Na43  1  0.75004935  0.33342948  0.87620133  1
  Na  Na44  1  0.75232582  0.66816325  0.12531094  1
  Na  Na45  1  0.75093030  0.66727242  0.37525595  1
  Na  Na46  1  0.74810664  0.66516566  0.62509708  1
  Na  Na47  1  0.75016639  0.66603635  0.87371892  1
  Na  Na48  1  0.00195907  0.16651881  -0.00055257  1
  Na  Na49  1  0.00032517  0.16723317  0.25024603  1
  Na  Na50  1  -0.00116538  0.16767569  0.49999910  1
  Na  Na51  1  0.00170869  0.16637352  0.75042845  1
  Na  Na52  1  0.00125154  0.49860992  -0.00062261  1
  Na  Na53  1  0.00056372  0.49936062  0.25064500  1
  Na  Na54  1  -0.00012443  0.49947863  0.50018216  1
  Na  Na55  1  -0.00185179  0.50043391  0.74970995  1
  Na  Na56  1  0.00072186  0.83398584  0.00071070  1
  Na  Na57  1  0.00031558  0.83382600  0.24969497  1
  Na  Na58  1  0.00191791  0.83332675  0.49942608  1
  Na  Na59  1  0.00192469  0.83348570  0.75061404  1
  Na  Na60  1  0.49911029  0.16675838  0.00034079  1
  Na  Na61  1  0.50241831  0.16517384  0.24982234  1
  Na  Na62  1  0.50021440  0.16631363  0.50081383  1
  Na  Na63  1  0.49669945  0.16771248  0.74929487  1
  Na  Na64  1  0.49801092  0.50005052  0.00025542  1
  Na  Na65  1  0.49971322  0.49920864  0.25035382  1
  Na  Na66  1  0.50151511  0.49929714  0.49996999  1
  Na  Na67  1  0.50071394  0.49921005  0.74885443  1
  Na  Na68  1  0.49905293  0.83418462  -0.00043559  1
  Na  Na69  1  0.50159977  0.83323677  0.25009078  1
  Na  Na70  1  0.49784416  0.83454744  0.49968694  1
  Na  Na71  1  0.49841500  0.83364175  0.75028247  1
  Na  Na72  1  0.24745634  0.16793537  0.12421606  1
  Na  Na73  1  0.25030817  0.16682315  0.37533260  1
  Na  Na74  1  0.25338776  0.16575646  0.62566633  1
  Na  Na75  1  0.25051851  0.16658843  0.87511680  1
  Na  Na76  1  0.25156845  0.49897726  0.12525912  1
  Na  Na77  1  0.25122116  0.49867366  0.37494746  1
  Na  Na78  1  0.24924310  0.50028201  0.62511884  1
  Na  Na79  1  0.25139401  0.49953964  0.87470239  1
  Na  Na80  1  0.24913533  0.83387075  0.12611504  1
  Na  Na81  1  0.24676299  0.83473584  0.37529876  1
  Na  Na82  1  0.24899600  0.83339674  0.62410786  1
  Na  Na83  1  0.24843027  0.83445279  0.87460762  1
  Na  Na84  1  0.75041780  0.16621789  0.12561711  1
  Na  Na85  1  0.74945966  0.16682161  0.37428717  1
  Na  Na86  1  0.74786807  0.16765163  0.62370162  1
  Na  Na87  1  0.75023583  0.16664817  0.87612098  1
  Na  Na88  1  0.74820499  0.49996700  0.12579429  1
  Na  Na89  1  0.74734100  0.50039999  0.37534303  1
  Na  Na90  1  0.74895248  0.49946883  0.62492967  1
  Na  Na91  1  0.74883988  0.49960792  0.87480363  1
  Na  Na92  1  0.75207307  0.83350493  0.12512410  1
  Na  Na93  1  0.75076681  0.83401738  0.37569737  1
  Na  Na94  1  0.75146682  0.83343073  0.62476322  1
  Na  Na95  1  0.75193542  0.83357622  0.87356979  1
  Mn  Mn96  1  0.39096046  0.91682958  0.87786283  1
  Mn  Mn97  1  0.64210395  0.91641178  0.49822556  1
  Mn  Mn98  1  0.10736763  0.41742732  0.62285163  1
  Mn  Mn99  1  0.14272095  0.58258479  0.24788548  1
  Mn  Mn100  1  0.39283237  0.24978285  0.37671797  1
  Mn  Mn101  1  0.60680996  0.08371289  0.87240997  1
  Mn  Mn102  1  0.14298299  0.24987204  0.49840663  1
  Mn  Mn103  1  0.85667783  0.41667695  0.50143854  1
  Mn  Mn104  1  0.39206262  0.91647753  0.37668373  1
  Mn  Mn105  1  0.64223442  0.24974783  0.99797574  1
  Mn  Mn106  1  0.89289352  0.91788468  0.12744045  1
  Mn  Mn107  1  0.89166338  0.58317563  0.87721095  1
  Mn  Mn108  1  0.85721622  0.41647693  0.25282424  1
  Mn  Mn109  1  0.14228027  0.58355532  0.74756134  1
  Mn  Mn110  1  0.10843423  0.74940642  0.87288461  1
  Mn  Mn111  1  0.89302094  0.24985181  0.87637988  1
  Mn  Mn112  1  0.64188523  0.58409837  0.99762013  1
  Mn  Mn113  1  0.64182014  0.58437298  0.24774036  1
  Mn  Mn114  1  0.14271908  0.58316285  0.99734743  1
  Mn  Mn115  1  0.85892239  0.08309648  0.00247255  1
  Mn  Mn116  1  0.64233016  0.91717849  0.74709447  1
  Mn  Mn117  1  0.35637884  0.75003970  0.50194766  1
  Mn  Mn118  1  0.89107890  0.25008305  0.62817908  1
  Mn  Mn119  1  0.10747829  0.75001828  0.12272510  1
  Mn  Mn120  1  0.60715075  0.75059402  0.62302171  1
  Mn  Mn121  1  0.89194401  0.58227096  0.12752562  1
  Mn  Mn122  1  0.85850047  0.74954810  0.75176744  1
  Mn  Mn123  1  0.85825217  0.41687356  0.00245623  1
  Mn  Mn124  1  0.60854951  0.75015567  0.12242170  1
  Mn  Mn125  1  0.35797211  0.75062922  0.00295382  1
  Mn  Mn126  1  0.39200937  0.24923394  0.12774630  1
  Mn  Mn127  1  0.60776047  0.74997978  0.87239241  1
  Mn  Mn128  1  0.10857255  0.41617070  0.12257983  1
  Mn  Mn129  1  0.35824819  0.41708997  0.75245230  1
  Mn  Mn130  1  0.60708779  0.41636566  0.87294303  1
  Mn  Mn131  1  0.35737833  0.75006315  0.25289757  1
  Mn  Mn132  1  0.35740904  0.08399862  0.25186820  1
  Mn  Mn133  1  0.39208612  0.58374648  0.12761967  1
  Mn  Mn134  1  0.39224607  0.58345724  0.62687264  1
  Mn  Mn135  1  0.85749961  0.08387742  0.50215210  1
  Mn  Mn136  1  0.10814500  0.08309937  0.62260172  1
  Mn  Mn137  1  0.64229242  0.91610172  0.99768831  1
  Mn  Mn138  1  0.89257956  0.58260151  0.37765275  1
  Mn  Mn139  1  0.60778344  0.75035091  0.37255582  1
  Mn  Mn140  1  0.10769954  0.08408976  0.37308490  1
  Mn  Mn141  1  0.85868100  0.74917967  0.50273516  1
  Mn  Mn142  1  0.60684433  0.08292250  0.62364030  1
  Mn  Mn143  1  0.89358325  0.91698130  0.87693464  1
  Fe  Fe144  1  0.89319584  0.91699522  0.37646125  1
  Fe  Fe145  1  0.14205065  0.25015498  0.24855377  1
  Fe  Fe146  1  0.85750795  0.08463906  0.75149651  1
  Fe  Fe147  1  0.85798694  0.75010734  0.00128449  1
  Fe  Fe148  1  0.60750513  0.08304701  0.12285666  1
  Fe  Fe149  1  0.89377404  0.91620856  0.62654457  1
  Fe  Fe150  1  0.35659280  0.08283508  0.75225497  1
  Fe  Fe151  1  0.14321954  0.91687994  0.74756805  1
  Fe  Fe152  1  0.39183590  0.25082426  0.87682953  1
  Fe  Fe153  1  0.39324399  0.24999035  0.62655078  1
  Fe  Fe154  1  0.39089475  0.91686378  0.62640026  1
  Fe  Fe155  1  0.64351729  0.91704445  0.24829366  1
  Fe  Fe156  1  0.39266024  0.58277354  0.87636986  1
  Fe  Fe157  1  0.35694537  0.41590498  0.00141474  1
  Fe  Fe158  1  0.14389759  0.24971709  0.74800717  1
  Fe  Fe159  1  0.10804027  0.41639869  0.37363602  1
  Fe  Fe160  1  0.60653941  0.41644098  0.12336592  1
  Fe  Fe161  1  0.10808247  0.41665740  0.87276819  1
  Fe  Fe162  1  0.35819297  0.08344334  0.50109782  1
  Fe  Fe163  1  0.89356140  0.24978622  0.12672393  1
  Fe  Fe164  1  0.39249613  0.91681251  0.12706382  1
  Fe  Fe165  1  0.10695201  0.74976750  0.37271599  1
  Fe  Fe166  1  0.64324438  0.24893000  0.24795363  1
  Fe  Fe167  1  0.39258032  0.58308247  0.37729727  1
  Fe  Fe168  1  0.85738848  0.08311835  0.25149139  1
  Fe  Fe169  1  0.14330575  0.91707075  0.99866492  1
  Fe  Fe170  1  0.60624867  0.41651553  0.37308513  1
  Fe  Fe171  1  0.14247232  0.91720735  0.49833738  1
  Fe  Fe172  1  0.64218558  0.58264482  0.74810184  1
  Fe  Fe173  1  0.10778350  0.74969195  0.62367927  1
  Fe  Fe174  1  0.10745888  0.08387960  0.12356265  1
  Fe  Fe175  1  0.64175993  0.24982679  0.74890560  1
  Fe  Fe176  1  0.35754448  0.41627452  0.50138319  1
  Fe  Fe177  1  0.14297696  0.25010083  0.99773199  1
  Fe  Fe178  1  0.14199303  0.91763747  0.24804794  1
  Fe  Fe179  1  0.35672854  0.75045378  0.75121660  1
  Fe  Fe180  1  0.60750648  0.41628208  0.62309575  1
  Fe  Fe181  1  0.60780029  0.08317544  0.37307790  1
  Fe  Fe182  1  0.35604511  0.08358379  0.00213237  1
  Fe  Fe183  1  0.64238363  0.58348101  0.49797450  1
  Fe  Fe184  1  0.10863414  0.08396817  0.87258090  1
  Fe  Fe185  1  0.14220914  0.58269321  0.49801295  1
  Fe  Fe186  1  0.89243141  0.58374703  0.62611100  1
  Fe  Fe187  1  0.64148216  0.24987063  0.49732627  1
  Fe  Fe188  1  0.89256325  0.25021316  0.37624705  1
  Fe  Fe189  1  0.35772812  0.41613930  0.25208583  1
  Fe  Fe190  1  0.85617788  0.41568529  0.75125779  1
  Fe  Fe191  1  0.85788479  0.75086513  0.25192167  1
  P  P192  1  0.05454910  0.24914990  0.11028591  1
  P  P193  1  0.05313252  0.25092396  0.35999150  1
  P  P194  1  0.05417972  0.24987636  0.61128265  1
  P  P195  1  0.05644003  0.25014172  0.86023952  1
  P  P196  1  0.05331584  0.58293284  0.10979655  1
  P  P197  1  0.05493257  0.58259017  0.36118002  1
  P  P198  1  0.05263635  0.58400040  0.60926414  1
  P  P199  1  0.05331732  0.58235122  0.85974673  1
  P  P200  1  0.05538785  0.91809315  0.11063926  1
  P  P201  1  0.05427818  0.91665749  0.36073009  1
  P  P202  1  0.05451290  0.91615745  0.61060615  1
  P  P203  1  0.05658822  0.91760837  0.86057853  1
  P  P204  1  0.55471742  0.24946823  0.11158979  1
  P  P205  1  0.55520492  0.24952605  0.36043925  1
  P  P206  1  0.55410816  0.25019556  0.61067019  1
  P  P207  1  0.55169919  0.24985972  0.85945926  1
  P  P208  1  0.55310666  0.58264366  0.11003480  1
  P  P209  1  0.55296595  0.58271538  0.36130672  1
  P  P210  1  0.55526019  0.58253795  0.61051349  1
  P  P211  1  0.55234883  0.58299453  0.85911861  1
  P  P212  1  0.55360064  0.91744852  0.11083577  1
  P  P213  1  0.55411252  0.91769294  0.35920821  1
  P  P214  1  0.55089212  0.91705365  0.61004643  1
  P  P215  1  0.55257921  0.91712250  0.85953929  1
  P  P216  1  0.44624571  0.08250600  0.13882934  1
  P  P217  1  0.44768318  0.08335981  0.39010309  1
  P  P218  1  0.44377076  0.08324759  0.63928334  1
  P  P219  1  0.44368538  0.08460321  0.88980185  1
  P  P220  1  0.44563058  0.41592368  0.13989327  1
  P  P221  1  0.44580944  0.41682664  0.38951703  1
  P  P222  1  0.44664973  0.41595318  0.63825053  1
  P  P223  1  0.44577411  0.41630682  0.89049702  1
  P  P224  1  0.44686180  0.75133393  0.14056422  1
  P  P225  1  0.44644118  0.74930029  0.39038827  1
  P  P226  1  0.44507025  0.75101189  0.64036836  1
  P  P227  1  0.44514015  0.74916596  0.88873832  1
  P  P228  1  0.94785456  0.08440713  0.14070036  1
  P  P229  1  0.94529206  0.08384820  0.38860087  1
  P  P230  1  0.94626148  0.08285209  0.64074600  1
  P  P231  1  0.94784383  0.08385000  0.88878503  1
  P  P232  1  0.94714276  0.41526541  0.14032042  1
  P  P233  1  0.94799477  0.41514785  0.39013415  1
  P  P234  1  0.94515428  0.41740879  0.64046457  1
  P  P235  1  0.94685989  0.41599133  0.88854910  1
  P  P236  1  0.94501517  0.75027037  0.13989494  1
  P  P237  1  0.94661604  0.75098801  0.38862202  1
  P  P238  1  0.94859240  0.74984146  0.63965056  1
  P  P239  1  0.94672307  0.75023746  0.89076849  1
  P  P240  1  0.19553011  0.08418946  0.23469079  1
  P  P241  1  0.19838190  0.08291439  0.48535414  1
  P  P242  1  0.19679449  0.08368641  0.73618320  1
  P  P243  1  0.19570038  0.08354430  0.98588722  1
  P  P244  1  0.19709151  0.41558962  0.23624014  1
  P  P245  1  0.19723319  0.41692080  0.48484241  1
  P  P246  1  0.19595376  0.41611233  0.73584837  1
  P  P247  1  0.19734077  0.41585514  0.98405154  1
  P  P248  1  0.19504460  0.75042561  0.23634685  1
  P  P249  1  0.19363629  0.75002845  0.48573737  1
  P  P250  1  0.19722341  0.75046341  0.73417820  1
  P  P251  1  0.19707952  0.75091680  0.98535892  1
  P  P252  1  0.69610532  0.08291599  0.23586553  1
  P  P253  1  0.69537960  0.08375967  0.48448601  1
  P  P254  1  0.69777601  0.08445706  0.73496278  1
  P  P255  1  0.69584984  0.08310647  0.98574679  1
  P  P256  1  0.69402089  0.41573962  0.23593613  1
  P  P257  1  0.69374207  0.41661631  0.48535019  1
  P  P258  1  0.69614805  0.41577576  0.73467566  1
  P  P259  1  0.69542986  0.41658734  0.98625668  1
  P  P260  1  0.69825057  0.75148103  0.23530326  1
  P  P261  1  0.69677887  0.74942447  0.48524061  1
  P  P262  1  0.69685919  0.74952457  0.73459195  1
  P  P263  1  0.69859234  0.75033740  0.98415633  1
  P  P264  1  0.30327012  0.25006522  0.01356145  1
  P  P265  1  0.30190991  0.25042056  0.26499001  1
  P  P266  1  0.30479775  0.25016250  0.51541147  1
  P  P267  1  0.30462378  0.24956978  0.76420440  1
  P  P268  1  0.30462275  0.58213373  0.01394473  1
  P  P269  1  0.30439118  0.58244481  0.26618432  1
  P  P270  1  0.30306596  0.58221737  0.51359309  1
  P  P271  1  0.30398177  0.58440456  0.76518770  1
  P  P272  1  0.30257589  0.91788661  0.01610382  1
  P  P273  1  0.30254804  0.91719670  0.26406261  1
  P  P274  1  0.30235382  0.91741939  0.51499134  1
  P  P275  1  0.30302424  0.91635093  0.76365340  1
  P  P276  1  0.80459016  0.24982561  0.01620729  1
  P  P277  1  0.80419495  0.24891124  0.26417863  1
  P  P278  1  0.80256348  0.25044260  0.51336280  1
  P  P279  1  0.80142745  0.25021691  0.76503132  1
  P  P280  1  0.80310026  0.58380910  0.01519290  1
  P  P281  1  0.80321333  0.58377078  0.26556964  1
  P  P282  1  0.80244369  0.58279479  0.51560865  1
  P  P283  1  0.80320680  0.58169881  0.76319828  1
  P  P284  1  0.80409292  0.91634460  0.01482492  1
  P  P285  1  0.80359032  0.91762770  0.26557685  1
  P  P286  1  0.80564541  0.91658921  0.51463485  1
  P  P287  1  0.80549655  0.91796303  0.76336867  1
  O  O288  1  0.05880384  0.25015656  0.18703858  1
  O  O289  1  0.05698606  0.25024012  0.43673961  1
  O  O290  1  0.05933541  0.24961274  0.68797228  1
  O  O291  1  0.06002389  0.24999839  0.93715398  1
  O  O292  1  0.05668836  0.58300752  0.18662947  1
  O  O293  1  0.05864902  0.58230354  0.43799596  1
  O  O294  1  0.05624329  0.58314402  0.68601564  1
  O  O295  1  0.05665342  0.58278043  0.93653445  1
  O  O296  1  0.05885368  0.91727629  0.18752186  1
  O  O297  1  0.05869091  0.91779964  0.43750885  1
  O  O298  1  0.05937235  0.91705158  0.68737209  1
  O  O299  1  0.06032501  0.91709283  0.93742638  1
  O  O300  1  0.55886696  0.24909252  0.18836138  1
  O  O301  1  0.55791993  0.24938976  0.43738327  1
  O  O302  1  0.55843557  0.24964946  0.68742457  1
  O  O303  1  0.55604393  0.24951333  0.93617946  1
  O  O304  1  0.55609820  0.58341916  0.18687880  1
  O  O305  1  0.55767230  0.58373310  0.43799366  1
  O  O306  1  0.55920270  0.58299203  0.68734609  1
  O  O307  1  0.55600415  0.58326418  0.93589609  1
  O  O308  1  0.55897172  0.91675828  0.18748333  1
  O  O309  1  0.55675593  0.91684080  0.43603666  1
  O  O310  1  0.55521063  0.91721241  0.68673404  1
  O  O311  1  0.55623892  0.91715862  0.93634856  1
  O  O312  1  0.44069585  0.08350113  0.06220057  1
  O  O313  1  0.44365273  0.08346866  0.31336017  1
  O  O314  1  0.44061149  0.08288156  0.56239789  1
  O  O315  1  0.43947215  0.08353074  0.81291504  1
  O  O316  1  0.44063486  0.41555615  0.06321170  1
  O  O317  1  0.44132140  0.41597191  0.31274818  1
  O  O318  1  0.44194666  0.41664243  0.56158905  1
  O  O319  1  0.44365679  0.41607669  0.81355311  1
  O  O320  1  0.44375126  0.75101775  0.06370201  1
  O  O321  1  0.44347999  0.74985127  0.31358332  1
  O  O322  1  0.44195583  0.75042754  0.56354146  1
  O  O323  1  0.44086535  0.75020521  0.81200354  1
  O  O324  1  0.94481545  0.08347876  0.06389660  1
  O  O325  1  0.94161773  0.08368689  0.31184270  1
  O  O326  1  0.94307506  0.08420078  0.56388065  1
  O  O327  1  0.94219491  0.08408565  0.81219435  1
  O  O328  1  0.94426951  0.41593690  0.06348982  1
  O  O329  1  0.94395261  0.41571027  0.31343621  1
  O  O330  1  0.94202149  0.41624140  0.56366246  1
  O  O331  1  0.94115808  0.41592963  0.81194347  1
  O  O332  1  0.94109371  0.75038648  0.06308849  1
  O  O333  1  0.94166646  0.75057676  0.31190881  1
  O  O334  1  0.94541060  0.74984509  0.56287624  1
  O  O335  1  0.94359683  0.75024948  0.81389515  1
  O  O336  1  0.19147250  0.08394620  0.06260104  1
  O  O337  1  0.19300468  0.08405043  0.31153464  1
  O  O338  1  0.19483603  0.08346239  0.56207113  1
  O  O339  1  0.19281756  0.08372854  0.81292141  1
  O  O340  1  0.19408319  0.41653517  0.06088735  1
  O  O341  1  0.19218627  0.41597130  0.31289641  1
  O  O342  1  0.19339517  0.41678324  0.56159106  1
  O  O343  1  0.19209730  0.41690229  0.81257332  1
  O  O344  1  0.19387779  0.74979858  0.06215312  1
  O  O345  1  0.19096826  0.74999982  0.31319371  1
  O  O346  1  0.19041169  0.74964392  0.56261333  1
  O  O347  1  0.19404430  0.74968786  0.81093851  1
  O  O348  1  0.69127895  0.08312110  0.06255585  1
  O  O349  1  0.69188426  0.08301223  0.31258664  1
  O  O350  1  0.69215819  0.08305354  0.56128332  1
  O  O351  1  0.69400415  0.08366350  0.81170508  1
  O  O352  1  0.69084032  0.41640729  0.06301501  1
  O  O353  1  0.68984932  0.41663777  0.31277235  1
  O  O354  1  0.69057161  0.41617998  0.56221048  1
  O  O355  1  0.69307248  0.41595517  0.81148361  1
  O  O356  1  0.69483140  0.75059035  0.06094831  1
  O  O357  1  0.69410118  0.75066613  0.31200308  1
  O  O358  1  0.69330755  0.75027869  0.56199733  1
  O  O359  1  0.69388729  0.75034051  0.81140574  1
  O  O360  1  0.30559315  0.24995439  0.18823284  1
  O  O361  1  0.30736535  0.25008528  0.43859014  1
  O  O362  1  0.30931906  0.25061576  0.68751694  1
  O  O363  1  0.30748770  0.25011820  0.93688005  1
  O  O364  1  0.30717539  0.58320149  0.18928625  1
  O  O365  1  0.30801598  0.58277545  0.43694624  1
  O  O366  1  0.30661089  0.58318865  0.68830920  1
  O  O367  1  0.30854139  0.58298307  0.93718665  1
  O  O368  1  0.30778710  0.91698163  0.18743711  1
  O  O369  1  0.30588665  0.91686800  0.43823498  1
  O  O370  1  0.30709625  0.91646387  0.68693518  1
  O  O371  1  0.30576408  0.91702616  0.93928246  1
  O  O372  1  0.80919866  0.24965844  0.18755515  1
  O  O373  1  0.80800461  0.25053115  0.43673826  1
  O  O374  1  0.80436495  0.25004709  0.68822501  1
  O  O375  1  0.80810771  0.24981879  0.93937552  1
  O  O376  1  0.80630852  0.58280984  0.18877487  1
  O  O377  1  0.80674637  0.58297530  0.43886787  1
  O  O378  1  0.80807777  0.58291145  0.68654016  1
  O  O379  1  0.80575382  0.58247623  0.93829687  1
  O  O380  1  0.80713625  0.91778846  0.18882348  1
  O  O381  1  0.80991880  0.91655332  0.43784821  1
  O  O382  1  0.80985677  0.91684160  0.68656605  1
  O  O383  1  0.80740673  0.91748922  0.93803094  1
  O  O384  1  0.23293737  0.25018805  0.03762338  1
  O  O385  1  0.23198692  0.24975552  0.28988285  1
  O  O386  1  0.23513047  0.25006773  0.54093026  1
  O  O387  1  0.23424219  0.24966781  0.78785785  1
  O  O388  1  0.23478695  0.58243769  0.03889589  1
  O  O389  1  0.23462473  0.58268715  0.29104649  1
  O  O390  1  0.23266318  0.58292584  0.53733945  1
  O  O391  1  0.23435006  0.58359276  0.79051885  1
  O  O392  1  0.23244731  0.91733306  0.04050111  1
  O  O393  1  0.23210117  0.91779619  0.28750846  1
  O  O394  1  0.23220601  0.91672907  0.53949914  1
  O  O395  1  0.23281151  0.91696057  0.78796824  1
  O  O396  1  0.73467599  0.24964786  0.04068083  1
  O  O397  1  0.73358004  0.24915561  0.28733071  1
  O  O398  1  0.73197839  0.25019531  0.53634299  1
  O  O399  1  0.73165446  0.25022115  0.79063802  1
  O  O400  1  0.73364422  0.58402567  0.04104459  1
  O  O401  1  0.73341961  0.58374628  0.29055735  1
  O  O402  1  0.73220939  0.58254673  0.53937652  1
  O  O403  1  0.73282351  0.58219860  0.78711796  1
  O  O404  1  0.73446791  0.91678404  0.04014140  1
  O  O405  1  0.73344967  0.91752683  0.29011469  1
  O  O406  1  0.73546045  0.91697250  0.53853754  1
  O  O407  1  0.73545413  0.91736254  0.78763901  1
  O  O408  1  0.26515447  0.08413964  0.20916622  1
  O  O409  1  0.26834600  0.08334623  0.46033932  1
  O  O410  1  0.26709429  0.08329055  0.71215194  1
  O  O411  1  0.26603862  0.08347091  0.96180739  1
  O  O412  1  0.26740167  0.41615378  0.21229958  1
  O  O413  1  0.26744960  0.41583675  0.46065865  1
  O  O414  1  0.26600143  0.41685685  0.71146778  1
  O  O415  1  0.26736674  0.41574226  0.95935934  1
  O  O416  1  0.26501913  0.74993215  0.21195359  1
  O  O417  1  0.26363527  0.75048271  0.46107524  1
  O  O418  1  0.26711586  0.74996898  0.70910203  1
  O  O419  1  0.26671571  0.75138365  0.96013036  1
  O  O420  1  0.76653726  0.08310595  0.21193213  1
  O  O421  1  0.76525596  0.08371493  0.45980975  1
  O  O422  1  0.76765509  0.08451861  0.70985788  1
  O  O423  1  0.76601108  0.08344441  0.96200380  1
  O  O424  1  0.76424735  0.41625130  0.21217010  1
  O  O425  1  0.76363668  0.41656801  0.46036245  1
  O  O426  1  0.76603328  0.41567588  0.70940850  1
  O  O427  1  0.76546449  0.41638491  0.96213261  1
  O  O428  1  0.76846248  0.75131324  0.21118065  1
  O  O429  1  0.76660906  0.74986510  0.46043192  1
  O  O430  1  0.76659247  0.74937925  0.70936868  1
  O  O431  1  0.76846930  0.74999197  0.95918316  1
  O  O432  1  0.01783935  0.08386904  0.16553606  1
  O  O433  1  0.01518590  0.08409137  0.41365141  1
  O  O434  1  0.01612061  0.08310475  0.66548480  1
  O  O435  1  0.01835043  0.08417423  0.91193381  1
  O  O436  1  0.01684183  0.41570903  0.16549973  1
  O  O437  1  0.01800918  0.41584814  0.41486468  1
  O  O438  1  0.01505210  0.41686665  0.66514995  1
  O  O439  1  0.01732455  0.41570302  0.91194355  1
  O  O440  1  0.01509499  0.75030893  0.16401822  1
  O  O441  1  0.01706146  0.75044798  0.41208063  1
  O  O442  1  0.01850172  0.74990054  0.66496305  1
  O  O443  1  0.01648603  0.75004050  0.91567347  1
  O  O444  1  0.51669983  0.08285216  0.16215165  1
  O  O445  1  0.51779592  0.08351514  0.41438031  1
  O  O446  1  0.51370679  0.08365106  0.66413345  1
  O  O447  1  0.51380393  0.08368058  0.91376598  1
  O  O448  1  0.51607223  0.41611775  0.16332318  1
  O  O449  1  0.51625288  0.41613752  0.41303424  1
  O  O450  1  0.51696395  0.41624952  0.66216427  1
  O  O451  1  0.51529247  0.41624226  0.91624831  1
  O  O452  1  0.51650395  0.74987054  0.16583332  1
  O  O453  1  0.51605891  0.75038267  0.41578973  1
  O  O454  1  0.51483164  0.75001350  0.66538647  1
  O  O455  1  0.51508801  0.75002711  0.91337461  1
  O  O456  1  0.48464785  0.24943619  0.08732855  1
  O  O457  1  0.48536772  0.24953477  0.33525855  1
  O  O458  1  0.48370160  0.24953752  0.58686814  1
  O  O459  1  0.48150051  0.25060667  0.83546233  1
  O  O460  1  0.48342016  0.58325473  0.08488772  1
  O  O461  1  0.48269862  0.58231119  0.33728138  1
  O  O462  1  0.48508707  0.58319167  0.58649755  1
  O  O463  1  0.48227127  0.58220281  0.83457193  1
  O  O464  1  0.48325855  0.91756016  0.08700077  1
  O  O465  1  0.48435822  0.91686149  0.33399271  1
  O  O466  1  0.48077991  0.91734891  0.58571691  1
  O  O467  1  0.48257709  0.91719152  0.83532775  1
  O  O468  1  0.98433085  0.24948061  0.08608678  1
  O  O469  1  0.98303229  0.25000087  0.33552185  1
  O  O470  1  0.98392598  0.25029850  0.58780407  1
  O  O471  1  0.98636918  0.25000639  0.83589816  1
  O  O472  1  0.98362174  0.58237423  0.08481145  1
  O  O473  1  0.98500709  0.58281984  0.33649660  1
  O  O474  1  0.98255394  0.58345293  0.58451043  1
  O  O475  1  0.98358123  0.58323876  0.83472685  1
  O  O476  1  0.98544935  0.91784949  0.08612191  1
  O  O477  1  0.98390861  0.91706507  0.33682897  1
  O  O478  1  0.98409961  0.91667060  0.58697372  1
  O  O479  1  0.98651411  0.91663405  0.83640448  1
  O  O480  1  0.08853573  0.31383266  0.07665909  1
  O  O481  1  0.08680110  0.31611214  0.32717442  1
  O  O482  1  0.08777170  0.31490048  0.57815699  1
  O  O483  1  0.09017925  0.31522848  0.82736540  1
  O  O484  1  0.08704317  0.64820348  0.07725661  1
  O  O485  1  0.08857418  0.64782987  0.32847754  1
  O  O486  1  0.08666895  0.64913229  0.57700553  1
  O  O487  1  0.08770595  0.64739672  0.82731352  1
  O  O488  1  0.08904628  0.98343431  0.07819894  1
  O  O489  1  0.08788799  0.98164842  0.32729697  1
  O  O490  1  0.08802118  0.98106325  0.57678302  1
  O  O491  1  0.08971395  0.98300062  0.82753421  1
  O  O492  1  0.58796882  0.31488037  0.07870969  1
  O  O493  1  0.58921028  0.31468816  0.32804041  1
  O  O494  1  0.58729683  0.31535460  0.57739068  1
  O  O495  1  0.58604773  0.31467958  0.82670618  1
  O  O496  1  0.58738477  0.64769338  0.07749639  1
  O  O497  1  0.58608873  0.64783688  0.32755537  1
  O  O498  1  0.58915681  0.64744334  0.57729973  1
  O  O499  1  0.58611067  0.64804027  0.82620843  1
  O  O500  1  0.58703048  0.98258267  0.07766478  1
  O  O501  1  0.58788134  0.98315204  0.32703116  1
  O  O502  1  0.58497832  0.98197556  0.57729963  1
  O  O503  1  0.58629294  0.98227949  0.82675766  1
  O  O504  1  0.41313958  0.01733451  0.17218612  1
  O  O505  1  0.41361158  0.01835844  0.42286121  1
  O  O506  1  0.40994071  0.01820545  0.67232306  1
  O  O507  1  0.40944344  0.01994572  0.92320999  1
  O  O508  1  0.41242854  0.35090723  0.17369346  1
  O  O509  1  0.41227780  0.35185242  0.42293783  1
  O  O510  1  0.41346106  0.35078673  0.67152374  1
  O  O511  1  0.41130351  0.35128488  0.92288805  1
  O  O512  1  0.41183495  0.68655746  0.17265242  1
  O  O513  1  0.41275535  0.68394661  0.42277056  1
  O  O514  1  0.41042387  0.68614493  0.67278580  1
  O  O515  1  0.41209217  0.68348971  0.92127911  1
  O  O516  1  0.91336655  0.01969994  0.17369491  1
  O  O517  1  0.91186012  0.01856458  0.42143903  1
  O  O518  1  0.91244138  0.01747907  0.67267984  1
  O  O519  1  0.91511227  0.01861554  0.92252355  1
  O  O520  1  0.91322487  0.34989809  0.17244428  1
  O  O521  1  0.91426057  0.34991042  0.42272566  1
  O  O522  1  0.91068503  0.35272109  0.67364662  1
  O  O523  1  0.91366101  0.35099556  0.92216414  1
  O  O524  1  0.91123767  0.68532812  0.17304932  1
  O  O525  1  0.91339074  0.68589479  0.42223634  1
  O  O526  1  0.91451986  0.68461313  0.67200765  1
  O  O527  1  0.91218235  0.68529406  0.92301243  1
  O  O528  1  0.16100968  0.01922801  0.20236671  1
  O  O529  1  0.16432465  0.01787252  0.45290468  1
  O  O530  1  0.16323948  0.01865552  0.70301772  1
  O  O531  1  0.16234269  0.01832624  0.95280155  1
  O  O532  1  0.16393840  0.35032770  0.20300568  1
  O  O533  1  0.16292362  0.35202203  0.45202916  1
  O  O534  1  0.16279447  0.35071527  0.70305629  1
  O  O535  1  0.16308878  0.35081639  0.95180027  1
  O  O536  1  0.16146174  0.68535095  0.20319704  1
  O  O537  1  0.16006129  0.68485444  0.45280276  1
  O  O538  1  0.16278228  0.68563387  0.70133634  1
  O  O539  1  0.16338825  0.68580503  0.95230606  1
  O  O540  1  0.66273297  0.01773107  0.20255767  1
  O  O541  1  0.66140050  0.01867785  0.45169793  1
  O  O542  1  0.66384541  0.01947497  0.70181782  1
  O  O543  1  0.66248074  0.01809800  0.95241201  1
  O  O544  1  0.66082499  0.35027638  0.20315562  1
  O  O545  1  0.65965522  0.35172029  0.45241723  1
  O  O546  1  0.66186190  0.35063085  0.70229187  1
  O  O547  1  0.66187154  0.35153222  0.95299329  1
  O  O548  1  0.66456234  0.68642542  0.20216184  1
  O  O549  1  0.66302941  0.68401153  0.45290231  1
  O  O550  1  0.66248049  0.68429312  0.70295373  1
  O  O551  1  0.66426695  0.68527159  0.95181113  1
  O  O552  1  0.33678286  0.31508158  0.04679444  1
  O  O553  1  0.33585219  0.31542575  0.29761150  1
  O  O554  1  0.33903851  0.31535318  0.54775719  1
  O  O555  1  0.33796139  0.31456903  0.79794952  1
  O  O556  1  0.33836226  0.64714963  0.04719850  1
  O  O557  1  0.33871480  0.64732409  0.29896273  1
  O  O558  1  0.33654984  0.64722731  0.54698306  1
  O  O559  1  0.33782169  0.64985240  0.79702202  1
  O  O560  1  0.33619506  0.98324784  0.04849901  1
  O  O561  1  0.33607362  0.98220489  0.29730555  1
  O  O562  1  0.33613092  0.98253378  0.54762987  1
  O  O563  1  0.33671596  0.98121469  0.79701858  1
  O  O564  1  0.83860954  0.31485019  0.04890843  1
  O  O565  1  0.83734863  0.31381925  0.29832772  1
  O  O566  1  0.83543910  0.31545693  0.54719175  1
  O  O567  1  0.83562092  0.31542922  0.79728112  1
  O  O568  1  0.83767570  0.64911998  0.04650704  1
  O  O569  1  0.83737964  0.64900137  0.29755160  1
  O  O570  1  0.83630852  0.64779317  0.54873313  1
  O  O571  1  0.83695840  0.64649850  0.79678100  1
  O  O572  1  0.83840068  0.98122496  0.04780149  1
  O  O573  1  0.83754720  0.98279458  0.29825504  1
  O  O574  1  0.83954458  0.98152596  0.54757527  1
  O  O575  1  0.83866748  0.98352312  0.79613527  1
  O  O576  1  0.41312732  0.14747604  0.17284706  1
  O  O577  1  0.41365566  0.14828263  0.42303436  1
  O  O578  1  0.40985206  0.14847981  0.67179836  1
  O  O579  1  0.41059595  0.15013875  0.92251714  1
  O  O580  1  0.41218276  0.48092549  0.17326159  1
  O  O581  1  0.41261834  0.48188162  0.42298305  1
  O  O582  1  0.41317166  0.48087196  0.67182419  1
  O  O583  1  0.41127003  0.48146772  0.92233272  1
  O  O584  1  0.41330121  0.81684972  0.17287812  1
  O  O585  1  0.41160581  0.81426778  0.42238250  1
  O  O586  1  0.41126228  0.81635162  0.67270066  1
  O  O587  1  0.41112124  0.81397610  0.92217719  1
  O  O588  1  0.91382742  0.14957740  0.17301506  1
  O  O589  1  0.91149198  0.14908087  0.42137690  1
  O  O590  1  0.91186281  0.14768124  0.67382410  1
  O  O591  1  0.91450204  0.14872387  0.92244103  1
  O  O592  1  0.91270266  0.48007110  0.17305281  1
  O  O593  1  0.91373022  0.48010219  0.42287532  1
  O  O594  1  0.91146229  0.48297390  0.67236073  1
  O  O595  1  0.91380639  0.48114174  0.92217651  1
  O  O596  1  0.91151777  0.81548238  0.17303378  1
  O  O597  1  0.91381445  0.81621502  0.42198200  1
  O  O598  1  0.91466721  0.81491037  0.67226657  1
  O  O599  1  0.91273842  0.81533987  0.92332028  1
  O  O600  1  0.08801101  0.18380260  0.07750522  1
  O  O601  1  0.08745487  0.18612697  0.32697467  1
  O  O602  1  0.08723596  0.18475303  0.57761937  1
  O  O603  1  0.09032914  0.18508366  0.82728380  1
  O  O604  1  0.08778387  0.51797184  0.07753437  1
  O  O605  1  0.08842945  0.51723658  0.32836485  1
  O  O606  1  0.08699828  0.51910168  0.57631962  1
  O  O607  1  0.08699419  0.51710227  0.82721002  1
  O  O608  1  0.08940963  0.85328131  0.07740795  1
  O  O609  1  0.08765685  0.85150926  0.32771203  1
  O  O610  1  0.08768504  0.85094231  0.57765304  1
  O  O611  1  0.09069213  0.85280452  0.82735871  1
  O  O612  1  0.58820185  0.18439059  0.07832178  1
  O  O613  1  0.58929358  0.18447650  0.32774096  1
  O  O614  1  0.58777679  0.18528911  0.57726325  1
  O  O615  1  0.58503996  0.18477414  0.82599851  1
  O  O616  1  0.58674065  0.51717067  0.07798638  1
  O  O617  1  0.58652437  0.51757711  0.32842480  1
  O  O618  1  0.58854472  0.51728417  0.57760228  1
  O  O619  1  0.58675430  0.51802931  0.82661054  1
  O  O620  1  0.58664409  0.85217310  0.07721979  1
  O  O621  1  0.58903021  0.85306385  0.32653844  1
  O  O622  1  0.58455765  0.85192760  0.57714666  1
  O  O623  1  0.58648509  0.85205863  0.82693780  1
  O  O624  1  0.33640988  0.18488460  0.04708489  1
  O  O625  1  0.33618865  0.18546430  0.29761199  1
  O  O626  1  0.33922098  0.18507895  0.54750944  1
  O  O627  1  0.33785469  0.18444998  0.79738039  1
  O  O628  1  0.33805599  0.51659188  0.04637098  1
  O  O629  1  0.33858167  0.51718384  0.29816645  1
  O  O630  1  0.33617690  0.51701248  0.54691196  1
  O  O631  1  0.33893058  0.51970694  0.79776548  1
  O  O632  1  0.33698981  0.85322256  0.04912881  1
  O  O633  1  0.33532125  0.85209244  0.29790619  1
  O  O634  1  0.33649156  0.85253206  0.54798611  1
  O  O635  1  0.33597261  0.85096327  0.79681120  1
  O  O636  1  0.83884437  0.18482092  0.04882456  1
  O  O637  1  0.83734193  0.18371775  0.29747306  1
  O  O638  1  0.83580139  0.18553984  0.54716006  1
  O  O639  1  0.83594037  0.18523201  0.79745343  1
  O  O640  1  0.83719711  0.51871753  0.04792582  1
  O  O641  1  0.83707576  0.51858577  0.29836563  1
  O  O642  1  0.83633065  0.51780773  0.54832959  1
  O  O643  1  0.83602674  0.51614922  0.79627446  1
  O  O644  1  0.83804465  0.85098093  0.04675677  1
  O  O645  1  0.83772949  0.85266507  0.29839548  1
  O  O646  1  0.83924935  0.85155107  0.54790278  1
  O  O647  1  0.83944259  0.85301708  0.79649579  1
  O  O648  1  0.16124495  0.14936774  0.20248012  1
  O  O649  1  0.16425461  0.14792627  0.45267184  1
  O  O650  1  0.16377544  0.14882843  0.70273764  1
  O  O651  1  0.16233849  0.14854764  0.95229036  1
  O  O652  1  0.16369547  0.48053238  0.20260065  1
  O  O653  1  0.16373162  0.48200477  0.45178891  1
  O  O654  1  0.16208208  0.48098955  0.70260880  1
  O  O655  1  0.16327255  0.48077718  0.95107714  1
  O  O656  1  0.16155577  0.81573282  0.20372282  1
  O  O657  1  0.15967175  0.81523359  0.45325241  1
  O  O658  1  0.16316743  0.81566014  0.70186544  1
  O  O659  1  0.16278157  0.81611568  0.95353818  1
  O  O660  1  0.66241719  0.14786038  0.20247828  1
  O  O661  1  0.66123044  0.14878898  0.45199793  1
  O  O662  1  0.66351115  0.14965209  0.70289711  1
  O  O663  1  0.66219062  0.14819808  0.95265770  1
  O  O664  1  0.66006818  0.48051718  0.20255025  1
  O  O665  1  0.65989879  0.48198710  0.45295211  1
  O  O666  1  0.66189371  0.48076003  0.70202024  1
  O  O667  1  0.66199580  0.48167560  0.95304395  1
  O  O668  1  0.66472419  0.81671614  0.20255890  1
  O  O669  1  0.66266920  0.81443693  0.45256514  1
  O  O670  1  0.66292552  0.81468128  0.70184415  1
  O  O671  1  0.66471135  0.81540538  0.95140535  1
