# generated using pymatgen
data_Na2MnFe(PO4)2
_symmetry_space_group_name_H-M   'P 1'
_cell_length_a   21.08059367
_cell_length_b   18.93221005
_cell_length_c   20.03958065
_cell_angle_alpha   90.00063515
_cell_angle_beta   89.99360982
_cell_angle_gamma   89.99976823
_symmetry_Int_Tables_number   1
_chemical_formula_structural   Na2MnFe(PO4)2
_chemical_formula_sum   'Na96 Mn48 Fe48 P96 O384'
_cell_volume   7997.84121996
_cell_formula_units_Z   48
loop_
 _symmetry_equiv_pos_site_id
 _symmetry_equiv_pos_as_xyz
  1  'x, y, z'
loop_
 _atom_site_type_symbol
 _atom_site_label
 _atom_site_symmetry_multiplicity
 _atom_site_fract_x
 _atom_site_fract_y
 _atom_site_fract_z
 _atom_site_occupancy
  Na  Na0  1  -0.00203889  -0.00028417  0.00107403  1
  Na  Na1  1  -0.00161593  -0.00036462  0.25000886  1
  Na  Na2  1  0.00035815  -0.00091142  0.50008309  1
  Na  Na3  1  0.00105573  0.00026921  0.74916433  1
  Na  Na4  1  -0.00055754  0.33307884  -0.00019777  1
  Na  Na5  1  -0.00076740  0.33319766  0.25155957  1
  Na  Na6  1  0.00039928  0.33403418  0.49919602  1
  Na  Na7  1  -0.00143928  0.33256591  0.74921191  1
  Na  Na8  1  -0.00221534  0.66567204  0.00065855  1
  Na  Na9  1  -0.00096025  0.66596094  0.24985975  1
  Na  Na10  1  0.00077988  0.66614298  0.49942461  1
  Na  Na11  1  0.00108006  0.66701911  0.75007712  1
  Na  Na12  1  0.49849577  -0.00061976  0.00073178  1
  Na  Na13  1  0.49982881  0.00074825  0.24882097  1
  Na  Na14  1  0.49824726  -0.00030708  0.50011847  1
  Na  Na15  1  0.49988170  0.00066152  0.74982806  1
  Na  Na16  1  0.50369285  0.33476043  -0.00079012  1
  Na  Na17  1  0.50060305  0.33284524  0.25026031  1
  Na  Na18  1  0.50038144  0.33317202  0.49993040  1
  Na  Na19  1  0.50091393  0.33343794  0.75123288  1
  Na  Na20  1  0.49805456  0.66576959  0.00041423  1
  Na  Na21  1  0.50085611  0.66679388  0.25026858  1
  Na  Na22  1  0.50158867  0.66693219  0.49911363  1
  Na  Na23  1  0.49992502  0.66696164  0.75011139  1
  Na  Na24  1  0.25000911  -0.00012383  0.12372970  1
  Na  Na25  1  0.25086427  -0.00017145  0.37557512  1
  Na  Na26  1  0.25074339  -0.00034990  0.62578912  1
  Na  Na27  1  0.24955898  -0.00032386  0.87431734  1
  Na  Na28  1  0.24742368  0.33229170  0.12490507  1
  Na  Na29  1  0.25018001  0.33328709  0.37498643  1
  Na  Na30  1  0.25150116  0.33304530  0.62454613  1
  Na  Na31  1  0.25061012  0.33373919  0.87510392  1
  Na  Na32  1  0.25119211  0.66631900  0.12463591  1
  Na  Na33  1  0.24856233  0.66611007  0.37499782  1
  Na  Na34  1  0.24976558  0.66566633  0.62595197  1
  Na  Na35  1  0.25279810  0.66694873  0.87429682  1
  Na  Na36  1  0.75365843  0.00104057  0.12525754  1
  Na  Na37  1  0.75064931  0.00054246  0.37586480  1
  Na  Na38  1  0.74892475  0.00025243  0.62441116  1
  Na  Na39  1  0.75093095  0.00009432  0.87489527  1
  Na  Na40  1  0.74967943  0.33323680  0.12457174  1
  Na  Na41  1  0.74981574  0.33421383  0.37475560  1
  Na  Na42  1  0.74788458  0.33346604  0.62588271  1
  Na  Na43  1  0.74861951  0.33296318  0.87562840  1
  Na  Na44  1  0.75263122  0.66775878  0.12639651  1
  Na  Na45  1  0.74867668  0.66596039  0.37522801  1
  Na  Na46  1  0.74823236  0.66635418  0.62467275  1
  Na  Na47  1  0.75015246  0.66712848  0.87378902  1
  Na  Na48  1  -0.00152293  0.16722846  0.00030592  1
  Na  Na49  1  -0.00220693  0.16771202  0.25041965  1
  Na  Na50  1  0.00145912  0.16588092  0.49904964  1
  Na  Na51  1  0.00013106  0.16669050  0.74979269  1
  Na  Na52  1  -0.00066444  0.49965990  0.00038358  1
  Na  Na53  1  -0.00143538  0.50038405  0.25105897  1
  Na  Na54  1  -0.00117624  0.50042313  0.49945538  1
  Na  Na55  1  -0.00121297  0.50043261  0.74906790  1
  Na  Na56  1  -0.00295658  0.83507012  0.00071385  1
  Na  Na57  1  -0.00017993  0.83367756  0.24981309  1
  Na  Na58  1  0.00278419  0.83292505  0.50038188  1
  Na  Na59  1  0.00126660  0.83342519  0.74954421  1
  Na  Na60  1  0.50144980  0.16595919  0.00047547  1
  Na  Na61  1  0.49940771  0.16712026  0.24957846  1
  Na  Na62  1  0.50021002  0.16639799  0.50000083  1
  Na  Na63  1  0.50054356  0.16653796  0.75044254  1
  Na  Na64  1  0.50021001  0.49974024  -0.00044248  1
  Na  Na65  1  0.50162717  0.49969162  0.25082280  1
  Na  Na66  1  0.50178438  0.49896790  0.49955880  1
  Na  Na67  1  0.49880161  0.50066535  0.75017652  1
  Na  Na68  1  0.49970706  0.83310381  0.00062634  1
  Na  Na69  1  0.49954398  0.83347426  0.24869852  1
  Na  Na70  1  0.49993918  0.83324173  0.49980860  1
  Na  Na71  1  0.49985954  0.83339053  0.75008045  1
  Na  Na72  1  0.24964762  0.16640203  0.12539195  1
  Na  Na73  1  0.25166090  0.16654586  0.37508751  1
  Na  Na74  1  0.25158017  0.16658997  0.62599740  1
  Na  Na75  1  0.24894785  0.16726747  0.87372703  1
  Na  Na76  1  0.24926504  0.50010407  0.12370489  1
  Na  Na77  1  0.24797430  0.50097690  0.37440340  1
  Na  Na78  1  0.25211751  0.49970727  0.62536780  1
  Na  Na79  1  0.25155253  0.49993654  0.87596416  1
  Na  Na80  1  0.25018330  0.83373429  0.12394611  1
  Na  Na81  1  0.24911309  0.83377136  0.37639469  1
  Na  Na82  1  0.24912138  0.83424714  0.62449044  1
  Na  Na83  1  0.25085331  0.83350810  0.87444881  1
  Na  Na84  1  0.75186601  0.16620802  0.12548842  1
  Na  Na85  1  0.74781455  0.16713206  0.37483324  1
  Na  Na86  1  0.74710832  0.16699891  0.62541457  1
  Na  Na87  1  0.75019157  0.16609591  0.87452933  1
  Na  Na88  1  0.75156804  0.49940303  0.12564446  1
  Na  Na89  1  0.75044668  0.49973492  0.37548568  1
  Na  Na90  1  0.74947273  0.49969695  0.62500821  1
  Na  Na91  1  0.74901850  0.50021557  0.87479598  1
  Na  Na92  1  0.75184532  0.83334546  0.12529366  1
  Na  Na93  1  0.75040292  0.83298331  0.37562680  1
  Na  Na94  1  0.74810380  0.83390368  0.62463497  1
  Na  Na95  1  0.75139371  0.83293931  0.87474814  1
  Mn  Mn96  1  0.35847615  0.41664425  0.50190740  1
  Mn  Mn97  1  0.10720381  0.41678295  0.37304538  1
  Mn  Mn98  1  0.14308288  0.58331142  0.74794370  1
  Mn  Mn99  1  0.14193586  0.91696233  0.99736651  1
  Mn  Mn100  1  0.10822926  0.08303748  0.37298291  1
  Mn  Mn101  1  0.64136175  0.91657711  0.74850981  1
  Mn  Mn102  1  0.10715295  0.74958121  0.12202689  1
  Mn  Mn103  1  0.85744755  0.41680048  0.00246797  1
  Mn  Mn104  1  0.35845532  0.74941767  0.75182811  1
  Mn  Mn105  1  0.10788947  0.74992420  0.37267283  1
  Mn  Mn106  1  0.89138994  0.24989022  0.37876805  1
  Mn  Mn107  1  0.10880919  0.08339089  0.62200249  1
  Mn  Mn108  1  0.10825172  0.41727645  0.62263880  1
  Mn  Mn109  1  0.64251851  0.58388481  0.99822239  1
  Mn  Mn110  1  0.60802642  0.74933282  0.12208880  1
  Mn  Mn111  1  0.35786405  0.08309683  0.25215052  1
  Mn  Mn112  1  0.64098437  0.58369327  0.74748808  1
  Mn  Mn113  1  0.35826544  0.08349433  0.75283736  1
  Mn  Mn114  1  0.14255244  0.58337017  0.99776273  1
  Mn  Mn115  1  0.85802353  0.75032471  0.75149180  1
  Mn  Mn116  1  0.39177252  0.91629047  0.12742251  1
  Mn  Mn117  1  0.14201717  0.24976923  0.24767428  1
  Mn  Mn118  1  0.89301649  0.91594477  0.62699208  1
  Mn  Mn119  1  0.14226540  0.25045088  0.74753221  1
  Mn  Mn120  1  0.85820240  0.75008011  0.25350542  1
  Mn  Mn121  1  0.64164408  0.24965335  0.74805903  1
  Mn  Mn122  1  0.64278707  0.91699574  0.24846431  1
  Mn  Mn123  1  0.60868443  0.08356759  0.12225995  1
  Mn  Mn124  1  0.10784176  0.75054585  0.87340493  1
  Mn  Mn125  1  0.85769929  0.08331906  0.75189050  1
  Mn  Mn126  1  0.85706111  0.41640959  0.75187849  1
  Mn  Mn127  1  0.64082760  0.91680603  0.49695772  1
  Mn  Mn128  1  0.35757563  0.41682088  0.25150810  1
  Mn  Mn129  1  0.39288533  0.24956248  0.87849484  1
  Mn  Mn130  1  0.35711509  0.75000048  0.25237696  1
  Mn  Mn131  1  0.64297371  0.58335721  0.24764143  1
  Mn  Mn132  1  0.85648571  0.08435312  0.50240091  1
  Mn  Mn133  1  0.39241951  0.58319840  0.37710908  1
  Mn  Mn134  1  0.89175808  0.25008737  0.62624422  1
  Mn  Mn135  1  0.89160808  0.58368957  0.87735055  1
  Mn  Mn136  1  0.39248573  0.25110928  0.12608753  1
  Mn  Mn137  1  0.64247346  0.24979553  0.24772309  1
  Mn  Mn138  1  0.64332306  0.91693194  0.99767420  1
  Mn  Mn139  1  0.10669785  0.08414057  0.12270030  1
  Mn  Mn140  1  0.35776168  0.74992065  0.50221156  1
  Mn  Mn141  1  0.10768951  0.41625507  0.87209809  1
  Mn  Mn142  1  0.35800024  0.41585626  0.00301458  1
  Mn  Mn143  1  0.85717498  0.74958245  0.50281312  1
  Fe  Fe144  1  0.14281929  0.91654097  0.74874231  1
  Fe  Fe145  1  0.60660347  0.41693377  0.62320248  1
  Fe  Fe146  1  0.39273098  0.91635242  0.62673946  1
  Fe  Fe147  1  0.85790572  0.08312557  0.00120779  1
  Fe  Fe148  1  0.60615599  0.08329130  0.62296686  1
  Fe  Fe149  1  0.39282097  0.58250659  0.12702114  1
  Fe  Fe150  1  0.39346442  0.58377607  0.87696918  1
  Fe  Fe151  1  0.14136925  0.24960296  0.99828555  1
  Fe  Fe152  1  0.89265486  0.58405805  0.37781527  1
  Fe  Fe153  1  0.39342194  0.25047486  0.62642920  1
  Fe  Fe154  1  0.64228115  0.58278641  0.49838464  1
  Fe  Fe155  1  0.89237068  0.24933919  0.87701615  1
  Fe  Fe156  1  0.14252273  0.58285343  0.49877856  1
  Fe  Fe157  1  0.35883402  0.41630250  0.75143308  1
  Fe  Fe158  1  0.39217301  0.91689811  0.37620580  1
  Fe  Fe159  1  0.85740279  0.08373029  0.25284813  1
  Fe  Fe160  1  0.60771557  0.41630985  0.37306730  1
  Fe  Fe161  1  0.10620386  0.41647865  0.12398981  1
  Fe  Fe162  1  0.89226780  0.25066842  0.12666139  1
  Fe  Fe163  1  0.60707155  0.41723427  0.87336411  1
  Fe  Fe164  1  0.10814162  0.74921553  0.62340513  1
  Fe  Fe165  1  0.14236296  0.91648633  0.24856378  1
  Fe  Fe166  1  0.14394178  0.25007516  0.49874817  1
  Fe  Fe167  1  0.39311679  0.24978387  0.37678685  1
  Fe  Fe168  1  0.60675020  0.74997767  0.62321249  1
  Fe  Fe169  1  0.35832877  0.75057501  0.00139733  1
  Fe  Fe170  1  0.60616624  0.08273385  0.37324446  1
  Fe  Fe171  1  0.89257370  0.58376558  0.62590022  1
  Fe  Fe172  1  0.64106756  0.25067664  0.49831587  1
  Fe  Fe173  1  0.89268698  0.58259377  0.12730506  1
  Fe  Fe174  1  0.35802586  0.08350428  0.50143363  1
  Fe  Fe175  1  0.60695549  0.75076175  0.37314713  1
  Fe  Fe176  1  0.39306905  0.58312758  0.62566710  1
  Fe  Fe177  1  0.89255687  0.91679386  0.12795915  1
  Fe  Fe178  1  0.60831460  0.41709957  0.12362216  1
  Fe  Fe179  1  0.85765619  0.75031356  0.00133258  1
  Fe  Fe180  1  0.89278637  0.91724970  0.87609409  1
  Fe  Fe181  1  0.14386246  0.91731081  0.49797760  1
  Fe  Fe182  1  0.10667306  0.08328493  0.87419215  1
  Fe  Fe183  1  0.60766591  0.08246728  0.87418070  1
  Fe  Fe184  1  0.64375280  0.24926500  0.99848713  1
  Fe  Fe185  1  0.89329276  0.91600571  0.37748244  1
  Fe  Fe186  1  0.39266861  0.91645857  0.87634705  1
  Fe  Fe187  1  0.85744110  0.41621103  0.25194906  1
  Fe  Fe188  1  0.60732481  0.75037396  0.87405044  1
  Fe  Fe189  1  0.85580513  0.41651605  0.50204404  1
  Fe  Fe190  1  0.14179184  0.58355101  0.24746853  1
  Fe  Fe191  1  0.35694570  0.08368982  0.00074653  1
  P  P192  1  0.05200668  0.25095143  0.10995902  1
  P  P193  1  0.05448359  0.24982422  0.36140996  1
  P  P194  1  0.05403388  0.25032870  0.60854278  1
  P  P195  1  0.05296267  0.24891752  0.86092932  1
  P  P196  1  0.05294526  0.58222072  0.11120834  1
  P  P197  1  0.05379906  0.58326954  0.36056084  1
  P  P198  1  0.05305332  0.58375469  0.60939660  1
  P  P199  1  0.05312761  0.58334743  0.85991183  1
  P  P200  1  0.05289210  0.91698787  0.11129238  1
  P  P201  1  0.05429882  0.91680835  0.36043206  1
  P  P202  1  0.05614090  0.91568495  0.61042921  1
  P  P203  1  0.05267959  0.91780039  0.85982958  1
  P  P204  1  0.55479949  0.25099680  0.10925795  1
  P  P205  1  0.55362680  0.24955262  0.36126123  1
  P  P206  1  0.55267608  0.25020138  0.61003044  1
  P  P207  1  0.55523361  0.24928788  0.86195599  1
  P  P208  1  0.55254167  0.58240436  0.11009632  1
  P  P209  1  0.55516709  0.58323854  0.36119721  1
  P  P210  1  0.55253979  0.58324822  0.60950355  1
  P  P211  1  0.55259666  0.58391699  0.86054113  1
  P  P212  1  0.55376746  0.91670253  0.10981335  1
  P  P213  1  0.55144609  0.91714647  0.35962772  1
  P  P214  1  0.55190289  0.91675215  0.61022955  1
  P  P215  1  0.55212947  0.91663752  0.86079850  1
  P  P216  1  0.44565787  0.08405944  0.13857495  1
  P  P217  1  0.44669788  0.08336521  0.39008826  1
  P  P218  1  0.44606623  0.08364417  0.63864371  1
  P  P219  1  0.44757483  0.08259059  0.89076922  1
  P  P220  1  0.44847846  0.41716227  0.14006815  1
  P  P221  1  0.44811487  0.41603761  0.38951323  1
  P  P222  1  0.44757020  0.41658148  0.64003375  1
  P  P223  1  0.44679722  0.41714930  0.88902706  1
  P  P224  1  0.44534549  0.74869075  0.13911494  1
  P  P225  1  0.44750384  0.75061014  0.38948161  1
  P  P226  1  0.44761082  0.74968412  0.63931034  1
  P  P227  1  0.44737202  0.75027046  0.89025936  1
  P  P228  1  0.94402573  0.08407445  0.13958294  1
  P  P229  1  0.94541271  0.08223992  0.38948437  1
  P  P230  1  0.94691710  0.08342094  0.63952491  1
  P  P231  1  0.94696460  0.08312568  0.89014230  1
  P  P232  1  0.94655544  0.41621718  0.14079759  1
  P  P233  1  0.94394116  0.41757952  0.38993818  1
  P  P234  1  0.94500550  0.41746872  0.63816767  1
  P  P235  1  0.94619942  0.41582164  0.88980982  1
  P  P236  1  0.94492007  0.74984801  0.13904905  1
  P  P237  1  0.94664705  0.75016890  0.39052157  1
  P  P238  1  0.94824770  0.74892548  0.63947884  1
  P  P239  1  0.94622938  0.75121405  0.89041294  1
  P  P240  1  0.19651463  0.08209092  0.23479900  1
  P  P241  1  0.19859334  0.08361181  0.48533938  1
  P  P242  1  0.19545685  0.08261636  0.73642020  1
  P  P243  1  0.19658906  0.08410846  0.98415062  1
  P  P244  1  0.19542427  0.41740176  0.23406129  1
  P  P245  1  0.19702376  0.41671204  0.48509468  1
  P  P246  1  0.19882250  0.41680467  0.73484157  1
  P  P247  1  0.19502704  0.41572810  0.98618790  1
  P  P248  1  0.19592988  0.75033847  0.23463292  1
  P  P249  1  0.19545357  0.74952598  0.48661856  1
  P  P250  1  0.19646318  0.75074457  0.73465668  1
  P  P251  1  0.19854876  0.74981709  0.98466372  1
  P  P252  1  0.69692157  0.08300805  0.23621474  1
  P  P253  1  0.69345877  0.08430221  0.48538788  1
  P  P254  1  0.69433395  0.08270497  0.73528600  1
  P  P255  1  0.69830682  0.08377689  0.98471495  1
  P  P256  1  0.69650818  0.41660769  0.23554891  1
  P  P257  1  0.69483578  0.41676726  0.48594970  1
  P  P258  1  0.69397118  0.41693064  0.73540815  1
  P  P259  1  0.69496554  0.41628942  0.98576369  1
  P  P260  1  0.69574783  0.75053943  0.23618212  1
  P  P261  1  0.69407463  0.74913241  0.48554174  1
  P  P262  1  0.69441599  0.75037972  0.73510965  1
  P  P263  1  0.69811075  0.75004993  0.98441655  1
  P  P264  1  0.30144011  0.24878929  0.01488319  1
  P  P265  1  0.30415917  0.25037570  0.26550800  1
  P  P266  1  0.30496318  0.24923327  0.51436376  1
  P  P267  1  0.30550647  0.25101629  0.76406219  1
  P  P268  1  0.30596581  0.58399955  0.01438860  1
  P  P269  1  0.30263857  0.58295331  0.26386499  1
  P  P270  1  0.30270954  0.58337303  0.51539018  1
  P  P271  1  0.30637457  0.58218017  0.76442040  1
  P  P272  1  0.30490912  0.91721176  0.01304490  1
  P  P273  1  0.30222172  0.91631423  0.26576821  1
  P  P274  1  0.30470968  0.91749677  0.51448110  1
  P  P275  1  0.30446546  0.91630466  0.76435262  1
  P  P276  1  0.80422406  0.24921623  0.01432458  1
  P  P277  1  0.80476095  0.25030452  0.26410797  1
  P  P278  1  0.80035214  0.25095689  0.51532157  1
  P  P279  1  0.80357146  0.24992561  0.76572193  1
  P  P280  1  0.80387539  0.58427545  0.01590721  1
  P  P281  1  0.80566590  0.58223737  0.26516397  1
  P  P282  1  0.80319629  0.58260077  0.51453702  1
  P  P283  1  0.80382324  0.58354084  0.76353042  1
  P  P284  1  0.80590391  0.91679172  0.01420505  1
  P  P285  1  0.80547876  0.91751874  0.26554819  1
  P  P286  1  0.80365040  0.91661579  0.51428692  1
  P  P287  1  0.80375604  0.91671804  0.76525669  1
  O  O288  1  0.05573865  0.24996118  0.18669677  1
  O  O289  1  0.06003401  0.24969221  0.43805967  1
  O  O290  1  0.05697329  0.25031589  0.68542618  1
  O  O291  1  0.05760260  0.24969924  0.93762611  1
  O  O292  1  0.05761170  0.58327715  0.18792356  1
  O  O293  1  0.05905737  0.58299513  0.43721287  1
  O  O294  1  0.05698752  0.58292934  0.68610896  1
  O  O295  1  0.05642298  0.58308795  0.93671760  1
  O  O296  1  0.05805507  0.91679770  0.18790576  1
  O  O297  1  0.05986577  0.91721667  0.43712283  1
  O  O298  1  0.05985040  0.91678545  0.68722842  1
  O  O299  1  0.05591101  0.91712828  0.93664632  1
  O  O300  1  0.55729945  0.24975209  0.18613373  1
  O  O301  1  0.55759908  0.25007335  0.43798207  1
  O  O302  1  0.55585980  0.25005521  0.68677512  1
  O  O303  1  0.55946449  0.24909981  0.93866486  1
  O  O304  1  0.55660909  0.58328597  0.18679873  1
  O  O305  1  0.55871232  0.58288609  0.43797141  1
  O  O306  1  0.55529210  0.58337896  0.68622778  1
  O  O307  1  0.55612908  0.58370226  0.93720398  1
  O  O308  1  0.55734848  0.91706179  0.18654962  1
  O  O309  1  0.55462969  0.91705045  0.43638137  1
  O  O310  1  0.55530922  0.91691812  0.68688519  1
  O  O311  1  0.55601050  0.91667433  0.93743806  1
  O  O312  1  0.44091847  0.08400964  0.06189515  1
  O  O313  1  0.44365041  0.08350543  0.31330429  1
  O  O314  1  0.44172736  0.08359575  0.56194887  1
  O  O315  1  0.44401219  0.08362968  0.81398999  1
  O  O316  1  0.44458188  0.41635325  0.06331915  1
  O  O317  1  0.44413080  0.41664965  0.31289075  1
  O  O318  1  0.44429737  0.41637200  0.56327322  1
  O  O319  1  0.44251748  0.41626383  0.81236586  1
  O  O320  1  0.44140610  0.74975718  0.06233876  1
  O  O321  1  0.44371539  0.74995535  0.31277874  1
  O  O322  1  0.44415416  0.74970947  0.56259500  1
  O  O323  1  0.44412973  0.75046863  0.81354714  1
  O  O324  1  0.94062006  0.08391058  0.06273855  1
  O  O325  1  0.94146224  0.08353570  0.31269052  1
  O  O326  1  0.94307680  0.08344783  0.56276473  1
  O  O327  1  0.94393157  0.08331835  0.81340476  1
  O  O328  1  0.94324791  0.41627242  0.06406412  1
  O  O329  1  0.94039190  0.41640826  0.31315845  1
  O  O330  1  0.94045665  0.41650466  0.56143277  1
  O  O331  1  0.94307604  0.41629352  0.81301042  1
  O  O332  1  0.94130979  0.74997586  0.06230371  1
  O  O333  1  0.94400421  0.75011028  0.31370143  1
  O  O334  1  0.94417416  0.74967082  0.56282133  1
  O  O335  1  0.94377437  0.75030640  0.81359130  1
  O  O336  1  0.19274265  0.08344812  0.06090108  1
  O  O337  1  0.19379096  0.08283141  0.31158668  1
  O  O338  1  0.19539127  0.08355569  0.56208563  1
  O  O339  1  0.19073272  0.08319390  0.81309317  1
  O  O340  1  0.19008114  0.41624460  0.06286746  1
  O  O341  1  0.19257741  0.41699236  0.31088575  1
  O  O342  1  0.19458741  0.41666606  0.56187182  1
  O  O343  1  0.19457715  0.41678608  0.81157325  1
  O  O344  1  0.19395325  0.74970723  0.06135714  1
  O  O345  1  0.19328918  0.75009354  0.31148822  1
  O  O346  1  0.19215378  0.74916360  0.56337265  1
  O  O347  1  0.19366533  0.75003906  0.81146677  1
  O  O348  1  0.69494243  0.08316575  0.06147914  1
  O  O349  1  0.69105054  0.08277754  0.31282457  1
  O  O350  1  0.68909275  0.08317347  0.56222729  1
  O  O351  1  0.69022008  0.08234350  0.81209195  1
  O  O352  1  0.69161534  0.41741362  0.06261432  1
  O  O353  1  0.69142078  0.41663087  0.31227590  1
  O  O354  1  0.69013943  0.41672151  0.56270219  1
  O  O355  1  0.68975026  0.41735919  0.81223910  1
  O  O356  1  0.69434284  0.74999497  0.06119372  1
  O  O357  1  0.69070643  0.75068292  0.31292716  1
  O  O358  1  0.68964482  0.75022295  0.56237734  1
  O  O359  1  0.68994930  0.75034448  0.81190206  1
  O  O360  1  0.30724852  0.25045080  0.18872340  1
  O  O361  1  0.30969890  0.25007820  0.43762915  1
  O  O362  1  0.31017438  0.25043061  0.68727912  1
  O  O363  1  0.30575422  0.24982022  0.93816870  1
  O  O364  1  0.30818188  0.58243288  0.18724741  1
  O  O365  1  0.30650553  0.58358111  0.43862294  1
  O  O366  1  0.31061578  0.58307250  0.68760182  1
  O  O367  1  0.31041059  0.58322970  0.93753693  1
  O  O368  1  0.30612086  0.91633001  0.18900072  1
  O  O369  1  0.30944787  0.91657988  0.43775304  1
  O  O370  1  0.30949707  0.91639574  0.68761435  1
  O  O371  1  0.30902983  0.91684085  0.93625962  1
  O  O372  1  0.80848054  0.25062179  0.18732556  1
  O  O373  1  0.80443432  0.25017561  0.43860364  1
  O  O374  1  0.80658664  0.24993326  0.68892713  1
  O  O375  1  0.80858033  0.24987518  0.93758837  1
  O  O376  1  0.80980047  0.58291622  0.18834706  1
  O  O377  1  0.80793361  0.58385942  0.43784447  1
  O  O378  1  0.80825224  0.58375715  0.68678521  1
  O  O379  1  0.80612878  0.58330545  0.93901941  1
  O  O380  1  0.80927094  0.91656262  0.18866932  1
  O  O381  1  0.80854812  0.91617368  0.43759944  1
  O  O382  1  0.80689974  0.91677295  0.68844600  1
  O  O383  1  0.80932030  0.91693240  0.93738798  1
  O  O384  1  0.23140358  0.24904904  0.03939606  1
  O  O385  1  0.23432368  0.25006465  0.29028120  1
  O  O386  1  0.23459661  0.24994109  0.53819821  1
  O  O387  1  0.23535264  0.25061173  0.78783530  1
  O  O388  1  0.23572225  0.58310586  0.03801027  1
  O  O389  1  0.23215192  0.58335787  0.28710028  1
  O  O390  1  0.23264828  0.58285256  0.53985250  1
  O  O391  1  0.23627888  0.58344515  0.78855865  1
  O  O392  1  0.23486954  0.91716565  0.03744350  1
  O  O393  1  0.23221149  0.91652400  0.29027085  1
  O  O394  1  0.23422229  0.91702112  0.53788210  1
  O  O395  1  0.23402329  0.91633156  0.78772195  1
  O  O396  1  0.73393157  0.24977268  0.03838348  1
  O  O397  1  0.73479636  0.25030131  0.28865549  1
  O  O398  1  0.73029566  0.25068727  0.53978563  1
  O  O399  1  0.73373774  0.24971720  0.79037877  1
  O  O400  1  0.73436920  0.58370795  0.04175198  1
  O  O401  1  0.73552198  0.58305291  0.28900038  1
  O  O402  1  0.73272335  0.58278141  0.53807528  1
  O  O403  1  0.73379636  0.58358226  0.78767877  1
  O  O404  1  0.73598588  0.91716571  0.03916905  1
  O  O405  1  0.73548784  0.91677931  0.28995012  1
  O  O406  1  0.73336146  0.91684079  0.53776049  1
  O  O407  1  0.73403195  0.91650107  0.79024269  1
  O  O408  1  0.26610204  0.08272874  0.20936937  1
  O  O409  1  0.26853172  0.08330926  0.46030604  1
  O  O410  1  0.26564018  0.08299820  0.71259955  1
  O  O411  1  0.26661882  0.08349427  0.95939806  1
  O  O412  1  0.26512468  0.41649192  0.20878150  1
  O  O413  1  0.26655654  0.41714263  0.45924848  1
  O  O414  1  0.26886950  0.41647808  0.71045245  1
  O  O415  1  0.26531104  0.41642088  0.96257750  1
  O  O416  1  0.26548414  0.75014071  0.20907063  1
  O  O417  1  0.26524908  0.74988377  0.46141205  1
  O  O418  1  0.26621155  0.75015038  0.70950960  1
  O  O419  1  0.26866758  0.75030975  0.96048074  1
  O  O420  1  0.76738394  0.08351499  0.21314664  1
  O  O421  1  0.76361152  0.08383715  0.46159816  1
  O  O422  1  0.76438994  0.08332976  0.71118045  1
  O  O423  1  0.76839598  0.08316883  0.96014668  1
  O  O424  1  0.76693652  0.41635596  0.21224505  1
  O  O425  1  0.76522392  0.41692089  0.46218836  1
  O  O426  1  0.76402679  0.41654843  0.71152045  1
  O  O427  1  0.76492516  0.41679045  0.96118649  1
  O  O428  1  0.76602400  0.75044444  0.21295802  1
  O  O429  1  0.76426334  0.74955218  0.46181118  1
  O  O430  1  0.76450206  0.75042126  0.71107990  1
  O  O431  1  0.76817284  0.75006412  0.96002226  1
  O  O432  1  0.01402482  0.08388937  0.16417900  1
  O  O433  1  0.01541378  0.08234775  0.41377720  1
  O  O434  1  0.01675857  0.08355253  0.66400873  1
  O  O435  1  0.01682261  0.08319149  0.91557573  1
  O  O436  1  0.01648695  0.41638363  0.16587958  1
  O  O437  1  0.01408713  0.41703766  0.41390248  1
  O  O438  1  0.01502412  0.41701019  0.66250717  1
  O  O439  1  0.01584399  0.41629384  0.91502141  1
  O  O440  1  0.01478381  0.74979364  0.16389958  1
  O  O441  1  0.01628695  0.74991400  0.41563954  1
  O  O442  1  0.01826651  0.74950096  0.66403230  1
  O  O443  1  0.01574121  0.75052152  0.91634266  1
  O  O444  1  0.51579830  0.08406958  0.16246359  1
  O  O445  1  0.51664163  0.08314645  0.41507092  1
  O  O446  1  0.51635738  0.08374205  0.66279567  1
  O  O447  1  0.51771936  0.08267043  0.91520665  1
  O  O448  1  0.51842813  0.41661720  0.16483123  1
  O  O449  1  0.51823441  0.41604541  0.41391785  1
  O  O450  1  0.51765296  0.41690752  0.66482354  1
  O  O451  1  0.51717651  0.41700265  0.91282230  1
  O  O452  1  0.51532444  0.74955078  0.16341368  1
  O  O453  1  0.51756937  0.75022496  0.41401025  1
  O  O454  1  0.51757114  0.74991059  0.66427747  1
  O  O455  1  0.51742748  0.74983117  0.91527769  1
  O  O456  1  0.48521601  0.25067724  0.08371578  1
  O  O457  1  0.48344306  0.24966029  0.33685690  1
  O  O458  1  0.48259211  0.25007138  0.58526216  1
  O  O459  1  0.48526074  0.24959791  0.83749933  1
  O  O460  1  0.48261165  0.58251511  0.08544374  1
  O  O461  1  0.48526097  0.58338711  0.33641055  1
  O  O462  1  0.48254971  0.58300200  0.58424420  1
  O  O463  1  0.48258403  0.58408583  0.83571442  1
  O  O464  1  0.48386352  0.91629400  0.08548615  1
  O  O465  1  0.48154871  0.91727960  0.33439731  1
  O  O466  1  0.48184066  0.91641895  0.58540215  1
  O  O467  1  0.48215681  0.91685731  0.83578126  1
  O  O468  1  0.98182061  0.25043881  0.08573424  1
  O  O469  1  0.98413910  0.25023694  0.33845484  1
  O  O470  1  0.98429696  0.25001639  0.58346644  1
  O  O471  1  0.98266490  0.24914875  0.83697577  1
  O  O472  1  0.98253969  0.58244913  0.08761663  1
  O  O473  1  0.98321035  0.58340154  0.33767023  1
  O  O474  1  0.98296213  0.58339140  0.58485267  1
  O  O475  1  0.98341908  0.58366779  0.83492051  1
  O  O476  1  0.98234924  0.91732074  0.08829346  1
  O  O477  1  0.98382107  0.91639469  0.33738409  1
  O  O478  1  0.98606384  0.91610813  0.58616089  1
  O  O479  1  0.98273682  0.91718752  0.83487448  1
  O  O480  1  0.08566143  0.31615602  0.07743197  1
  O  O481  1  0.08766108  0.31488627  0.32798734  1
  O  O482  1  0.08830961  0.31540644  0.57630751  1
  O  O483  1  0.08642044  0.31381195  0.82714175  1
  O  O484  1  0.08628010  0.64707515  0.07731030  1
  O  O485  1  0.08701249  0.64829439  0.32697813  1
  O  O486  1  0.08699228  0.64887613  0.57689890  1
  O  O487  1  0.08746239  0.64848961  0.82789732  1
  O  O488  1  0.08602319  0.98201998  0.07776964  1
  O  O489  1  0.08738300  0.98170355  0.32654261  1
  O  O490  1  0.09002884  0.98046203  0.57676657  1
  O  O491  1  0.08660789  0.98300560  0.82751724  1
  O  O492  1  0.58916999  0.31629247  0.07780196  1
  O  O493  1  0.58743991  0.31444874  0.32810212  1
  O  O494  1  0.58644388  0.31538047  0.57733930  1
  O  O495  1  0.58879348  0.31450379  0.82908919  1
  O  O496  1  0.58635272  0.64739325  0.07695818  1
  O  O497  1  0.58888504  0.64844358  0.32853949  1
  O  O498  1  0.58674479  0.64822015  0.57704489  1
  O  O499  1  0.58644104  0.64906183  0.82800296  1
  O  O500  1  0.58746095  0.98182329  0.07699942  1
  O  O501  1  0.58553307  0.98238060  0.32734105  1
  O  O502  1  0.58541652  0.98188982  0.57727899  1
  O  O503  1  0.58611245  0.98164952  0.82806239  1
  O  O504  1  0.41224768  0.01891968  0.17182851  1
  O  O505  1  0.41241238  0.01836651  0.42251717  1
  O  O506  1  0.41280477  0.01846160  0.67180959  1
  O  O507  1  0.41332910  0.01755848  0.92280934  1
  O  O508  1  0.41434574  0.35219474  0.17267773  1
  O  O509  1  0.41433399  0.35102678  0.42225952  1
  O  O510  1  0.41388383  0.35147383  0.67292884  1
  O  O511  1  0.41359179  0.35225696  0.92295885  1
  O  O512  1  0.41224266  0.68314091  0.17176502  1
  O  O513  1  0.41360188  0.68564574  0.42246197  1
  O  O514  1  0.41397756  0.68442391  0.67180359  1
  O  O515  1  0.41300859  0.68533020  0.92266975  1
  O  O516  1  0.91008818  0.01909319  0.17251971  1
  O  O517  1  0.91181162  0.01698485  0.42191641  1
  O  O518  1  0.91314215  0.01829112  0.67219577  1
  O  O519  1  0.91291367  0.01794099  0.92254675  1
  O  O520  1  0.91252079  0.35108017  0.17336736  1
  O  O521  1  0.90979808  0.35300089  0.42356566  1
  O  O522  1  0.91127393  0.35254120  0.67148862  1
  O  O523  1  0.91228181  0.35061760  0.92219894  1
  O  O524  1  0.91119990  0.68470365  0.17186383  1
  O  O525  1  0.91234348  0.68502026  0.42269830  1
  O  O526  1  0.91447747  0.68369577  0.67194539  1
  O  O527  1  0.91120484  0.68660268  0.92296459  1
  O  O528  1  0.16257536  0.01686424  0.20262431  1
  O  O529  1  0.16443205  0.01851573  0.45287520  1
  O  O530  1  0.16246978  0.01722271  0.70341596  1
  O  O531  1  0.16225316  0.01924917  0.95128884  1
  O  O532  1  0.16062677  0.35250972  0.20178836  1
  O  O533  1  0.16301844  0.35143692  0.45286813  1
  O  O534  1  0.16464092  0.35202861  0.70202658  1
  O  O535  1  0.16213741  0.35025877  0.95304173  1
  O  O536  1  0.16157864  0.68526175  0.20232280  1
  O  O537  1  0.16185856  0.68435914  0.45369373  1
  O  O538  1  0.16192508  0.68585752  0.70207251  1
  O  O539  1  0.16513197  0.68468175  0.95173307  1
  O  O540  1  0.66427088  0.01794159  0.20227764  1
  O  O541  1  0.65973517  0.01945388  0.45171103  1
  O  O542  1  0.66084851  0.01770843  0.70197000  1
  O  O543  1  0.66403526  0.01897917  0.95172210  1
  O  O544  1  0.66293185  0.35181151  0.20214663  1
  O  O545  1  0.66155879  0.35170186  0.45239324  1
  O  O546  1  0.66018919  0.35190054  0.70252439  1
  O  O547  1  0.66145183  0.35087630  0.95343867  1
  O  O548  1  0.66273390  0.68530130  0.20279340  1
  O  O549  1  0.66089457  0.68373589  0.45292801  1
  O  O550  1  0.66068370  0.68544617  0.70185998  1
  O  O551  1  0.66410464  0.68506627  0.95165675  1
  O  O552  1  0.33541092  0.31375649  0.04800961  1
  O  O553  1  0.33820558  0.31542112  0.29813729  1
  O  O554  1  0.33876486  0.31409815  0.54781369  1
  O  O555  1  0.33885595  0.31613464  0.79712475  1
  O  O556  1  0.33894996  0.64941321  0.04718096  1
  O  O557  1  0.33590102  0.64799159  0.29737680  1
  O  O558  1  0.33651725  0.64835494  0.54838317  1
  O  O559  1  0.34059393  0.64699849  0.79754234  1
  O  O560  1  0.33817513  0.98264671  0.04581511  1
  O  O561  1  0.33653004  0.98123091  0.29836193  1
  O  O562  1  0.33782917  0.98271502  0.54759930  1
  O  O563  1  0.33791329  0.98116861  0.79792314  1
  O  O564  1  0.83781244  0.31413818  0.04794901  1
  O  O565  1  0.83824513  0.31538875  0.29719324  1
  O  O566  1  0.83413087  0.31611420  0.54775679  1
  O  O567  1  0.83754616  0.31490280  0.79840823  1
  O  O568  1  0.83811992  0.64952372  0.04761309  1
  O  O569  1  0.83955992  0.64707739  0.29863780  1
  O  O570  1  0.83669375  0.64736634  0.54849494  1
  O  O571  1  0.83738981  0.64856938  0.79663789  1
  O  O572  1  0.83994571  0.98180813  0.04699661  1
  O  O573  1  0.83889734  0.98284241  0.29804944  1
  O  O574  1  0.83705398  0.98169890  0.54736560  1
  O  O575  1  0.83789103  0.98173618  0.79786211  1
  O  O576  1  0.41233083  0.14914269  0.17175898  1
  O  O577  1  0.41282477  0.14845436  0.42286028  1
  O  O578  1  0.41285615  0.14875814  0.67193451  1
  O  O579  1  0.41357841  0.14743780  0.92399402  1
  O  O580  1  0.41467765  0.48234953  0.17265813  1
  O  O581  1  0.41451803  0.48114166  0.42258581  1
  O  O582  1  0.41342318  0.48165755  0.67233201  1
  O  O583  1  0.41356196  0.48233217  0.92187678  1
  O  O584  1  0.41125457  0.81351698  0.17222559  1
  O  O585  1  0.41385731  0.81582766  0.42196249  1
  O  O586  1  0.41356400  0.81460000  0.67203252  1
  O  O587  1  0.41351484  0.81538978  0.92299335  1
  O  O588  1  0.91044745  0.14937873  0.17229487  1
  O  O589  1  0.91171026  0.14720996  0.42289481  1
  O  O590  1  0.91290247  0.14849298  0.67206466  1
  O  O591  1  0.91256012  0.14797511  0.92288486  1
  O  O592  1  0.91228046  0.48114856  0.17342058  1
  O  O593  1  0.91055679  0.48301001  0.42243509  1
  O  O594  1  0.91164246  0.48291762  0.67079568  1
  O  O595  1  0.91185368  0.48078597  0.92235823  1
  O  O596  1  0.91125876  0.81500466  0.17202637  1
  O  O597  1  0.91265872  0.81530091  0.42291649  1
  O  O598  1  0.91424698  0.81382848  0.67248583  1
  O  O599  1  0.91222068  0.81671134  0.92210600  1
  O  O600  1  0.08602134  0.18613418  0.07665230  1
  O  O601  1  0.08732303  0.18470468  0.32766749  1
  O  O602  1  0.08871757  0.18546603  0.57621811  1
  O  O603  1  0.08636036  0.18367687  0.82812889  1
  O  O604  1  0.08605391  0.51691563  0.07837545  1
  O  O605  1  0.08694765  0.51831944  0.32687543  1
  O  O606  1  0.08705923  0.51890440  0.57613352  1
  O  O607  1  0.08703644  0.51835111  0.82703692  1
  O  O608  1  0.08581347  0.85198743  0.07737171  1
  O  O609  1  0.08766416  0.85175396  0.32704335  1
  O  O610  1  0.08967976  0.85037713  0.57795592  1
  O  O611  1  0.08726662  0.85298889  0.82720515  1
  O  O612  1  0.58960910  0.18625442  0.07666740  1
  O  O613  1  0.58690428  0.18417189  0.32835429  1
  O  O614  1  0.58670615  0.18531680  0.57724859  1
  O  O615  1  0.58840092  0.18396549  0.82887843  1
  O  O616  1  0.58646887  0.51727718  0.07778121  1
  O  O617  1  0.58880074  0.51799782  0.32838163  1
  O  O618  1  0.58681297  0.51818156  0.57711825  1
  O  O619  1  0.58624000  0.51883467  0.82760972  1
  O  O620  1  0.58787532  0.85171786  0.07727794  1
  O  O621  1  0.58559959  0.85208231  0.32729195  1
  O  O622  1  0.58592295  0.85178687  0.57754421  1
  O  O623  1  0.58578833  0.85139915  0.82813288  1
  O  O624  1  0.33526795  0.18355043  0.04705530  1
  O  O625  1  0.33851348  0.18543698  0.29803916  1
  O  O626  1  0.33801260  0.18396363  0.54750696  1
  O  O627  1  0.33889592  0.18591128  0.79741673  1
  O  O628  1  0.33982836  0.51918861  0.04796142  1
  O  O629  1  0.33570032  0.51793780  0.29763533  1
  O  O630  1  0.33722485  0.51853705  0.54785830  1
  O  O631  1  0.33938413  0.51677989  0.79730872  1
  O  O632  1  0.33843017  0.85215992  0.04626173  1
  O  O633  1  0.33605757  0.85133586  0.29876159  1
  O  O634  1  0.33808621  0.85253206  0.54818330  1
  O  O635  1  0.33789632  0.85127510  0.79756559  1
  O  O636  1  0.83755428  0.18405208  0.04721313  1
  O  O637  1  0.83829305  0.18514049  0.29715811  1
  O  O638  1  0.83421768  0.18596127  0.54824070  1
  O  O639  1  0.83784632  0.18493505  0.79821844  1
  O  O640  1  0.83860733  0.51935646  0.04832339  1
  O  O641  1  0.83872022  0.51688954  0.29795756  1
  O  O642  1  0.83650403  0.51736986  0.54742657  1
  O  O643  1  0.83718863  0.51846499  0.79675817  1
  O  O644  1  0.83939349  0.85149756  0.04711282  1
  O  O645  1  0.83961996  0.85272361  0.29877850  1
  O  O646  1  0.83677954  0.85150381  0.54783282  1
  O  O647  1  0.83822680  0.85188372  0.79765051  1
  O  O648  1  0.16204663  0.14711737  0.20241930  1
  O  O649  1  0.16473937  0.14868734  0.45272019  1
  O  O650  1  0.16212949  0.14762095  0.70289118  1
  O  O651  1  0.16264098  0.14927804  0.95169557  1
  O  O652  1  0.16143116  0.48255627  0.20166553  1
  O  O653  1  0.16240223  0.48178027  0.45311666  1
  O  O654  1  0.16518328  0.48202846  0.70213690  1
  O  O655  1  0.16167898  0.48074008  0.95265240  1
  O  O656  1  0.16194790  0.81576490  0.20262013  1
  O  O657  1  0.16161687  0.81483594  0.45414844  1
  O  O658  1  0.16247200  0.81597638  0.70260471  1
  O  O659  1  0.16450545  0.81485700  0.95205632  1
  O  O660  1  0.66371338  0.14804457  0.20268957  1
  O  O661  1  0.66021002  0.14966036  0.45271335  1
  O  O662  1  0.66024295  0.14761883  0.70241222  1
  O  O663  1  0.66448687  0.14889282  0.95224258  1
  O  O664  1  0.66335193  0.48165034  0.20197063  1
  O  O665  1  0.66158214  0.48187048  0.45255531  1
  O  O666  1  0.66048929  0.48179938  0.70191158  1
  O  O667  1  0.66089300  0.48105518  0.95240013  1
  O  O668  1  0.66265495  0.81549989  0.20269910  1
  O  O669  1  0.66029663  0.81397921  0.45188739  1
  O  O670  1  0.66067313  0.81533862  0.70196704  1
  O  O671  1  0.66411814  0.81503524  0.95159338  1
