# generated using pymatgen
data_Na2MnFe(PO4)2
_symmetry_space_group_name_H-M   'P 1'
_cell_length_a   21.08012635
_cell_length_b   18.93230000
_cell_length_c   20.03968473
_cell_angle_alpha   90.00058637
_cell_angle_beta   90.00186034
_cell_angle_gamma   90.00038911
_symmetry_Int_Tables_number   1
_chemical_formula_structural   Na2MnFe(PO4)2
_chemical_formula_sum   'Na96 Mn48 Fe48 P96 O384'
_cell_volume   7997.74350892
_cell_formula_units_Z   48
loop_
 _symmetry_equiv_pos_site_id
 _symmetry_equiv_pos_as_xyz
  1  'x, y, z'
loop_
 _atom_site_type_symbol
 _atom_site_label
 _atom_site_symmetry_multiplicity
 _atom_site_fract_x
 _atom_site_fract_y
 _atom_site_fract_z
 _atom_site_occupancy
  Na  Na0  1  0.00061902  -0.00064391  -0.00037577  1
  Na  Na1  1  0.00035867  -0.00098389  0.25055827  1
  Na  Na2  1  0.00128564  0.00029051  0.49951449  1
  Na  Na3  1  0.00033936  -0.00024279  0.75119091  1
  Na  Na4  1  0.00175176  0.33350035  -0.00043156  1
  Na  Na5  1  0.00232715  0.33438467  0.25058148  1
  Na  Na6  1  -0.00010161  0.33265131  0.50094192  1
  Na  Na7  1  0.00002433  0.33212799  0.74922537  1
  Na  Na8  1  0.00095445  0.66717717  0.00014445  1
  Na  Na9  1  -0.00191065  0.66615290  0.25115684  1
  Na  Na10  1  0.00009799  0.66705643  0.50068792  1
  Na  Na11  1  0.00227005  0.66772127  0.74844222  1
  Na  Na12  1  0.49850462  -0.00044835  -0.00054942  1
  Na  Na13  1  0.49841279  -0.00076907  0.25090513  1
  Na  Na14  1  0.49904934  0.00055968  0.49928117  1
  Na  Na15  1  0.49864465  0.00047064  0.74937462  1
  Na  Na16  1  0.49954534  0.33353918  0.00046815  1
  Na  Na17  1  0.50074157  0.33352121  0.24937852  1
  Na  Na18  1  0.49785682  0.33219420  0.50019324  1
  Na  Na19  1  0.49755076  0.33289804  0.75019834  1
  Na  Na20  1  0.50010311  0.66777361  0.00086611  1
  Na  Na21  1  0.50093269  0.66737099  0.25056551  1
  Na  Na22  1  0.50050783  0.66685337  0.49920929  1
  Na  Na23  1  0.49936681  0.66717946  0.74923975  1
  Na  Na24  1  0.25110591  -0.00062061  0.12424241  1
  Na  Na25  1  0.24996320  -0.00017500  0.37499328  1
  Na  Na26  1  0.25002410  0.00029301  0.62486180  1
  Na  Na27  1  0.25097086  -0.00005717  0.87527338  1
  Na  Na28  1  0.24834743  0.33292471  0.12543704  1
  Na  Na29  1  0.24837542  0.33297092  0.37458113  1
  Na  Na30  1  0.25074157  0.33299677  0.62430160  1
  Na  Na31  1  0.25165729  0.33356524  0.87534137  1
  Na  Na32  1  0.25042878  0.66795456  0.12536593  1
  Na  Na33  1  0.24956070  0.66733490  0.37437504  1
  Na  Na34  1  0.24985330  0.66705236  0.62516921  1
  Na  Na35  1  0.24960186  0.66680564  0.87591984  1
  Na  Na36  1  0.75095375  0.00028873  0.12518650  1
  Na  Na37  1  0.75054813  -0.00006435  0.37508932  1
  Na  Na38  1  0.75051913  0.00054553  0.62539907  1
  Na  Na39  1  0.74965941  -0.00002312  0.87398716  1
  Na  Na40  1  0.74764051  0.33257097  0.12361611  1
  Na  Na41  1  0.75055260  0.33352371  0.37545816  1
  Na  Na42  1  0.75288086  0.33408471  0.62678152  1
  Na  Na43  1  0.75020556  0.33306696  0.87462309  1
  Na  Na44  1  0.74980604  0.66721137  0.12495688  1
  Na  Na45  1  0.74954100  0.66628473  0.37386470  1
  Na  Na46  1  0.74970076  0.66710326  0.62512565  1
  Na  Na47  1  0.74849356  0.66699484  0.87564625  1
  Na  Na48  1  0.00140957  0.16673577  -0.00095948  1
  Na  Na49  1  0.00007103  0.16752849  0.25039807  1
  Na  Na50  1  0.00093420  0.16661274  0.50066068  1
  Na  Na51  1  0.00017653  0.16730205  0.75045232  1
  Na  Na52  1  -0.00051270  0.50059796  -0.00049048  1
  Na  Na53  1  -0.00048905  0.50024093  0.25124956  1
  Na  Na54  1  0.00048095  0.50044374  0.50103825  1
  Na  Na55  1  0.00189605  0.49940650  0.74871905  1
  Na  Na56  1  0.00227442  0.83274810  0.00072215  1
  Na  Na57  1  0.00102305  0.83303670  0.25082597  1
  Na  Na58  1  -0.00015662  0.83373360  0.49925126  1
  Na  Na59  1  0.00026533  0.83402451  0.74972453  1
  Na  Na60  1  0.50010836  0.16604183  0.00040183  1
  Na  Na61  1  0.49838982  0.16675668  0.25021538  1
  Na  Na62  1  0.49775413  0.16671211  0.49925550  1
  Na  Na63  1  0.49840037  0.16675406  0.74928857  1
  Na  Na64  1  0.50028677  0.49973140  0.00053622  1
  Na  Na65  1  0.50294360  0.49952999  0.25032318  1
  Na  Na66  1  0.50152528  0.49957646  0.49933401  1
  Na  Na67  1  0.49924506  0.49971351  0.75012233  1
  Na  Na68  1  0.49797718  0.83300993  -0.00027118  1
  Na  Na69  1  0.49923180  0.83240374  0.25032290  1
  Na  Na70  1  0.49960357  0.83217108  0.50006354  1
  Na  Na71  1  0.49752461  0.83311924  0.74925260  1
  Na  Na72  1  0.25093005  0.16701178  0.12456857  1
  Na  Na73  1  0.25248573  0.16576369  0.37609384  1
  Na  Na74  1  0.24996428  0.16734019  0.62423079  1
  Na  Na75  1  0.25021124  0.16744511  0.87469285  1
  Na  Na76  1  0.24986058  0.49956162  0.12589953  1
  Na  Na77  1  0.24767091  0.50079551  0.37428949  1
  Na  Na78  1  0.24878845  0.50059845  0.62440665  1
  Na  Na79  1  0.25062333  0.49924480  0.87589115  1
  Na  Na80  1  0.24863866  0.83348004  0.12466614  1
  Na  Na81  1  0.24726431  0.83380646  0.37356067  1
  Na  Na82  1  0.25110007  0.83239148  0.62576895  1
  Na  Na83  1  0.25168047  0.83245711  0.87586608  1
  Na  Na84  1  0.74851557  0.16717691  0.12367007  1
  Na  Na85  1  0.74900381  0.16704366  0.37614327  1
  Na  Na86  1  0.75106458  0.16614472  0.62586418  1
  Na  Na87  1  0.75095109  0.16608556  0.87417596  1
  Na  Na88  1  0.74882053  0.50067429  0.12461383  1
  Na  Na89  1  0.75056039  0.50052803  0.37410448  1
  Na  Na90  1  0.74965808  0.50041720  0.62557075  1
  Na  Na91  1  0.74899316  0.49986024  0.87537343  1
  Na  Na92  1  0.75072071  0.83255908  0.12542040  1
  Na  Na93  1  0.75102613  0.83291620  0.37411078  1
  Na  Na94  1  0.75181295  0.83262336  0.62601131  1
  Na  Na95  1  0.74880675  0.83391829  0.87449734  1
  Mn  Mn96  1  0.39121639  0.91623613  0.37767553  1
  Mn  Mn97  1  0.14322511  0.91704321  0.74753670  1
  Mn  Mn98  1  0.64150215  0.24942247  0.99653289  1
  Mn  Mn99  1  0.39228704  0.24973732  0.12752212  1
  Mn  Mn100  1  0.60739243  0.41567052  0.62249804  1
  Mn  Mn101  1  0.39154503  0.58319704  0.87767521  1
  Mn  Mn102  1  0.64231706  0.25067603  0.49876155  1
  Mn  Mn103  1  0.60718073  0.08224055  0.12304573  1
  Mn  Mn104  1  0.35706830  0.41743424  0.50161852  1
  Mn  Mn105  1  0.39142744  0.58236590  0.62646894  1
  Mn  Mn106  1  0.39286417  0.58272015  0.37706061  1
  Mn  Mn107  1  0.39114778  0.91690639  0.62678286  1
  Mn  Mn108  1  0.60695913  0.08296815  0.37298387  1
  Mn  Mn109  1  0.60890160  0.41629561  0.37296293  1
  Mn  Mn110  1  0.64265196  0.91586322  0.49811306  1
  Mn  Mn111  1  0.89253459  0.58361655  0.62755910  1
  Mn  Mn112  1  0.64214755  0.91660999  0.24720048  1
  Mn  Mn113  1  0.89271051  0.91642460  0.87778598  1
  Mn  Mn114  1  0.10894688  0.08350376  0.37239130  1
  Mn  Mn115  1  0.14193501  0.58328003  0.99811518  1
  Mn  Mn116  1  0.35803561  0.08327717  0.00222017  1
  Mn  Mn117  1  0.14256083  0.24907139  0.24794496  1
  Mn  Mn118  1  0.39270535  0.58371308  0.12781321  1
  Mn  Mn119  1  0.64127326  0.91699276  0.99803651  1
  Mn  Mn120  1  0.89306319  0.58335496  0.87682046  1
  Mn  Mn121  1  0.35766010  0.41695315  0.25258934  1
  Mn  Mn122  1  0.60724779  0.75046552  0.62211684  1
  Mn  Mn123  1  0.10849528  0.41587906  0.62256997  1
  Mn  Mn124  1  0.85841746  0.08336251  0.50318276  1
  Mn  Mn125  1  0.10855614  0.08322424  0.87232322  1
  Mn  Mn126  1  0.64198841  0.24972704  0.74792954  1
  Mn  Mn127  1  0.14117834  0.58403018  0.24746010  1
  Mn  Mn128  1  0.10844517  0.75126939  0.62222231  1
  Mn  Mn129  1  0.85815033  0.75024047  0.00200844  1
  Mn  Mn130  1  0.89299028  0.91654813  0.37743494  1
  Mn  Mn131  1  0.85768198  0.41676848  0.00222526  1
  Mn  Mn132  1  0.85802124  0.08302347  0.00215201  1
  Mn  Mn133  1  0.64111662  0.58336777  0.74788062  1
  Mn  Mn134  1  0.89261224  0.25021852  0.12735828  1
  Mn  Mn135  1  0.85773398  0.41645812  0.25153472  1
  Mn  Mn136  1  0.89190879  0.25063345  0.37733309  1
  Mn  Mn137  1  0.85816199  0.75019761  0.75283604  1
  Mn  Mn138  1  0.85793997  0.08376390  0.25182741  1
  Mn  Mn139  1  0.64184117  0.58368523  0.99763197  1
  Mn  Mn140  1  0.85814182  0.41664638  0.75292513  1
  Mn  Mn141  1  0.10853157  0.08342011  0.12265880  1
  Mn  Mn142  1  0.64141016  0.91703331  0.74761702  1
  Mn  Mn143  1  0.10891624  0.41727504  0.87227326  1
  Fe  Fe144  1  0.35713874  0.41683153  0.75175065  1
  Fe  Fe145  1  0.89260919  0.58370464  0.12649137  1
  Fe  Fe146  1  0.89387018  0.25018748  0.87677631  1
  Fe  Fe147  1  0.35666769  0.75013019  0.25196988  1
  Fe  Fe148  1  0.89376348  0.24870873  0.62704140  1
  Fe  Fe149  1  0.10661154  0.41729481  0.37406598  1
  Fe  Fe150  1  0.14338760  0.91686276  0.99872633  1
  Fe  Fe151  1  0.60683398  0.75040749  0.12345386  1
  Fe  Fe152  1  0.35705904  0.74958386  0.75223411  1
  Fe  Fe153  1  0.14218858  0.58378982  0.49773357  1
  Fe  Fe154  1  0.39145437  0.25002829  0.62659612  1
  Fe  Fe155  1  0.64168216  0.25017978  0.24869714  1
  Fe  Fe156  1  0.35645680  0.74990036  0.50038096  1
  Fe  Fe157  1  0.85740639  0.74977177  0.50128937  1
  Fe  Fe158  1  0.60643608  0.08320739  0.87260638  1
  Fe  Fe159  1  0.85774329  0.08326725  0.75160456  1
  Fe  Fe160  1  0.89331867  0.91777609  0.62636237  1
  Fe  Fe161  1  0.39249648  0.91699064  0.87659687  1
  Fe  Fe162  1  0.39240505  0.25068414  0.37639597  1
  Fe  Fe163  1  0.85804470  0.41730593  0.50175687  1
  Fe  Fe164  1  0.35639757  0.08284716  0.50219892  1
  Fe  Fe165  1  0.35695909  0.74933504  0.00231840  1
  Fe  Fe166  1  0.35741941  0.41717494  0.00239701  1
  Fe  Fe167  1  0.14355945  0.58294420  0.74877076  1
  Fe  Fe168  1  0.35738860  0.08262980  0.25167611  1
  Fe  Fe169  1  0.14253913  0.91649857  0.49868821  1
  Fe  Fe170  1  0.89359127  0.91612991  0.12643766  1
  Fe  Fe171  1  0.10743855  0.41733975  0.12321436  1
  Fe  Fe172  1  0.10789649  0.08321149  0.62411916  1
  Fe  Fe173  1  0.60593321  0.41641718  0.87332206  1
  Fe  Fe174  1  0.39175071  0.91596377  0.12690194  1
  Fe  Fe175  1  0.14308008  0.91686500  0.24773291  1
  Fe  Fe176  1  0.10696753  0.74916985  0.37329973  1
  Fe  Fe177  1  0.60783265  0.75028209  0.37318125  1
  Fe  Fe178  1  0.39235316  0.24975700  0.87656401  1
  Fe  Fe179  1  0.60585517  0.75036785  0.87348226  1
  Fe  Fe180  1  0.60638674  0.08361846  0.62328438  1
  Fe  Fe181  1  0.85755876  0.74997519  0.25146902  1
  Fe  Fe182  1  0.35726638  0.08352339  0.75155383  1
  Fe  Fe183  1  0.64343582  0.58357322  0.49834271  1
  Fe  Fe184  1  0.60741179  0.41686147  0.12306882  1
  Fe  Fe185  1  0.14308255  0.25008624  0.49818510  1
  Fe  Fe186  1  0.14374533  0.25021025  0.74830814  1
  Fe  Fe187  1  0.89236844  0.58323518  0.37737532  1
  Fe  Fe188  1  0.10859023  0.74996474  0.87345162  1
  Fe  Fe189  1  0.64369359  0.58319362  0.24788681  1
  Fe  Fe190  1  0.14323743  0.24992909  0.99811773  1
  Fe  Fe191  1  0.10685071  0.74940753  0.12379495  1
  P  P192  1  0.05453223  0.25069870  0.10922861  1
  P  P193  1  0.05467485  0.25095287  0.36158256  1
  P  P194  1  0.05509650  0.24874559  0.61102673  1
  P  P195  1  0.05518076  0.25024661  0.85996678  1
  P  P196  1  0.05191938  0.58367969  0.11048752  1
  P  P197  1  0.05321262  0.58352013  0.36180821  1
  P  P198  1  0.05592338  0.58352257  0.61052425  1
  P  P199  1  0.05459659  0.58434612  0.85881428  1
  P  P200  1  0.05470009  0.91577229  0.11094078  1
  P  P201  1  0.05621328  0.91565743  0.36063712  1
  P  P202  1  0.05324128  0.91797312  0.60963454  1
  P  P203  1  0.05562468  0.91568452  0.86124052  1
  P  P204  1  0.55448517  0.25026081  0.11096087  1
  P  P205  1  0.55250968  0.24976963  0.35972938  1
  P  P206  1  0.55130128  0.24890813  0.61011170  1
  P  P207  1  0.55144128  0.24993066  0.85983504  1
  P  P208  1  0.55500654  0.58390909  0.11164442  1
  P  P209  1  0.55630203  0.58426675  0.36055275  1
  P  P210  1  0.55353067  0.58311280  0.60874857  1
  P  P211  1  0.55249301  0.58359767  0.86030944  1
  P  P212  1  0.55110597  0.91544615  0.11008911  1
  P  P213  1  0.55310807  0.91552860  0.36019690  1
  P  P214  1  0.55235420  0.91774886  0.60956665  1
  P  P215  1  0.55140684  0.91645403  0.85988596  1
  P  P216  1  0.44556740  0.08200667  0.14075792  1
  P  P217  1  0.44367261  0.08385861  0.38943527  1
  P  P218  1  0.44471904  0.08398055  0.63903462  1
  P  P219  1  0.44598629  0.08357247  0.88835348  1
  P  P220  1  0.44686390  0.41705054  0.13938016  1
  P  P221  1  0.44724890  0.41608224  0.38991261  1
  P  P222  1  0.44536875  0.41597109  0.64033711  1
  P  P223  1  0.44515244  0.41592608  0.88968667  1
  P  P224  1  0.44543651  0.75053926  0.13989376  1
  P  P225  1  0.44606709  0.74957075  0.38945452  1
  P  P226  1  0.44380780  0.74946067  0.63885906  1
  P  P227  1  0.44497756  0.75040565  0.88947751  1
  P  P228  1  0.94761871  0.08249946  0.13996601  1
  P  P229  1  0.94723664  0.08358936  0.39024618  1
  P  P230  1  0.94798905  0.08306848  0.64073494  1
  P  P231  1  0.94612717  0.08412006  0.88883265  1
  P  P232  1  0.94821245  0.41730750  0.13991888  1
  P  P233  1  0.94689208  0.41755174  0.39091049  1
  P  P234  1  0.94579155  0.41582710  0.63889520  1
  P  P235  1  0.94748934  0.41587004  0.88976591  1
  P  P236  1  0.94720874  0.75023406  0.14059426  1
  P  P237  1  0.94594509  0.74917664  0.38945559  1
  P  P238  1  0.94575441  0.75135447  0.63860169  1
  P  P239  1  0.94895648  0.74994223  0.89013755  1
  P  P240  1  0.19862900  0.08246570  0.23481789  1
  P  P241  1  0.19634528  0.08328246  0.48666793  1
  P  P242  1  0.19788404  0.08428935  0.73449632  1
  P  P243  1  0.19700034  0.08334095  0.98499622  1
  P  P244  1  0.19448238  0.41694370  0.23565420  1
  P  P245  1  0.19572263  0.41663589  0.48425769  1
  P  P246  1  0.19828022  0.41626381  0.73503460  1
  P  P247  1  0.19675267  0.41618984  0.98642082  1
  P  P248  1  0.19536515  0.75060415  0.23542564  1
  P  P249  1  0.19675151  0.75027128  0.48430171  1
  P  P250  1  0.19702481  0.74944482  0.73650905  1
  P  P251  1  0.19583476  0.75052496  0.98625657  1
  P  P252  1  0.69643482  0.08409593  0.23497010  1
  P  P253  1  0.69557408  0.08334645  0.48648019  1
  P  P254  1  0.69548476  0.08348585  0.73523098  1
  P  P255  1  0.69559790  0.08275375  0.98341495  1
  P  P256  1  0.69611925  0.41675920  0.23424466  1
  P  P257  1  0.69856501  0.41723499  0.48550245  1
  P  P258  1  0.69505702  0.41629086  0.73622662  1
  P  P259  1  0.69444178  0.41668535  0.98477395  1
  P  P260  1  0.69612052  0.74930123  0.23544042  1
  P  P261  1  0.69759186  0.74953313  0.48429307  1
  P  P262  1  0.69483878  0.75034106  0.73604269  1
  P  P263  1  0.69465305  0.75071565  0.98530987  1
  P  P264  1  0.30384794  0.25094555  0.01388435  1
  P  P265  1  0.30401902  0.24941459  0.26559043  1
  P  P266  1  0.30397307  0.24987761  0.51389791  1
  P  P267  1  0.30423608  0.24994639  0.76402521  1
  P  P268  1  0.30333638  0.58329119  0.01568258  1
  P  P269  1  0.30309961  0.58444139  0.26497182  1
  P  P270  1  0.30150385  0.58430103  0.51404342  1
  P  P271  1  0.30229983  0.58295988  0.76500205  1
  P  P272  1  0.30442912  0.91559381  0.01424706  1
  P  P273  1  0.30336735  0.91593106  0.26353142  1
  P  P274  1  0.30155894  0.91591935  0.51455118  1
  P  P275  1  0.30421678  0.91696686  0.76556005  1
  P  P276  1  0.80435156  0.24997906  0.01362351  1
  P  P277  1  0.80150829  0.25024459  0.26487069  1
  P  P278  1  0.80438095  0.25094974  0.51644288  1
  P  P279  1  0.80576198  0.24866297  0.76465572  1
  P  P280  1  0.80396212  0.58365853  0.01564948  1
  P  P281  1  0.80490618  0.58409528  0.26391939  1
  P  P282  1  0.80386101  0.58370536  0.51380203  1
  P  P283  1  0.80287877  0.58362804  0.76570219  1
  P  P284  1  0.80366472  0.91651791  0.01591140  1
  P  P285  1  0.80510006  0.91585435  0.26364363  1
  P  P286  1  0.80435635  0.91563037  0.51579168  1
  P  P287  1  0.80481470  0.91784435  0.76392736  1
  O  O288  1  0.05728365  0.24965785  0.18609233  1
  O  O289  1  0.05893049  0.24970453  0.43835084  1
  O  O290  1  0.06012805  0.24976640  0.68772875  1
  O  O291  1  0.06018474  0.25018770  0.93666571  1
  O  O292  1  0.05502049  0.58357068  0.18724511  1
  O  O293  1  0.05795706  0.58407680  0.43849205  1
  O  O294  1  0.06078856  0.58334676  0.68725746  1
  O  O295  1  0.05708456  0.58343106  0.93567288  1
  O  O296  1  0.05918944  0.91691100  0.18770496  1
  O  O297  1  0.06022743  0.91665865  0.43745399  1
  O  O298  1  0.05707958  0.91698507  0.68638359  1
  O  O299  1  0.05999417  0.91642291  0.93801577  1
  O  O300  1  0.55838086  0.24981982  0.18774007  1
  O  O301  1  0.55640743  0.24984866  0.43645071  1
  O  O302  1  0.55547154  0.24964142  0.68673845  1
  O  O303  1  0.55488169  0.24979940  0.93657028  1
  O  O304  1  0.55895214  0.58382801  0.18840932  1
  O  O305  1  0.56044763  0.58350120  0.43735055  1
  O  O306  1  0.55612652  0.58337836  0.68558753  1
  O  O307  1  0.55529735  0.58376903  0.93711613  1
  O  O308  1  0.55521319  0.91598144  0.18677471  1
  O  O309  1  0.55646751  0.91599819  0.43692034  1
  O  O310  1  0.55528411  0.91695908  0.68636432  1
  O  O311  1  0.55475180  0.91644464  0.93657132  1
  O  O312  1  0.44289492  0.08290860  0.06386873  1
  O  O313  1  0.43978488  0.08259917  0.31262320  1
  O  O314  1  0.43987653  0.08303020  0.56226953  1
  O  O315  1  0.44145442  0.08376201  0.81166680  1
  O  O316  1  0.44167741  0.41715318  0.06267447  1
  O  O317  1  0.44414557  0.41708719  0.31314335  1
  O  O318  1  0.44235608  0.41702843  0.56354239  1
  O  O319  1  0.44028386  0.41690925  0.81295547  1
  O  O320  1  0.44061987  0.74976723  0.06314605  1
  O  O321  1  0.44091331  0.74972816  0.31279991  1
  O  O322  1  0.43922993  0.74945092  0.56207336  1
  O  O323  1  0.44036346  0.74927313  0.81270052  1
  O  O324  1  0.94477093  0.08295680  0.06315222  1
  O  O325  1  0.94363365  0.08361620  0.31348175  1
  O  O326  1  0.94467745  0.08319670  0.56396905  1
  O  O327  1  0.94212929  0.08336838  0.81211940  1
  O  O328  1  0.94434723  0.41668616  0.06324118  1
  O  O329  1  0.94331391  0.41684851  0.31416174  1
  O  O330  1  0.94173433  0.41698998  0.56215786  1
  O  O331  1  0.94453684  0.41623015  0.81294689  1
  O  O332  1  0.94408231  0.75032670  0.06386399  1
  O  O333  1  0.94135521  0.74980295  0.31278063  1
  O  O334  1  0.94156574  0.75025702  0.56187055  1
  O  O335  1  0.94497453  0.75024030  0.81340698  1
  O  O336  1  0.19436468  0.08327165  0.06176419  1
  O  O337  1  0.19511695  0.08312517  0.31158156  1
  O  O338  1  0.19191393  0.08337007  0.56331052  1
  O  O339  1  0.19439112  0.08369196  0.81122117  1
  O  O340  1  0.19161460  0.41701892  0.06309896  1
  O  O341  1  0.18992648  0.41739884  0.31236538  1
  O  O342  1  0.19370016  0.41635184  0.56113166  1
  O  O343  1  0.19514371  0.41602935  0.81177210  1
  O  O344  1  0.19088488  0.74974973  0.06292519  1
  O  O345  1  0.19057901  0.74932205  0.31208455  1
  O  O346  1  0.19404974  0.75027795  0.56112334  1
  O  O347  1  0.19276838  0.75007726  0.81319711  1
  O  O348  1  0.69204554  0.08271909  0.06020643  1
  O  O349  1  0.69326709  0.08314248  0.31178077  1
  O  O350  1  0.69085107  0.08346154  0.56321954  1
  O  O351  1  0.68983456  0.08344160  0.81192445  1
  O  O352  1  0.69017464  0.41666399  0.06157819  1
  O  O353  1  0.69407122  0.41658631  0.31109335  1
  O  O354  1  0.69463805  0.41637503  0.56221707  1
  O  O355  1  0.68981402  0.41593389  0.81294428  1
  O  O356  1  0.69041052  0.75086649  0.06209622  1
  O  O357  1  0.69168143  0.75044859  0.31211132  1
  O  O358  1  0.69376556  0.75035627  0.56106006  1
  O  O359  1  0.68963452  0.75061878  0.81277230  1
  O  O360  1  0.30678872  0.25051850  0.18872610  1
  O  O361  1  0.30851065  0.25064939  0.43725248  1
  O  O362  1  0.30806913  0.24988365  0.68724566  1
  O  O363  1  0.30853516  0.25030857  0.93716736  1
  O  O364  1  0.30660503  0.58371454  0.18825010  1
  O  O365  1  0.30569732  0.58353694  0.43741248  1
  O  O366  1  0.30531609  0.58308953  0.68830829  1
  O  O367  1  0.30611527  0.58319071  0.93888939  1
  O  O368  1  0.30761055  0.91572958  0.18684462  1
  O  O369  1  0.30463078  0.91604146  0.43775569  1
  O  O370  1  0.30629660  0.91702833  0.68879687  1
  O  O371  1  0.30912132  0.91639727  0.93755138  1
  O  O372  1  0.80556636  0.25020255  0.18814626  1
  O  O373  1  0.80686990  0.24996056  0.43957377  1
  O  O374  1  0.81027492  0.24917336  0.68790122  1
  O  O375  1  0.80933341  0.25021840  0.93693775  1
  O  O376  1  0.80964361  0.58359332  0.18720044  1
  O  O377  1  0.80811633  0.58348405  0.43702292  1
  O  O378  1  0.80650343  0.58376066  0.68886553  1
  O  O379  1  0.80737741  0.58361243  0.93888912  1
  O  O380  1  0.80964799  0.91630513  0.18693431  1
  O  O381  1  0.80723609  0.91666839  0.43894712  1
  O  O382  1  0.80942765  0.91739269  0.68723671  1
  O  O383  1  0.80685017  0.91630394  0.93906002  1
  O  O384  1  0.23360080  0.25018471  0.03787716  1
  O  O385  1  0.23430332  0.24951936  0.29068785  1
  O  O386  1  0.23350851  0.25038249  0.53751818  1
  O  O387  1  0.23393801  0.25013783  0.78827498  1
  O  O388  1  0.23375373  0.58364693  0.04115735  1
  O  O389  1  0.23321943  0.58424406  0.28949642  1
  O  O390  1  0.23141472  0.58389390  0.53852130  1
  O  O391  1  0.23250977  0.58283724  0.79057682  1
  O  O392  1  0.23398225  0.91636313  0.03778600  1
  O  O393  1  0.23316778  0.91614471  0.28776328  1
  O  O394  1  0.23175496  0.91600732  0.54001332  1
  O  O395  1  0.23463582  0.91654094  0.79123968  1
  O  O396  1  0.73408508  0.24983730  0.03690116  1
  O  O397  1  0.73152313  0.25055073  0.28961931  1
  O  O398  1  0.73473925  0.25024345  0.54198789  1
  O  O399  1  0.73549023  0.24936719  0.78831082  1
  O  O400  1  0.73405651  0.58389972  0.04007481  1
  O  O401  1  0.73439555  0.58337497  0.28719523  1
  O  O402  1  0.73366424  0.58387886  0.53821721  1
  O  O403  1  0.73315083  0.58352318  0.79051378  1
  O  O404  1  0.73388077  0.91658781  0.04075886  1
  O  O405  1  0.73501672  0.91624291  0.28773048  1
  O  O406  1  0.73469345  0.91628560  0.54110033  1
  O  O407  1  0.73466227  0.91734929  0.78784712  1
  O  O408  1  0.26853115  0.08288290  0.20985801  1
  O  O409  1  0.26666751  0.08315472  0.46254723  1
  O  O410  1  0.26794909  0.08374149  0.71001519  1
  O  O411  1  0.26661233  0.08342876  0.95950772  1
  O  O412  1  0.26470946  0.41661230  0.21201425  1
  O  O413  1  0.26525821  0.41687827  0.45847795  1
  O  O414  1  0.26812965  0.41636602  0.70978791  1
  O  O415  1  0.26708782  0.41665771  0.96270511  1
  O  O416  1  0.26575371  0.75040780  0.21184840  1
  O  O417  1  0.26666625  0.75036557  0.45899511  1
  O  O418  1  0.26731753  0.75008200  0.71251614  1
  O  O419  1  0.26636249  0.74968096  0.96291540  1
  O  O420  1  0.76603276  0.08384129  0.20952947  1
  O  O421  1  0.76574980  0.08337339  0.46271526  1
  O  O422  1  0.76612087  0.08350630  0.71251410  1
  O  O423  1  0.76548061  0.08276744  0.95899260  1
  O  O424  1  0.76565862  0.41683517  0.20834367  1
  O  O425  1  0.76851194  0.41706507  0.46060895  1
  O  O426  1  0.76533004  0.41658571  0.71297673  1
  O  O427  1  0.76461602  0.41679049  0.96106249  1
  O  O428  1  0.76655486  0.74958386  0.21176271  1
  O  O429  1  0.76768343  0.74975733  0.45978638  1
  O  O430  1  0.76507700  0.75013328  0.71267534  1
  O  O431  1  0.76479340  0.75045167  0.96134512  1
  O  O432  1  0.01723646  0.08308558  0.16553721  1
  O  O433  1  0.01710219  0.08337397  0.41478507  1
  O  O434  1  0.01803498  0.08340790  0.66562516  1
  O  O435  1  0.01615065  0.08339503  0.91311915  1
  O  O436  1  0.01821912  0.41721614  0.16471195  1
  O  O437  1  0.01692408  0.41709664  0.41561249  1
  O  O438  1  0.01592452  0.41569893  0.66302976  1
  O  O439  1  0.01719036  0.41674076  0.91484091  1
  O  O440  1  0.01726467  0.74992156  0.16554263  1
  O  O441  1  0.01639086  0.74993705  0.41311347  1
  O  O442  1  0.01592865  0.75104403  0.66261951  1
  O  O443  1  0.01892755  0.74986975  0.91476218  1
  O  O444  1  0.51517646  0.08269521  0.16605762  1
  O  O445  1  0.51375840  0.08325431  0.41347709  1
  O  O446  1  0.51503624  0.08371008  0.66277977  1
  O  O447  1  0.51618885  0.08321786  0.91265984  1
  O  O448  1  0.51725968  0.41692415  0.16276983  1
  O  O449  1  0.51690437  0.41587534  0.41517978  1
  O  O450  1  0.51505983  0.41628978  0.66547420  1
  O  O451  1  0.51559440  0.41651714  0.91321702  1
  O  O452  1  0.51586620  0.74992052  0.16336813  1
  O  O453  1  0.51653637  0.74957941  0.41274700  1
  O  O454  1  0.51404426  0.75002398  0.66242243  1
  O  O455  1  0.51536432  0.75018405  0.91316494  1
  O  O456  1  0.48446343  0.24969254  0.08654467  1
  O  O457  1  0.48238008  0.25004852  0.33537724  1
  O  O458  1  0.48116590  0.24935779  0.58579276  1
  O  O459  1  0.48140312  0.24993347  0.83505606  1
  O  O460  1  0.48511243  0.58401132  0.08692344  1
  O  O461  1  0.48617407  0.58349095  0.33645811  1
  O  O462  1  0.48380955  0.58303468  0.58356437  1
  O  O463  1  0.48285955  0.58357805  0.83479200  1
  O  O464  1  0.48110498  0.91591955  0.08544676  1
  O  O465  1  0.48323086  0.91573562  0.33550256  1
  O  O466  1  0.48271891  0.91684287  0.58424628  1
  O  O467  1  0.48139783  0.91659863  0.83488021  1
  O  O468  1  0.98488908  0.25000135  0.08393669  1
  O  O469  1  0.98474922  0.25093495  0.33703669  1
  O  O470  1  0.98455863  0.24907793  0.58782102  1
  O  O471  1  0.98478980  0.25009387  0.83659853  1
  O  O472  1  0.98207512  0.58404157  0.08523799  1
  O  O473  1  0.98293586  0.58333301  0.33789233  1
  O  O474  1  0.98562798  0.58370597  0.58725382  1
  O  O475  1  0.98514094  0.58348472  0.83297472  1
  O  O476  1  0.98438930  0.91581637  0.08698905  1
  O  O477  1  0.98604114  0.91610936  0.33690277  1
  O  O478  1  0.98324509  0.91745618  0.58498847  1
  O  O479  1  0.98560528  0.91649677  0.83715115  1
  O  O480  1  0.08848530  0.31613177  0.07728951  1
  O  O481  1  0.08821701  0.31630787  0.32928616  1
  O  O482  1  0.08847780  0.31357713  0.57714538  1
  O  O483  1  0.08852557  0.31524490  0.82644657  1
  O  O484  1  0.08614987  0.64879133  0.07825741  1
  O  O485  1  0.08641383  0.64855136  0.32811800  1
  O  O486  1  0.08933197  0.64856169  0.57716400  1
  O  O487  1  0.08874203  0.64973534  0.82708857  1
  O  O488  1  0.08839336  0.98047231  0.07712350  1
  O  O489  1  0.09010966  0.98040688  0.32703569  1
  O  O490  1  0.08713162  0.98324255  0.57745976  1
  O  O491  1  0.08943774  0.98051998  0.82784577  1
  O  O492  1  0.58773119  0.31554812  0.07807193  1
  O  O493  1  0.58676325  0.31464906  0.32697451  1
  O  O494  1  0.58517028  0.31392686  0.57702631  1
  O  O495  1  0.58520194  0.31511165  0.82726993  1
  O  O496  1  0.58847635  0.64923538  0.07883890  1
  O  O497  1  0.58954217  0.64961611  0.32767344  1
  O  O498  1  0.58793993  0.64807562  0.57630818  1
  O  O499  1  0.58648215  0.64879143  0.82796641  1
  O  O500  1  0.58500451  0.98045479  0.07717227  1
  O  O501  1  0.58698229  0.98062344  0.32745069  1
  O  O502  1  0.58603229  0.98318435  0.57761091  1
  O  O503  1  0.58537309  0.98151717  0.82719715  1
  O  O504  1  0.41156961  0.01662943  0.17264624  1
  O  O505  1  0.40965500  0.01908122  0.42294931  1
  O  O506  1  0.41114594  0.01912590  0.67260939  1
  O  O507  1  0.41239488  0.01845575  0.92137041  1
  O  O508  1  0.41350569  0.35199024  0.17255310  1
  O  O509  1  0.41276292  0.35105954  0.42179613  1
  O  O510  1  0.41125363  0.35070510  0.67234617  1
  O  O511  1  0.41212612  0.35056869  0.92270062  1
  O  O512  1  0.41180278  0.68588778  0.17373425  1
  O  O513  1  0.41264902  0.68461790  0.42291543  1
  O  O514  1  0.41069633  0.68427903  0.67229793  1
  O  O515  1  0.41149564  0.68563531  0.92340849  1
  O  O516  1  0.91378705  0.01714367  0.17204818  1
  O  O517  1  0.91331991  0.01848454  0.42282069  1
  O  O518  1  0.91401832  0.01789505  0.67323154  1
  O  O519  1  0.91228927  0.01932131  0.92217588  1
  O  O520  1  0.91453810  0.35218960  0.17300495  1
  O  O521  1  0.91262663  0.35276469  0.42377720  1
  O  O522  1  0.91233394  0.35051685  0.67138141  1
  O  O523  1  0.91378428  0.35058533  0.92217122  1
  O  O524  1  0.91290713  0.68529339  0.17316409  1
  O  O525  1  0.91282533  0.68397176  0.42274934  1
  O  O526  1  0.91227246  0.68641650  0.67216360  1
  O  O527  1  0.91504593  0.68484831  0.92266417  1
  O  O528  1  0.16483224  0.01733650  0.20236701  1
  O  O529  1  0.16316189  0.01812610  0.45342829  1
  O  O530  1  0.16358952  0.01941435  0.70169134  1
  O  O531  1  0.16302160  0.01806454  0.95283259  1
  O  O532  1  0.16087586  0.35197584  0.20255442  1
  O  O533  1  0.16133876  0.35152169  0.45227395  1
  O  O534  1  0.16434691  0.35120412  0.70231435  1
  O  O535  1  0.16383347  0.35104201  0.95296869  1
  O  O536  1  0.16180642  0.68580025  0.20157479  1
  O  O537  1  0.16255169  0.68524953  0.45167265  1
  O  O538  1  0.16388965  0.68435756  0.70336500  1
  O  O539  1  0.16216938  0.68576112  0.95259456  1
  O  O540  1  0.66233432  0.01895861  0.20222086  1
  O  O541  1  0.66224755  0.01824503  0.45312869  1
  O  O542  1  0.66213956  0.01858921  0.70160544  1
  O  O543  1  0.66144153  0.01770116  0.95086248  1
  O  O544  1  0.66142336  0.35186229  0.20211838  1
  O  O545  1  0.66458666  0.35215666  0.45269248  1
  O  O546  1  0.66215444  0.35109479  0.70255920  1
  O  O547  1  0.66075250  0.35179774  0.95140519  1
  O  O548  1  0.66286013  0.68399486  0.20254012  1
  O  O549  1  0.66366320  0.68445276  0.45180243  1
  O  O550  1  0.66146180  0.68533384  0.70267336  1
  O  O551  1  0.66073804  0.68577479  0.95227985  1
  O  O552  1  0.33690084  0.31607891  0.04725994  1
  O  O553  1  0.33829989  0.31435228  0.29835341  1
  O  O554  1  0.33760047  0.31464680  0.54754396  1
  O  O555  1  0.33786469  0.31495039  0.79713788  1
  O  O556  1  0.33772227  0.64848458  0.04762135  1
  O  O557  1  0.33695444  0.64969508  0.29719690  1
  O  O558  1  0.33506370  0.64943019  0.54666984  1
  O  O559  1  0.33621605  0.64802835  0.79770304  1
  O  O560  1  0.33820896  0.98033667  0.04772979  1
  O  O561  1  0.33683520  0.98094005  0.29671693  1
  O  O562  1  0.33569263  0.98092355  0.54703941  1
  O  O563  1  0.33825861  0.98235318  0.79769393  1
  O  O564  1  0.83745781  0.31503403  0.04730152  1
  O  O565  1  0.83559854  0.31536870  0.29738919  1
  O  O566  1  0.83854135  0.31626568  0.54811238  1
  O  O567  1  0.83966635  0.31343421  0.79813692  1
  O  O568  1  0.83808731  0.64864583  0.04831680  1
  O  O569  1  0.83788219  0.64930894  0.29734404  1
  O  O570  1  0.83736322  0.64894247  0.54672253  1
  O  O571  1  0.83689699  0.64867417  0.79827210  1
  O  O572  1  0.83809722  0.98146749  0.04822975  1
  O  O573  1  0.83878946  0.98070122  0.29711822  1
  O  O574  1  0.83907934  0.98034760  0.54860853  1
  O  O575  1  0.83805845  0.98317142  0.79689093  1
  O  O576  1  0.41082888  0.14676779  0.17316361  1
  O  O577  1  0.41032301  0.14925727  0.42191447  1
  O  O578  1  0.41126922  0.14907067  0.67210531  1
  O  O579  1  0.41274586  0.14868032  0.92176856  1
  O  O580  1  0.41378188  0.48202770  0.17303750  1
  O  O581  1  0.41335756  0.48119712  0.42269531  1
  O  O582  1  0.41098299  0.48084122  0.67318230  1
  O  O583  1  0.41154682  0.48072517  0.92348205  1
  O  O584  1  0.41221366  0.81578913  0.17297817  1
  O  O585  1  0.41250099  0.81447514  0.42302467  1
  O  O586  1  0.40999983  0.81429251  0.67213420  1
  O  O587  1  0.41163627  0.81566622  0.92227802  1
  O  O588  1  0.91324096  0.14758390  0.17228858  1
  O  O589  1  0.91337689  0.14863310  0.42291293  1
  O  O590  1  0.91364619  0.14796479  0.67333528  1
  O  O591  1  0.91303597  0.14961168  0.92160314  1
  O  O592  1  0.91432276  0.48241471  0.17242552  1
  O  O593  1  0.91308698  0.48280171  0.42342975  1
  O  O594  1  0.91248307  0.48088921  0.67234383  1
  O  O595  1  0.91297018  0.48079272  0.92206461  1
  O  O596  1  0.91343435  0.81537528  0.17339354  1
  O  O597  1  0.91221565  0.81394587  0.42296189  1
  O  O598  1  0.91260507  0.81675778  0.67135730  1
  O  O599  1  0.91507145  0.81483378  0.92315949  1
  O  O600  1  0.08935537  0.18600855  0.07656260  1
  O  O601  1  0.08828432  0.18603017  0.32797938  1
  O  O602  1  0.08825120  0.18354361  0.57791860  1
  O  O603  1  0.08869337  0.18533607  0.82647027  1
  O  O604  1  0.08592615  0.51871208  0.07774576  1
  O  O605  1  0.08659158  0.51837559  0.32878977  1
  O  O606  1  0.08921845  0.51844824  0.57718863  1
  O  O607  1  0.08959838  0.51957859  0.82643710  1
  O  O608  1  0.08820156  0.85042716  0.07836784  1
  O  O609  1  0.08942263  0.85027205  0.32793552  1
  O  O610  1  0.08746262  0.85317911  0.57647689  1
  O  O611  1  0.08872997  0.85034062  0.82826795  1
  O  O612  1  0.58809354  0.18519298  0.07784789  1
  O  O613  1  0.58616381  0.18469063  0.32680776  1
  O  O614  1  0.58486981  0.18378233  0.57737161  1
  O  O615  1  0.58531247  0.18488727  0.82710185  1
  O  O616  1  0.58852363  0.51878439  0.07862232  1
  O  O617  1  0.59045981  0.51949032  0.32739582  1
  O  O618  1  0.58804634  0.51806149  0.57667231  1
  O  O619  1  0.58645945  0.51828614  0.82815350  1
  O  O620  1  0.58476267  0.85028194  0.07744645  1
  O  O621  1  0.58705781  0.85041698  0.32767909  1
  O  O622  1  0.58689350  0.85287647  0.57709861  1
  O  O623  1  0.58509234  0.85127375  0.82718021  1
  O  O624  1  0.33754336  0.18590406  0.04694703  1
  O  O625  1  0.33814744  0.18418852  0.29740555  1
  O  O626  1  0.33702214  0.18465938  0.54723201  1
  O  O627  1  0.33758798  0.18475411  0.79723595  1
  O  O628  1  0.33745499  0.51815437  0.04798007  1
  O  O629  1  0.33708201  0.51945588  0.29779285  1
  O  O630  1  0.33528639  0.51929500  0.54715282  1
  O  O631  1  0.33632102  0.51780578  0.79741056  1
  O  O632  1  0.33728400  0.85030919  0.04759340  1
  O  O633  1  0.33658728  0.85076170  0.29694705  1
  O  O634  1  0.33560653  0.85080029  0.54668596  1
  O  O635  1  0.33888585  0.85207101  0.79775066  1
  O  O636  1  0.83757296  0.18488339  0.04698484  1
  O  O637  1  0.83540650  0.18533582  0.29784421  1
  O  O638  1  0.83922996  0.18612462  0.54897365  1
  O  O639  1  0.83895038  0.18330385  0.79753836  1
  O  O640  1  0.83790271  0.51861372  0.04843367  1
  O  O641  1  0.83848143  0.51924073  0.29756926  1
  O  O642  1  0.83733430  0.51869197  0.54709587  1
  O  O643  1  0.83694416  0.51848147  0.79801209  1
  O  O644  1  0.83803275  0.85155713  0.04840561  1
  O  O645  1  0.83835843  0.85045100  0.29656241  1
  O  O646  1  0.83826060  0.85017054  0.54754730  1
  O  O647  1  0.83841635  0.85293739  0.79749221  1
  O  O648  1  0.16458757  0.14745505  0.20222374  1
  O  O649  1  0.16330158  0.14845543  0.45317779  1
  O  O650  1  0.16406666  0.14933380  0.70186923  1
  O  O651  1  0.16291271  0.14845890  0.95268027  1
  O  O652  1  0.16107848  0.48201029  0.20214838  1
  O  O653  1  0.16113020  0.48170960  0.45231044  1
  O  O654  1  0.16403116  0.48128563  0.70280489  1
  O  O655  1  0.16338947  0.48125065  0.95298678  1
  O  O656  1  0.16203041  0.81573749  0.20242652  1
  O  O657  1  0.16242601  0.81524472  0.45209247  1
  O  O658  1  0.16352052  0.81437821  0.70290576  1
  O  O659  1  0.16313602  0.81584520  0.95285963  1
  O  O660  1  0.66234524  0.14928406  0.20297253  1
  O  O661  1  0.66204784  0.14845920  0.45342233  1
  O  O662  1  0.66228679  0.14852129  0.70161853  1
  O  O663  1  0.66142479  0.14766629  0.95056193  1
  O  O664  1  0.66177224  0.48209256  0.20232555  1
  O  O665  1  0.66473973  0.48228018  0.45290042  1
  O  O666  1  0.66168258  0.48127017  0.70292874  1
  O  O667  1  0.66067000  0.48171549  0.95183993  1
  O  O668  1  0.66236327  0.81396247  0.20154410  1
  O  O669  1  0.66355027  0.81443469  0.45119250  1
  O  O670  1  0.66173246  0.81542992  0.70241590  1
  O  O671  1  0.66101274  0.81568032  0.95203860  1
