# generated using pymatgen
data_Na2MnFe(PO4)2
_symmetry_space_group_name_H-M   'P 1'
_cell_length_a   21.08583977
_cell_length_b   18.93842417
_cell_length_c   20.04462202
_cell_angle_alpha   90.00028523
_cell_angle_beta   89.99611361
_cell_angle_gamma   89.99981789
_symmetry_Int_Tables_number   1
_chemical_formula_structural   Na2MnFe(PO4)2
_chemical_formula_sum   'Na96 Mn48 Fe48 P96 O384'
_cell_volume   8004.47055686
_cell_formula_units_Z   48
loop_
 _symmetry_equiv_pos_site_id
 _symmetry_equiv_pos_as_xyz
  1  'x, y, z'
loop_
 _atom_site_type_symbol
 _atom_site_label
 _atom_site_symmetry_multiplicity
 _atom_site_fract_x
 _atom_site_fract_y
 _atom_site_fract_z
 _atom_site_occupancy
  Na  Na0  1  0.00149137  0.00050749  -0.00010937  1
  Na  Na1  1  -0.00089399  -0.00051120  0.25098930  1
  Na  Na2  1  0.00038540  -0.00004684  0.49962425  1
  Na  Na3  1  0.00180170  0.00039525  0.74942189  1
  Na  Na4  1  -0.00294953  0.33255114  0.00176253  1
  Na  Na5  1  -0.00166696  0.33286235  0.25048568  1
  Na  Na6  1  0.00040796  0.33376685  0.49922200  1
  Na  Na7  1  -0.00031249  0.33419870  0.74870692  1
  Na  Na8  1  -0.00008965  0.66586050  0.00044549  1
  Na  Na9  1  0.00064769  0.66671613  0.25083177  1
  Na  Na10  1  0.00119061  0.66659426  0.49908666  1
  Na  Na11  1  0.00227947  0.66682229  0.74967407  1
  Na  Na12  1  0.49765264  -0.00114207  0.00089901  1
  Na  Na13  1  0.49850926  -0.00067687  0.25021015  1
  Na  Na14  1  0.49959429  -0.00013253  0.49919863  1
  Na  Na15  1  0.49964581  0.00040307  0.75016789  1
  Na  Na16  1  0.50010355  0.33391612  0.00083584  1
  Na  Na17  1  0.49790442  0.33277480  0.24994668  1
  Na  Na18  1  0.50035085  0.33321241  0.49858310  1
  Na  Na19  1  0.50089830  0.33342625  0.75019755  1
  Na  Na20  1  0.50059915  0.66627491  -0.00036870  1
  Na  Na21  1  0.50156562  0.66753413  0.25045921  1
  Na  Na22  1  0.49875036  0.66633879  0.49986738  1
  Na  Na23  1  0.49932069  0.66678297  0.74986875  1
  Na  Na24  1  0.24874046  0.00069906  0.12525317  1
  Na  Na25  1  0.24920518  0.00014014  0.37572262  1
  Na  Na26  1  0.24931728  -0.00064138  0.62511057  1
  Na  Na27  1  0.24933851  0.00001564  0.87458523  1
  Na  Na28  1  0.25077891  0.33358153  0.12470830  1
  Na  Na29  1  0.25073689  0.33351932  0.37572043  1
  Na  Na30  1  0.24984527  0.33294024  0.62569440  1
  Na  Na31  1  0.25019467  0.33333016  0.87381124  1
  Na  Na32  1  0.24914337  0.66597003  0.12367816  1
  Na  Na33  1  0.24871618  0.66615824  0.37465876  1
  Na  Na34  1  0.24998689  0.66643993  0.62527679  1
  Na  Na35  1  0.24986730  0.66627950  0.87582573  1
  Na  Na36  1  0.75280279  -0.00001606  0.12552615  1
  Na  Na37  1  0.75270974  0.00037943  0.37529993  1
  Na  Na38  1  0.75025619  -0.00015595  0.62468619  1
  Na  Na39  1  0.75053022  -0.00007815  0.87405562  1
  Na  Na40  1  0.75347795  0.33430893  0.12423501  1
  Na  Na41  1  0.75149877  0.33376496  0.37506858  1
  Na  Na42  1  0.74870418  0.33322255  0.62574869  1
  Na  Na43  1  0.75053526  0.33387030  0.87499802  1
  Na  Na44  1  0.74993458  0.66723685  0.12537206  1
  Na  Na45  1  0.74928731  0.66669940  0.37467190  1
  Na  Na46  1  0.75033589  0.66736137  0.62568613  1
  Na  Na47  1  0.74810382  0.66603026  0.87467255  1
  Na  Na48  1  -0.00027687  0.16737474  0.00099454  1
  Na  Na49  1  0.00186856  0.16594339  0.25108021  1
  Na  Na50  1  0.00228774  0.16549184  0.49905806  1
  Na  Na51  1  0.00135059  0.16617829  0.74843270  1
  Na  Na52  1  -0.00069866  0.50031395  0.00096127  1
  Na  Na53  1  -0.00155959  0.50061158  0.25042919  1
  Na  Na54  1  -0.00023475  0.50062197  0.49969698  1
  Na  Na55  1  0.00094847  0.49981765  0.74867430  1
  Na  Na56  1  0.00056953  0.83277748  0.00011364  1
  Na  Na57  1  -0.00223121  0.83450968  0.25077859  1
  Na  Na58  1  0.00077204  0.83274330  0.49926026  1
  Na  Na59  1  0.00044025  0.83378740  0.75053519  1
  Na  Na60  1  0.49890148  0.16645628  0.00074312  1
  Na  Na61  1  0.49904974  0.16680368  0.24977302  1
  Na  Na62  1  0.50048413  0.16672279  0.49921253  1
  Na  Na63  1  0.50027162  0.16660587  0.75048051  1
  Na  Na64  1  0.49886144  0.50037330  0.00083746  1
  Na  Na65  1  0.49791917  0.50076536  0.24972838  1
  Na  Na66  1  0.49929438  0.49940329  0.49852730  1
  Na  Na67  1  0.49985707  0.49975694  0.75086884  1
  Na  Na68  1  0.50211107  0.83199500  0.00044287  1
  Na  Na69  1  0.50026209  0.83336677  0.25067800  1
  Na  Na70  1  0.49962532  0.83368662  0.50001867  1
  Na  Na71  1  0.49810082  0.83429748  0.74852501  1
  Na  Na72  1  0.24759230  0.16682721  0.12547928  1
  Na  Na73  1  0.24724260  0.16724770  0.37600505  1
  Na  Na74  1  0.24863923  0.16678382  0.62488789  1
  Na  Na75  1  0.24965067  0.16591947  0.87441152  1
  Na  Na76  1  0.25237738  0.49921144  0.12405409  1
  Na  Na77  1  0.24909362  0.50083794  0.37443212  1
  Na  Na78  1  0.24969500  0.50063183  0.62604622  1
  Na  Na79  1  0.25045023  0.50033631  0.87467577  1
  Na  Na80  1  0.24752847  0.83468089  0.12433938  1
  Na  Na81  1  0.25135139  0.83265793  0.37576822  1
  Na  Na82  1  0.25084303  0.83352722  0.62498868  1
  Na  Na83  1  0.24967776  0.83348801  0.87501132  1
  Na  Na84  1  0.75267981  0.16646902  0.12409573  1
  Na  Na85  1  0.75090189  0.16630832  0.37503542  1
  Na  Na86  1  0.74883778  0.16689723  0.62498583  1
  Na  Na87  1  0.75053303  0.16687498  0.87510604  1
  Na  Na88  1  0.75193181  0.49972082  0.12527025  1
  Na  Na89  1  0.75189874  0.49958331  0.37562153  1
  Na  Na90  1  0.75106082  0.49916945  0.62589792  1
  Na  Na91  1  0.74916472  0.50048586  0.87375769  1
  Na  Na92  1  0.75093151  0.83281965  0.12571060  1
  Na  Na93  1  0.75072101  0.83360355  0.37436100  1
  Na  Na94  1  0.74925132  0.83424705  0.62524391  1
  Na  Na95  1  0.74927397  0.83323636  0.87487294  1
  Mn  Mn96  1  0.35700617  0.08310376  0.50241973  1
  Mn  Mn97  1  0.39201529  0.24986249  0.87798689  1
  Mn  Mn98  1  0.14156965  0.25052156  0.74764406  1
  Mn  Mn99  1  0.85777952  0.41659802  0.75243188  1
  Mn  Mn100  1  0.60803938  0.08288495  0.37228040  1
  Mn  Mn101  1  0.39143089  0.58388228  0.37700715  1
  Mn  Mn102  1  0.35787287  0.08334062  0.75157216  1
  Mn  Mn103  1  0.64143936  0.91712858  0.74786070  1
  Mn  Mn104  1  0.14229666  0.91576744  0.74725328  1
  Mn  Mn105  1  0.35644245  0.08383597  0.25232275  1
  Mn  Mn106  1  0.10722098  0.41680681  0.12274366  1
  Mn  Mn107  1  0.60673166  0.75003435  0.62203643  1
  Mn  Mn108  1  0.10772610  0.41697280  0.62188601  1
  Mn  Mn109  1  0.35822113  0.41669906  0.75214461  1
  Mn  Mn110  1  0.64113253  0.58338015  0.74731266  1
  Mn  Mn111  1  0.39156846  0.91552742  0.12730350  1
  Mn  Mn112  1  0.64215115  0.58363069  0.49834807  1
  Mn  Mn113  1  0.85825043  0.75001115  0.75185142  1
  Mn  Mn114  1  0.60846481  0.08286023  0.12295292  1
  Mn  Mn115  1  0.85839328  0.08358875  0.75162454  1
  Mn  Mn116  1  0.60775749  0.41693295  0.37227929  1
  Mn  Mn117  1  0.64171199  0.24955945  0.74803068  1
  Mn  Mn118  1  0.89263972  0.24944493  0.37799019  1
  Mn  Mn119  1  0.10830781  0.75057062  0.37232189  1
  Mn  Mn120  1  0.89247968  0.58270473  0.87720768  1
  Mn  Mn121  1  0.64338889  0.25054023  0.99827283  1
  Mn  Mn122  1  0.89233212  0.24967620  0.62652757  1
  Mn  Mn123  1  0.14120851  0.25039369  0.99738631  1
  Mn  Mn124  1  0.39123329  0.25017317  0.12742925  1
  Mn  Mn125  1  0.85934594  0.08338109  0.00220950  1
  Mn  Mn126  1  0.64280030  0.58281494  0.24774550  1
  Mn  Mn127  1  0.35757560  0.41714587  0.50279528  1
  Mn  Mn128  1  0.14157855  0.91640122  0.24774595  1
  Mn  Mn129  1  0.85750621  0.74931029  0.00225799  1
  Mn  Mn130  1  0.64338235  0.91732962  0.24824188  1
  Mn  Mn131  1  0.64311073  0.24990617  0.24772347  1
  Mn  Mn132  1  0.10791991  0.41623024  0.37252381  1
  Mn  Mn133  1  0.85764806  0.75001626  0.50300658  1
  Mn  Mn134  1  0.35754229  0.74977774  0.25164596  1
  Mn  Mn135  1  0.35795718  0.75042986  0.00281962  1
  Mn  Mn136  1  0.89294725  0.91720472  0.87748481  1
  Mn  Mn137  1  0.35765484  0.74992510  0.75227097  1
  Mn  Mn138  1  0.64241966  0.91668977  0.99788787  1
  Mn  Mn139  1  0.89246321  0.58395684  0.37775172  1
  Mn  Mn140  1  0.14245220  0.58288546  0.99805492  1
  Mn  Mn141  1  0.10809626  0.74910305  0.87252812  1
  Mn  Mn142  1  0.60796614  0.41703972  0.12298820  1
  Mn  Mn143  1  0.60723745  0.08294915  0.87365570  1
  Fe  Fe144  1  0.35603797  0.08363655  0.00177147  1
  Fe  Fe145  1  0.14207705  0.91693406  0.99849754  1
  Fe  Fe146  1  0.14283560  0.25027818  0.49827915  1
  Fe  Fe147  1  0.10665030  0.08291819  0.37349867  1
  Fe  Fe148  1  0.60730022  0.08374423  0.62283560  1
  Fe  Fe149  1  0.89310950  0.25023697  0.87601818  1
  Fe  Fe150  1  0.85763571  0.74994032  0.25175980  1
  Fe  Fe151  1  0.39307805  0.24979228  0.62575460  1
  Fe  Fe152  1  0.89324853  0.24943342  0.12780537  1
  Fe  Fe153  1  0.89344151  0.91592740  0.62593617  1
  Fe  Fe154  1  0.14283603  0.91622292  0.49830373  1
  Fe  Fe155  1  0.64275961  0.91727981  0.49817889  1
  Fe  Fe156  1  0.10774416  0.75043501  0.62291988  1
  Fe  Fe157  1  0.14270708  0.58268999  0.24747548  1
  Fe  Fe158  1  0.14299017  0.58344099  0.49874150  1
  Fe  Fe159  1  0.39312971  0.58400122  0.12655068  1
  Fe  Fe160  1  0.10754150  0.08439956  0.87328385  1
  Fe  Fe161  1  0.60823059  0.74983154  0.12369400  1
  Fe  Fe162  1  0.14299521  0.58322726  0.74807384  1
  Fe  Fe163  1  0.85685398  0.41637091  0.50205195  1
  Fe  Fe164  1  0.10734679  0.41610051  0.87414593  1
  Fe  Fe165  1  0.35710154  0.74995118  0.50132719  1
  Fe  Fe166  1  0.10652624  0.08269376  0.12339627  1
  Fe  Fe167  1  0.89356152  0.58443358  0.62634570  1
  Fe  Fe168  1  0.85900388  0.08336496  0.25207027  1
  Fe  Fe169  1  0.35660299  0.41641691  0.25124201  1
  Fe  Fe170  1  0.89283071  0.91666038  0.37776129  1
  Fe  Fe171  1  0.10735588  0.08254985  0.62246815  1
  Fe  Fe172  1  0.89334736  0.91626500  0.12631675  1
  Fe  Fe173  1  0.39221787  0.91630873  0.87729272  1
  Fe  Fe174  1  0.14279517  0.25112874  0.24856050  1
  Fe  Fe175  1  0.39238683  0.91694666  0.37715938  1
  Fe  Fe176  1  0.60657456  0.75004327  0.87338480  1
  Fe  Fe177  1  0.60724016  0.41705639  0.87436123  1
  Fe  Fe178  1  0.35772292  0.41582702  0.00134938  1
  Fe  Fe179  1  0.89216772  0.58402212  0.12691253  1
  Fe  Fe180  1  0.85799247  0.41682225  0.25194087  1
  Fe  Fe181  1  0.39280375  0.91744154  0.62616574  1
  Fe  Fe182  1  0.39305189  0.58360707  0.87699327  1
  Fe  Fe183  1  0.39202951  0.58274045  0.62672081  1
  Fe  Fe184  1  0.85714264  0.08376581  0.50220527  1
  Fe  Fe185  1  0.64230019  0.24966786  0.49832376  1
  Fe  Fe186  1  0.64254368  0.58282362  0.99870799  1
  Fe  Fe187  1  0.85773350  0.41771381  0.00105286  1
  Fe  Fe188  1  0.10651227  0.75028129  0.12408507  1
  Fe  Fe189  1  0.39190686  0.24918657  0.37713891  1
  Fe  Fe190  1  0.60692050  0.75036196  0.37392500  1
  Fe  Fe191  1  0.60687113  0.41628806  0.62298996  1
  P  P192  1  0.05336225  0.24969220  0.11201232  1
  P  P193  1  0.05542591  0.24941028  0.36073640  1
  P  P194  1  0.05397345  0.24956101  0.60867392  1
  P  P195  1  0.05208632  0.25081448  0.86003246  1
  P  P196  1  0.05313635  0.58392381  0.11161858  1
  P  P197  1  0.05575915  0.58315162  0.36036893  1
  P  P198  1  0.05428273  0.58440461  0.61020369  1
  P  P199  1  0.05430787  0.58148477  0.85946184  1
  P  P200  1  0.05269853  0.91638838  0.11017529  1
  P  P201  1  0.05340052  0.91726417  0.36150664  1
  P  P202  1  0.05330942  0.91601159  0.60913710  1
  P  P203  1  0.05508992  0.91752312  0.86113049  1
  P  P204  1  0.55334706  0.25004250  0.11019400  1
  P  P205  1  0.55335180  0.24980398  0.36047834  1
  P  P206  1  0.55283137  0.24996930  0.60931721  1
  P  P207  1  0.55339043  0.25064977  0.86088424  1
  P  P208  1  0.55328802  0.58380148  0.10984553  1
  P  P209  1  0.55338577  0.58425260  0.36009227  1
  P  P210  1  0.55118185  0.58222308  0.60978608  1
  P  P211  1  0.55349663  0.58326710  0.86167037  1
  P  P212  1  0.55363966  0.91591854  0.11058475  1
  P  P213  1  0.55343599  0.91600950  0.36134226  1
  P  P214  1  0.55265532  0.91775359  0.60916031  1
  P  P215  1  0.55172208  0.91588390  0.86024121  1
  P  P216  1  0.44509123  0.08308097  0.13936449  1
  P  P217  1  0.44588417  0.08344312  0.38974879  1
  P  P218  1  0.44772864  0.08373065  0.63923595  1
  P  P219  1  0.44534961  0.08226249  0.89091674  1
  P  P220  1  0.44456913  0.41759225  0.13956454  1
  P  P221  1  0.44448835  0.41574582  0.38834701  1
  P  P222  1  0.44754205  0.41607748  0.63950912  1
  P  P223  1  0.44727571  0.41732643  0.89066018  1
  P  P224  1  0.44827318  0.74897378  0.14014545  1
  P  P225  1  0.44645641  0.75081710  0.39046603  1
  P  P226  1  0.44448402  0.74996475  0.63816917  1
  P  P227  1  0.44714663  0.75023917  0.88980019  1
  P  P228  1  0.94765597  0.08290409  0.14068463  1
  P  P229  1  0.94579240  0.08267139  0.38991908  1
  P  P230  1  0.94686107  0.08225756  0.63795916  1
  P  P231  1  0.94858111  0.08451587  0.88946758  1
  P  P232  1  0.94457824  0.41723563  0.13958319  1
  P  P233  1  0.94492271  0.41675238  0.38995026  1
  P  P234  1  0.94512299  0.41754833  0.63815784  1
  P  P235  1  0.94761613  0.41605858  0.89040375  1
  P  P236  1  0.94696743  0.74981741  0.14051622  1
  P  P237  1  0.94563954  0.75059839  0.38915907  1
  P  P238  1  0.94838589  0.75013519  0.63951533  1
  P  P239  1  0.94715798  0.74948417  0.89015972  1
  P  P240  1  0.19383243  0.08417337  0.23603412  1
  P  P241  1  0.19408526  0.08268542  0.48598978  1
  P  P242  1  0.19457023  0.08337616  0.73496600  1
  P  P243  1  0.19496639  0.08275187  0.98565847  1
  P  P244  1  0.19745464  0.41650503  0.23476643  1
  P  P245  1  0.19669805  0.41694560  0.48519369  1
  P  P246  1  0.19537001  0.41748251  0.73619292  1
  P  P247  1  0.19760878  0.41660923  0.98425237  1
  P  P248  1  0.19604574  0.74931065  0.23380241  1
  P  P249  1  0.19642120  0.75019266  0.48641385  1
  P  P250  1  0.19607672  0.74895668  0.73428942  1
  P  P251  1  0.19514086  0.75069165  0.98643463  1
  P  P252  1  0.69936331  0.08329631  0.23498729  1
  P  P253  1  0.69634139  0.08320149  0.48606964  1
  P  P254  1  0.69589563  0.08322494  0.73404574  1
  P  P255  1  0.69798651  0.08324731  0.98486166  1
  P  P256  1  0.69868510  0.41642370  0.23493907  1
  P  P257  1  0.69616284  0.41607948  0.48623327  1
  P  P258  1  0.69421293  0.41661507  0.73552317  1
  P  P259  1  0.69774221  0.41782430  0.98473240  1
  P  P260  1  0.69640601  0.75035443  0.23606070  1
  P  P261  1  0.69591291  0.75129237  0.48447786  1
  P  P262  1  0.69488488  0.75034815  0.73568465  1
  P  P263  1  0.69473504  0.74890271  0.98558580  1
  P  P264  1  0.30257381  0.24954257  0.01470703  1
  P  P265  1  0.30219973  0.25042775  0.26581102  1
  P  P266  1  0.30334421  0.24964676  0.51478735  1
  P  P267  1  0.30457580  0.24973350  0.76366739  1
  P  P268  1  0.30578434  0.58252134  0.01417250  1
  P  P269  1  0.30307487  0.58301435  0.26316543  1
  P  P270  1  0.30255984  0.58424122  0.51546032  1
  P  P271  1  0.30429260  0.58338225  0.76486123  1
  P  P272  1  0.30266406  0.91769228  0.01401883  1
  P  P273  1  0.30319079  0.91656361  0.26591909  1
  P  P274  1  0.30380803  0.91607942  0.51442315  1
  P  P275  1  0.30516538  0.91685954  0.76451079  1
  P  P276  1  0.80656905  0.25127444  0.01409320  1
  P  P277  1  0.80564955  0.24981805  0.26412181  1
  P  P278  1  0.80203007  0.24983938  0.51507074  1
  P  P279  1  0.80396215  0.24988150  0.76563797  1
  P  P280  1  0.80267568  0.58279303  0.01530330  1
  P  P281  1  0.80515016  0.58373576  0.26404846  1
  P  P282  1  0.80382776  0.58293162  0.51609653  1
  P  P283  1  0.80435035  0.58378276  0.76389025  1
  P  P284  1  0.80431094  0.91629047  0.01575804  1
  P  P285  1  0.80664419  0.91650284  0.26442641  1
  P  P286  1  0.80407006  0.91739114  0.51456246  1
  P  P287  1  0.80481558  0.91658356  0.76379124  1
  O  O288  1  0.05828268  0.25093279  0.18860885  1
  O  O289  1  0.05965397  0.25074871  0.43745781  1
  O  O290  1  0.05648213  0.25063195  0.68551160  1
  O  O291  1  0.05488360  0.25082267  0.93681592  1
  O  O292  1  0.05820395  0.58278806  0.18827646  1
  O  O293  1  0.06031240  0.58315139  0.43713431  1
  O  O294  1  0.05884102  0.58340944  0.68685482  1
  O  O295  1  0.05701599  0.58249046  0.93631074  1
  O  O296  1  0.05565152  0.91641051  0.18693634  1
  O  O297  1  0.05848780  0.91617360  0.43805476  1
  O  O298  1  0.05653846  0.91607772  0.68593707  1
  O  O299  1  0.05871268  0.91667154  0.93788291  1
  O  O300  1  0.55682861  0.25003379  0.18699755  1
  O  O301  1  0.55890143  0.24985583  0.43713297  1
  O  O302  1  0.55607828  0.24972423  0.68603553  1
  O  O303  1  0.55674708  0.25015873  0.93761785  1
  O  O304  1  0.55698194  0.58295548  0.18658141  1
  O  O305  1  0.55657394  0.58310426  0.43682109  1
  O  O306  1  0.55472767  0.58293175  0.68651792  1
  O  O307  1  0.55802162  0.58283296  0.93829991  1
  O  O308  1  0.55710429  0.91694201  0.18735470  1
  O  O309  1  0.55849991  0.91710991  0.43795075  1
  O  O310  1  0.55602839  0.91725014  0.68587421  1
  O  O311  1  0.55573831  0.91641467  0.93691282  1
  O  O312  1  0.44020083  0.08325642  0.06267227  1
  O  O313  1  0.44255285  0.08348135  0.31303323  1
  O  O314  1  0.44380699  0.08365819  0.56258122  1
  O  O315  1  0.44291125  0.08340053  0.81410701  1
  O  O316  1  0.44077746  0.41625977  0.06280776  1
  O  O317  1  0.43997084  0.41640281  0.31161197  1
  O  O318  1  0.44399130  0.41623415  0.56276978  1
  O  O319  1  0.44376902  0.41650312  0.81393056  1
  O  O320  1  0.44424998  0.74965881  0.06343963  1
  O  O321  1  0.44310430  0.75017769  0.31375591  1
  O  O322  1  0.44063977  0.74978639  0.56143187  1
  O  O323  1  0.44366840  0.75021457  0.81310465  1
  O  O324  1  0.94464302  0.08326908  0.06396423  1
  O  O325  1  0.94172066  0.08355135  0.31318813  1
  O  O326  1  0.94168822  0.08330513  0.56132181  1
  O  O327  1  0.94513097  0.08361888  0.81274312  1
  O  O328  1  0.94099438  0.41771610  0.06281050  1
  O  O329  1  0.94089485  0.41672826  0.31315506  1
  O  O330  1  0.94079263  0.41660248  0.56141022  1
  O  O331  1  0.94422439  0.41718517  0.81363811  1
  O  O332  1  0.94369327  0.74925037  0.06379230  1
  O  O333  1  0.94141721  0.74987585  0.31248984  1
  O  O334  1  0.94465484  0.74976797  0.56281716  1
  O  O335  1  0.94411785  0.74956926  0.81338802  1
  O  O336  1  0.18997112  0.08334216  0.06241119  1
  O  O337  1  0.19015743  0.08285192  0.31282326  1
  O  O338  1  0.19059261  0.08238365  0.56285721  1
  O  O339  1  0.19047712  0.08379266  0.81177881  1
  O  O340  1  0.19329816  0.41657268  0.06093868  1
  O  O341  1  0.19398434  0.41664185  0.31144464  1
  O  O342  1  0.19405535  0.41676365  0.56199803  1
  O  O343  1  0.19135376  0.41651913  0.81287125  1
  O  O344  1  0.19041133  0.75024038  0.06309499  1
  O  O345  1  0.19365308  0.75014405  0.31071042  1
  O  O346  1  0.19204876  0.75057336  0.56306388  1
  O  O347  1  0.19323629  0.74979050  0.81110665  1
  O  O348  1  0.69485584  0.08301918  0.06165018  1
  O  O349  1  0.69479912  0.08301430  0.31169645  1
  O  O350  1  0.69125330  0.08313701  0.56271241  1
  O  O351  1  0.69243566  0.08306353  0.81080776  1
  O  O352  1  0.69427997  0.41711122  0.06145132  1
  O  O353  1  0.69440067  0.41658664  0.31165287  1
  O  O354  1  0.69098995  0.41666549  0.56291632  1
  O  O355  1  0.68968121  0.41699884  0.81226940  1
  O  O356  1  0.69111135  0.74975031  0.06244013  1
  O  O357  1  0.69120823  0.75040080  0.31267843  1
  O  O358  1  0.69264990  0.75065670  0.56131665  1
  O  O359  1  0.69011123  0.75021901  0.81244568  1
  O  O360  1  0.30569445  0.24941153  0.18906101  1
  O  O361  1  0.30810387  0.24936146  0.43811723  1
  O  O362  1  0.30942563  0.24965356  0.68693403  1
  O  O363  1  0.30549502  0.24946188  0.93791156  1
  O  O364  1  0.30818153  0.58401135  0.18656882  1
  O  O365  1  0.30599210  0.58362541  0.43868940  1
  O  O366  1  0.30915859  0.58302318  0.68812708  1
  O  O367  1  0.30989968  0.58372460  0.93736713  1
  O  O368  1  0.30613048  0.91670070  0.18907978  1
  O  O369  1  0.30861485  0.91691754  0.43772390  1
  O  O370  1  0.30977660  0.91721621  0.68773436  1
  O  O371  1  0.30748252  0.91643418  0.93734796  1
  O  O372  1  0.80958129  0.24938859  0.18729273  1
  O  O373  1  0.80610067  0.24967449  0.43839215  1
  O  O374  1  0.80719636  0.24992305  0.68886741  1
  O  O375  1  0.81015592  0.25008502  0.93731066  1
  O  O376  1  0.80882374  0.58427078  0.18726385  1
  O  O377  1  0.80678833  0.58396661  0.43927022  1
  O  O378  1  0.80954336  0.58418841  0.68723706  1
  O  O379  1  0.80612621  0.58359167  0.93856389  1
  O  O380  1  0.81064410  0.91639416  0.18762992  1
  O  O381  1  0.80893040  0.91660430  0.43783945  1
  O  O382  1  0.80965340  0.91633776  0.68705181  1
  O  O383  1  0.80724531  0.91633266  0.93891525  1
  O  O384  1  0.23296457  0.25008194  0.04013439  1
  O  O385  1  0.23210101  0.25037486  0.29028471  1
  O  O386  1  0.23288291  0.24952980  0.53818068  1
  O  O387  1  0.23442401  0.24984635  0.78741371  1
  O  O388  1  0.23559781  0.58271928  0.03801609  1
  O  O389  1  0.23274163  0.58321261  0.28697569  1
  O  O390  1  0.23244998  0.58359539  0.53994780  1
  O  O391  1  0.23393155  0.58342836  0.78833551  1
  O  O392  1  0.23239764  0.91772525  0.03802501  1
  O  O393  1  0.23340146  0.91631089  0.29077146  1
  O  O394  1  0.23338053  0.91662376  0.53799706  1
  O  O395  1  0.23491723  0.91638218  0.78791444  1
  O  O396  1  0.73661650  0.25060564  0.03873116  1
  O  O397  1  0.73583737  0.25007924  0.28898394  1
  O  O398  1  0.73195225  0.24976919  0.53956219  1
  O  O399  1  0.73420476  0.25013290  0.79039094  1
  O  O400  1  0.73271895  0.58310779  0.04017481  1
  O  O401  1  0.73529016  0.58317705  0.28885738  1
  O  O402  1  0.73405195  0.58353359  0.54113332  1
  O  O403  1  0.73412419  0.58331756  0.78725039  1
  O  O404  1  0.73468218  0.91639116  0.04096519  1
  O  O405  1  0.73653498  0.91692520  0.28864494  1
  O  O406  1  0.73360553  0.91704033  0.53797223  1
  O  O407  1  0.73469639  0.91670733  0.78762298  1
  O  O408  1  0.26380734  0.08363277  0.21164198  1
  O  O409  1  0.26412306  0.08318879  0.46169094  1
  O  O410  1  0.26461614  0.08323106  0.71088981  1
  O  O411  1  0.26528859  0.08317207  0.96191792  1
  O  O412  1  0.26743602  0.41635505  0.20994424  1
  O  O413  1  0.26624037  0.41735504  0.45968094  1
  O  O414  1  0.26531011  0.41699901  0.71168647  1
  O  O415  1  0.26778619  0.41665995  0.96015948  1
  O  O416  1  0.26556684  0.75011308  0.20821175  1
  O  O417  1  0.26660232  0.74986437  0.46201199  1
  O  O418  1  0.26578630  0.74983420  0.70944642  1
  O  O419  1  0.26524603  0.74989338  0.96232904  1
  O  O420  1  0.76959457  0.08302520  0.21116766  1
  O  O421  1  0.76680250  0.08327688  0.46249809  1
  O  O422  1  0.76574497  0.08344273  0.70938498  1
  O  O423  1  0.76766312  0.08331889  0.95969228  1
  O  O424  1  0.76879961  0.41677071  0.21089705  1
  O  O425  1  0.76661230  0.41650820  0.46270593  1
  O  O426  1  0.76449420  0.41628296  0.71219046  1
  O  O427  1  0.76775659  0.41750695  0.95989229  1
  O  O428  1  0.76691807  0.75028033  0.21279129  1
  O  O429  1  0.76574626  0.75039063  0.45981373  1
  O  O430  1  0.76496696  0.75047559  0.71179264  1
  O  O431  1  0.76470276  0.74961694  0.96107920  1
  O  O432  1  0.01770011  0.08272391  0.16556917  1
  O  O433  1  0.01620802  0.08295233  0.41340350  1
  O  O434  1  0.01732000  0.08268916  0.66138135  1
  O  O435  1  0.01843954  0.08428376  0.91463141  1
  O  O436  1  0.01457939  0.41693649  0.16422570  1
  O  O437  1  0.01509260  0.41693814  0.41359406  1
  O  O438  1  0.01524021  0.41713779  0.66202777  1
  O  O439  1  0.01740422  0.41637202  0.91577965  1
  O  O440  1  0.01697298  0.75032562  0.16551506  1
  O  O441  1  0.01575659  0.74994601  0.41305486  1
  O  O442  1  0.01836481  0.75054534  0.66432822  1
  O  O443  1  0.01684359  0.74904399  0.91519588  1
  O  O444  1  0.51515749  0.08310666  0.16344561  1
  O  O445  1  0.51565953  0.08321709  0.41458871  1
  O  O446  1  0.51773841  0.08363040  0.66398041  1
  O  O447  1  0.51497233  0.08271330  0.91640672  1
  O  O448  1  0.51457047  0.41689535  0.16402176  1
  O  O449  1  0.51459189  0.41634369  0.41225140  1
  O  O450  1  0.51743388  0.41618289  0.66452639  1
  O  O451  1  0.51733917  0.41717453  0.91534278  1
  O  O452  1  0.51827691  0.74969604  0.16467493  1
  O  O453  1  0.51645018  0.75015932  0.41522145  1
  O  O454  1  0.51439108  0.75048722  0.66283718  1
  O  O455  1  0.51710181  0.74970342  0.91463318  1
  O  O456  1  0.48352232  0.25035096  0.08559570  1
  O  O457  1  0.48287420  0.24957328  0.33734749  1
  O  O458  1  0.48275973  0.24994328  0.58444152  1
  O  O459  1  0.48369910  0.25015681  0.83571257  1
  O  O460  1  0.48321232  0.58344096  0.08543784  1
  O  O461  1  0.48362812  0.58424632  0.33513556  1
  O  O462  1  0.48119892  0.58261509  0.58491125  1
  O  O463  1  0.48319543  0.58346304  0.83746704  1
  O  O464  1  0.48385879  0.91534422  0.08572404  1
  O  O465  1  0.48302165  0.91648187  0.33777231  1
  O  O466  1  0.48240086  0.91696908  0.58489550  1
  O  O467  1  0.48174456  0.91669873  0.83551465  1
  O  O468  1  0.98290814  0.24972909  0.08859528  1
  O  O469  1  0.98528274  0.24958702  0.33704262  1
  O  O470  1  0.98433438  0.24963341  0.58333322  1
  O  O471  1  0.98251992  0.25050612  0.83403684  1
  O  O472  1  0.98272462  0.58355878  0.08805545  1
  O  O473  1  0.98548590  0.58342906  0.33716953  1
  O  O474  1  0.98397657  0.58384589  0.58620886  1
  O  O475  1  0.98469606  0.58300189  0.83416365  1
  O  O476  1  0.98268311  0.91643137  0.08521392  1
  O  O477  1  0.98306534  0.91732119  0.33797994  1
  O  O478  1  0.98329327  0.91603404  0.58432822  1
  O  O479  1  0.98529692  0.91726850  0.83625520  1
  O  O480  1  0.08629976  0.31452730  0.07779907  1
  O  O481  1  0.08894098  0.31420627  0.32684115  1
  O  O482  1  0.08839875  0.31448927  0.57612513  1
  O  O483  1  0.08618104  0.31602709  0.82780986  1
  O  O484  1  0.08623455  0.64914784  0.07862718  1
  O  O485  1  0.08941980  0.64802574  0.32712953  1
  O  O486  1  0.08751469  0.64970832  0.57726202  1
  O  O487  1  0.08968194  0.64580985  0.82678698  1
  O  O488  1  0.08677145  0.98148218  0.07771504  1
  O  O489  1  0.08657402  0.98242419  0.32841417  1
  O  O490  1  0.08741088  0.98093319  0.57650226  1
  O  O491  1  0.08871523  0.98271342  0.82859276  1
  O  O492  1  0.58747469  0.31517660  0.07790538  1
  O  O493  1  0.58642664  0.31490962  0.32698031  1
  O  O494  1  0.58674123  0.31510581  0.57666943  1
  O  O495  1  0.58710978  0.31594576  0.82864510  1
  O  O496  1  0.58723428  0.64889558  0.07750338  1
  O  O497  1  0.58743682  0.64964422  0.32838097  1
  O  O498  1  0.58525724  0.64726814  0.57721456  1
  O  O499  1  0.58675824  0.64842864  0.82838350  1
  O  O500  1  0.58721078  0.98099776  0.07748123  1
  O  O501  1  0.58696737  0.98070769  0.32738097  1
  O  O502  1  0.58624056  0.98292462  0.57642908  1
  O  O503  1  0.58595725  0.98083916  0.82755874  1
  O  O504  1  0.41149990  0.01800358  0.17236349  1
  O  O505  1  0.41174651  0.01839781  0.42228712  1
  O  O506  1  0.41375934  0.01861941  0.67181607  1
  O  O507  1  0.41116096  0.01691914  0.92270839  1
  O  O508  1  0.41010576  0.35309593  0.17296184  1
  O  O509  1  0.41133008  0.35048954  0.42139693  1
  O  O510  1  0.41371249  0.35088675  0.67198469  1
  O  O511  1  0.41314313  0.35246166  0.92365582  1
  O  O512  1  0.41480607  0.68363047  0.17269388  1
  O  O513  1  0.41192935  0.68600237  0.42316872  1
  O  O514  1  0.41133972  0.68464605  0.67125175  1
  O  O515  1  0.41308995  0.68531404  0.92244847  1
  O  O516  1  0.91369810  0.01776386  0.17297984  1
  O  O517  1  0.91225383  0.01771231  0.42290738  1
  O  O518  1  0.91407987  0.01691555  0.67109427  1
  O  O519  1  0.91461866  0.01964356  0.92251041  1
  O  O520  1  0.91082316  0.35200415  0.17226025  1
  O  O521  1  0.91138704  0.35168110  0.42307460  1
  O  O522  1  0.91168762  0.35253688  0.67152524  1
  O  O523  1  0.91345018  0.35090490  0.92234727  1
  O  O524  1  0.91301708  0.68490084  0.17353747  1
  O  O525  1  0.91205921  0.68582745  0.42266633  1
  O  O526  1  0.91469030  0.68504443  0.67239379  1
  O  O527  1  0.91291646  0.68451618  0.92257153  1
  O  O528  1  0.15994226  0.01943331  0.20246270  1
  O  O529  1  0.16069651  0.01747791  0.45291900  1
  O  O530  1  0.16093882  0.01822808  0.70205022  1
  O  O531  1  0.16169807  0.01772315  0.95246642  1
  O  O532  1  0.16359979  0.35132614  0.20224393  1
  O  O533  1  0.16282030  0.35168894  0.45282182  1
  O  O534  1  0.16140938  0.35282541  0.70273718  1
  O  O535  1  0.16368239  0.35165113  0.95130013  1
  O  O536  1  0.16181049  0.68419049  0.20180958  1
  O  O537  1  0.16281730  0.68514866  0.45346903  1
  O  O538  1  0.16231746  0.68360180  0.70222104  1
  O  O539  1  0.16161732  0.68556309  0.95330937  1
  O  O540  1  0.66556619  0.01832838  0.20212038  1
  O  O541  1  0.66341372  0.01796403  0.45248774  1
  O  O542  1  0.66182637  0.01835340  0.70117689  1
  O  O543  1  0.66390581  0.01818064  0.95238563  1
  O  O544  1  0.66527830  0.35138942  0.20194040  1
  O  O545  1  0.66319574  0.35088102  0.45287271  1
  O  O546  1  0.66067175  0.35160046  0.70235563  1
  O  O547  1  0.66355265  0.35296177  0.95186584  1
  O  O548  1  0.66307818  0.68540745  0.20244314  1
  O  O549  1  0.66125983  0.68649750  0.45200003  1
  O  O550  1  0.66142304  0.68529304  0.70241814  1
  O  O551  1  0.66135951  0.68340617  0.95315344  1
  O  O552  1  0.33703654  0.31467555  0.04663732  1
  O  O553  1  0.33629234  0.31553805  0.29791768  1
  O  O554  1  0.33665027  0.31470702  0.54808944  1
  O  O555  1  0.33795601  0.31478208  0.79690240  1
  O  O556  1  0.33939047  0.64734901  0.04792844  1
  O  O557  1  0.33617807  0.64800927  0.29702142  1
  O  O558  1  0.33625465  0.64936437  0.54790755  1
  O  O559  1  0.33765128  0.64845946  0.79811011  1
  O  O560  1  0.33599852  0.98280565  0.04696790  1
  O  O561  1  0.33724423  0.98155382  0.29853826  1
  O  O562  1  0.33727245  0.98097307  0.54818608  1
  O  O563  1  0.33830522  0.98187334  0.79789672  1
  O  O564  1  0.83990631  0.31679769  0.04635017  1
  O  O565  1  0.83945376  0.31500662  0.29664882  1
  O  O566  1  0.83576390  0.31491129  0.54779438  1
  O  O567  1  0.83834500  0.31472910  0.79818642  1
  O  O568  1  0.83691038  0.64756421  0.04845763  1
  O  O569  1  0.83843867  0.64898568  0.29712761  1
  O  O570  1  0.83836841  0.64777428  0.54880901  1
  O  O571  1  0.83736050  0.64873068  0.79760550  1
  O  O572  1  0.83898271  0.98117842  0.04795819  1
  O  O573  1  0.84045207  0.98146314  0.29751210  1
  O  O574  1  0.83746307  0.98248391  0.54761081  1
  O  O575  1  0.83823488  0.98183721  0.79675165  1
  O  O576  1  0.41154516  0.14817199  0.17256672  1
  O  O577  1  0.41193956  0.14857233  0.42235299  1
  O  O578  1  0.41397252  0.14881573  0.67199441  1
  O  O579  1  0.41059573  0.14695197  0.92359684  1
  O  O580  1  0.41125151  0.48322542  0.17184250  1
  O  O581  1  0.41091206  0.48079780  0.42159760  1
  O  O582  1  0.41341765  0.48109851  0.67210748  1
  O  O583  1  0.41325128  0.48239015  0.92291462  1
  O  O584  1  0.41393833  0.81368035  0.17296996  1
  O  O585  1  0.41248313  0.81589744  0.42299572  1
  O  O586  1  0.41073477  0.81514033  0.67078393  1
  O  O587  1  0.41350546  0.81545345  0.92264359  1
  O  O588  1  0.91378636  0.14787377  0.17367154  1
  O  O589  1  0.91241294  0.14758174  0.42360165  1
  O  O590  1  0.91367127  0.14720048  0.67167829  1
  O  O591  1  0.91480058  0.14969182  0.92174976  1
  O  O592  1  0.91094228  0.48226920  0.17269390  1
  O  O593  1  0.91112172  0.48158268  0.42302266  1
  O  O594  1  0.91204484  0.48285462  0.67109709  1
  O  O595  1  0.91320473  0.48086604  0.92338766  1
  O  O596  1  0.91283231  0.81494193  0.17276052  1
  O  O597  1  0.91249787  0.81589577  0.42215488  1
  O  O598  1  0.91432809  0.81529196  0.67185004  1
  O  O599  1  0.91331926  0.81461779  0.92257856  1
  O  O600  1  0.08641755  0.18442032  0.07899461  1
  O  O601  1  0.08881374  0.18406473  0.32834300  1
  O  O602  1  0.08838540  0.18447218  0.57693401  1
  O  O603  1  0.08668736  0.18590632  0.82781855  1
  O  O604  1  0.08654720  0.51911745  0.07777263  1
  O  O605  1  0.08891377  0.51806318  0.32686132  1
  O  O606  1  0.08799983  0.51964444  0.57649870  1
  O  O607  1  0.08769869  0.51583017  0.82753013  1
  O  O608  1  0.08677867  0.85140674  0.07764204  1
  O  O609  1  0.08647858  0.85238688  0.32755005  1
  O  O610  1  0.08746861  0.85101556  0.57654611  1
  O  O611  1  0.08885198  0.85250947  0.82798159  1
  O  O612  1  0.58731372  0.18500834  0.07772367  1
  O  O613  1  0.58669430  0.18473227  0.32715506  1
  O  O614  1  0.58693794  0.18502045  0.57648842  1
  O  O615  1  0.58748857  0.18560966  0.82825356  1
  O  O616  1  0.58726915  0.51888021  0.07674648  1
  O  O617  1  0.58734474  0.51933198  0.32705373  1
  O  O618  1  0.58502574  0.51714247  0.57733243  1
  O  O619  1  0.58675009  0.51817714  0.82834944  1
  O  O620  1  0.58798376  0.85082718  0.07865274  1
  O  O621  1  0.58648429  0.85056490  0.32855944  1
  O  O622  1  0.58691115  0.85298630  0.57624998  1
  O  O623  1  0.58513891  0.85064093  0.82745893  1
  O  O624  1  0.33625038  0.18433393  0.04733467  1
  O  O625  1  0.33592428  0.18549941  0.29911906  1
  O  O626  1  0.33678041  0.18477032  0.54832304  1
  O  O627  1  0.33774295  0.18468971  0.79697227  1
  O  O628  1  0.33921820  0.51723779  0.04659972  1
  O  O629  1  0.33622344  0.51786392  0.29634260  1
  O  O630  1  0.33668430  0.51940210  0.54851429  1
  O  O631  1  0.33795159  0.51854982  0.79819145  1
  O  O632  1  0.33590172  0.85261486  0.04775242  1
  O  O633  1  0.33761129  0.85155661  0.29806600  1
  O  O634  1  0.33702616  0.85093788  0.54739881  1
  O  O635  1  0.33871106  0.85188566  0.79782373  1
  O  O636  1  0.84087509  0.18666752  0.04757496  1
  O  O637  1  0.83919572  0.18467259  0.29715830  1
  O  O638  1  0.83588690  0.18473898  0.54782966  1
  O  O639  1  0.83810376  0.18482343  0.79805278  1
  O  O640  1  0.83694060  0.51773976  0.04747244  1
  O  O641  1  0.83908321  0.51863552  0.29656633  1
  O  O642  1  0.83781671  0.51769319  0.54802691  1
  O  O643  1  0.83769908  0.51863565  0.79709550  1
  O  O644  1  0.83849579  0.85126270  0.04818944  1
  O  O645  1  0.83989658  0.85122709  0.29754120  1
  O  O646  1  0.83754153  0.85250127  0.54826342  1
  O  O647  1  0.83822174  0.85169779  0.79724718  1
  O  O648  1  0.16046699  0.14960390  0.20360041  1
  O  O649  1  0.16008346  0.14764779  0.45331944  1
  O  O650  1  0.16069984  0.14818537  0.70184731  1
  O  O651  1  0.16153198  0.14781926  0.95209954  1
  O  O652  1  0.16368356  0.48146557  0.20175851  1
  O  O653  1  0.16230544  0.48194808  0.45311897  1
  O  O654  1  0.16209584  0.48294165  0.70349885  1
  O  O655  1  0.16364974  0.48154163  0.95151544  1
  O  O656  1  0.16110557  0.81417228  0.20175301  1
  O  O657  1  0.16319323  0.81531898  0.45288959  1
  O  O658  1  0.16149057  0.81362628  0.70140795  1
  O  O659  1  0.16217166  0.81598663  0.95335709  1
  O  O660  1  0.66585347  0.14836846  0.20213176  1
  O  O661  1  0.66312498  0.14828032  0.45267027  1
  O  O662  1  0.66166430  0.14824581  0.70155183  1
  O  O663  1  0.66382866  0.14837498  0.95274807  1
  O  O664  1  0.66482525  0.48138692  0.20209749  1
  O  O665  1  0.66298554  0.48117364  0.45265671  1
  O  O666  1  0.66083373  0.48146823  0.70181729  1
  O  O667  1  0.66372468  0.48300029  0.95234428  1
  O  O668  1  0.66327039  0.81534454  0.20246805  1
  O  O669  1  0.66228145  0.81665872  0.45212625  1
  O  O670  1  0.66134765  0.81531419  0.70252731  1
  O  O671  1  0.66051117  0.81360074  0.95230622  1
