# generated using pymatgen
data_Na2MnFe(PO4)2
_symmetry_space_group_name_H-M   'P 1'
_cell_length_a   21.09011818
_cell_length_b   18.94342004
_cell_length_c   20.04874140
_cell_angle_alpha   89.99928859
_cell_angle_beta   89.99652861
_cell_angle_gamma   89.99845429
_symmetry_Int_Tables_number   1
_chemical_formula_structural   Na2MnFe(PO4)2
_chemical_formula_sum   'Na96 Mn48 Fe48 P96 O384'
_cell_volume   8009.85244148
_cell_formula_units_Z   48
loop_
 _symmetry_equiv_pos_site_id
 _symmetry_equiv_pos_as_xyz
  1  'x, y, z'
loop_
 _atom_site_type_symbol
 _atom_site_label
 _atom_site_symmetry_multiplicity
 _atom_site_fract_x
 _atom_site_fract_y
 _atom_site_fract_z
 _atom_site_occupancy
  Na  Na0  1  0.00233097  0.00060400  0.00020448  1
  Na  Na1  1  0.00260734  -0.00029510  0.25013006  1
  Na  Na2  1  0.00311456  0.00110769  0.49951127  1
  Na  Na3  1  -0.00009670  -0.00060319  0.75096746  1
  Na  Na4  1  -0.00005935  0.33337373  0.00014805  1
  Na  Na5  1  -0.00048874  0.33296579  0.25102511  1
  Na  Na6  1  -0.00050125  0.33333146  0.50007770  1
  Na  Na7  1  -0.00062289  0.33331215  0.74923830  1
  Na  Na8  1  -0.00035391  0.66666925  0.00092725  1
  Na  Na9  1  0.00017528  0.66688042  0.24948778  1
  Na  Na10  1  -0.00216552  0.66643507  0.49963450  1
  Na  Na11  1  -0.00181785  0.66684274  0.74911417  1
  Na  Na12  1  0.49923195  -0.00017660  0.00039355  1
  Na  Na13  1  0.49789404  -0.00115778  0.24993079  1
  Na  Na14  1  0.50200066  0.00064004  0.49973413  1
  Na  Na15  1  0.50173629  0.00046936  0.74969665  1
  Na  Na16  1  0.50253638  0.33405927  0.00007520  1
  Na  Na17  1  0.50052346  0.33393898  0.24992254  1
  Na  Na18  1  0.49897150  0.33354909  0.49956109  1
  Na  Na19  1  0.50008484  0.33321128  0.75053741  1
  Na  Na20  1  0.49961729  0.66720652  0.00074025  1
  Na  Na21  1  0.49656582  0.66625342  0.24964477  1
  Na  Na22  1  0.49775173  0.66678283  0.49946015  1
  Na  Na23  1  0.50122169  0.66752977  0.75036338  1
  Na  Na24  1  0.24809480  -0.00037000  0.12565042  1
  Na  Na25  1  0.24740071  -0.00071970  0.37527021  1
  Na  Na26  1  0.24783098  -0.00047774  0.62458001  1
  Na  Na27  1  0.24827037  -0.00005465  0.87490288  1
  Na  Na28  1  0.25156435  0.33424475  0.12546665  1
  Na  Na29  1  0.25171190  0.33406711  0.37498353  1
  Na  Na30  1  0.25155082  0.33335613  0.62523087  1
  Na  Na31  1  0.24942394  0.33303774  0.87383673  1
  Na  Na32  1  0.24941340  0.66663235  0.12465802  1
  Na  Na33  1  0.25217573  0.66774078  0.37510636  1
  Na  Na34  1  0.24959852  0.66590701  0.62505653  1
  Na  Na35  1  0.25063679  0.66778536  0.87515744  1
  Na  Na36  1  0.75128620  0.00022101  0.12524800  1
  Na  Na37  1  0.75004442  -0.00044727  0.37474722  1
  Na  Na38  1  0.74956721  -0.00009937  0.62508638  1
  Na  Na39  1  0.74970501  -0.00027930  0.87436376  1
  Na  Na40  1  0.74802841  0.33294242  0.12598294  1
  Na  Na41  1  0.74852992  0.33332865  0.37467859  1
  Na  Na42  1  0.75094320  0.33416139  0.62548945  1
  Na  Na43  1  0.74782160  0.33248083  0.87458148  1
  Na  Na44  1  0.75034663  0.66630663  0.12468120  1
  Na  Na45  1  0.75287641  0.66804689  0.37584995  1
  Na  Na46  1  0.75183696  0.66726112  0.62379607  1
  Na  Na47  1  0.75211164  0.66757138  0.87526350  1
  Na  Na48  1  0.00066767  0.16638917  -0.00070243  1
  Na  Na49  1  0.00229968  0.16610643  0.25105580  1
  Na  Na50  1  0.00189965  0.16645740  0.49959965  1
  Na  Na51  1  0.00046019  0.16646627  0.75011553  1
  Na  Na52  1  0.00051871  0.50002931  0.00164120  1
  Na  Na53  1  0.00041290  0.49968342  0.24957191  1
  Na  Na54  1  -0.00069616  0.50008767  0.50019149  1
  Na  Na55  1  -0.00070255  0.49975742  0.74886059  1
  Na  Na56  1  0.00038780  0.83289162  0.00025911  1
  Na  Na57  1  0.00049846  0.83313413  0.25042913  1
  Na  Na58  1  -0.00164106  0.83389017  0.49898538  1
  Na  Na59  1  -0.00114059  0.83326926  0.75059804  1
  Na  Na60  1  0.50081416  0.16627437  0.00117693  1
  Na  Na61  1  0.49912974  0.16674804  0.24907238  1
  Na  Na62  1  0.49872381  0.16745038  0.49945041  1
  Na  Na63  1  0.50083245  0.16620292  0.75111183  1
  Na  Na64  1  0.50300299  0.49913369  -0.00060975  1
  Na  Na65  1  0.50017422  0.49978446  0.24995450  1
  Na  Na66  1  0.49933057  0.49936866  0.50005291  1
  Na  Na67  1  0.50125070  0.49962284  0.74989293  1
  Na  Na68  1  0.49723392  0.83412633  0.00039267  1
  Na  Na69  1  0.49648680  0.83369020  0.25067192  1
  Na  Na70  1  0.49973544  0.83333005  0.49891202  1
  Na  Na71  1  0.50132607  0.83310992  0.74961538  1
  Na  Na72  1  0.25009854  0.16579806  0.12567994  1
  Na  Na73  1  0.24913105  0.16715201  0.37599926  1
  Na  Na74  1  0.24908248  0.16708030  0.62467401  1
  Na  Na75  1  0.24979558  0.16615786  0.87429371  1
  Na  Na76  1  0.24974266  0.49998519  0.12479642  1
  Na  Na77  1  0.25026928  0.50001332  0.37511018  1
  Na  Na78  1  0.25220839  0.49864762  0.62440737  1
  Na  Na79  1  0.24954647  0.49990367  0.87475150  1
  Na  Na80  1  0.25024816  0.83280697  0.12494037  1
  Na  Na81  1  0.25009881  0.83353652  0.37464432  1
  Na  Na82  1  0.24992295  0.83296818  0.62542869  1
  Na  Na83  1  0.24845813  0.83353440  0.87497025  1
  Na  Na84  1  0.74804708  0.16745808  0.12498536  1
  Na  Na85  1  0.74883458  0.16720280  0.37550240  1
  Na  Na86  1  0.75162771  0.16570540  0.62520116  1
  Na  Na87  1  0.74903864  0.16687764  0.87420058  1
  Na  Na88  1  0.74784287  0.50030459  0.12520148  1
  Na  Na89  1  0.74998858  0.49912909  0.37528179  1
  Na  Na90  1  0.74878398  0.50015963  0.62433539  1
  Na  Na91  1  0.74829932  0.50030500  0.87548866  1
  Na  Na92  1  0.75361376  0.83232757  0.12553099  1
  Na  Na93  1  0.75186636  0.83321105  0.37467247  1
  Na  Na94  1  0.75157352  0.83316437  0.62497772  1
  Na  Na95  1  0.75218749  0.83311003  0.87445877  1
  Mn  Mn96  1  0.14237013  0.25062112  0.74736533  1
  Mn  Mn97  1  0.14130621  0.91638294  0.74737718  1
  Mn  Mn98  1  0.85810467  0.08336977  0.00238832  1
  Mn  Mn99  1  0.14263512  0.25066374  0.24752402  1
  Mn  Mn100  1  0.39269400  0.25015627  0.12684840  1
  Mn  Mn101  1  0.60736972  0.08268534  0.12269361  1
  Mn  Mn102  1  0.89304678  0.91642281  0.87804653  1
  Mn  Mn103  1  0.35827952  0.74983714  0.75206299  1
  Mn  Mn104  1  0.14188971  0.58291325  0.74818792  1
  Mn  Mn105  1  0.85756801  0.41684772  0.75267714  1
  Mn  Mn106  1  0.64200415  0.91626245  0.24763435  1
  Mn  Mn107  1  0.39214480  0.58347460  0.12687590  1
  Mn  Mn108  1  0.14171486  0.58355373  0.99688723  1
  Mn  Mn109  1  0.89239928  0.25079447  0.87758401  1
  Mn  Mn110  1  0.89323955  0.91684999  0.37736147  1
  Mn  Mn111  1  0.85841239  0.08343322  0.25191458  1
  Mn  Mn112  1  0.60849182  0.75071280  0.87359643  1
  Mn  Mn113  1  0.39283449  0.58322783  0.62759367  1
  Mn  Mn114  1  0.64231037  0.24962192  0.74686071  1
  Mn  Mn115  1  0.10682202  0.75049919  0.62225312  1
  Mn  Mn116  1  0.89211541  0.58308376  0.12792075  1
  Mn  Mn117  1  0.39292974  0.58334706  0.87736314  1
  Mn  Mn118  1  0.64245545  0.91639958  0.99863361  1
  Mn  Mn119  1  0.85697879  0.41678339  0.25246301  1
  Mn  Mn120  1  0.35820264  0.41664340  0.00178408  1
  Mn  Mn121  1  0.85844693  0.08342690  0.50247342  1
  Mn  Mn122  1  0.64176837  0.58402430  0.24871315  1
  Mn  Mn123  1  0.64192452  0.24954256  0.49826533  1
  Mn  Mn124  1  0.14197136  0.24977202  0.99807902  1
  Mn  Mn125  1  0.10778307  0.74908402  0.37278106  1
  Mn  Mn126  1  0.60735956  0.75015481  0.12324766  1
  Mn  Mn127  1  0.10816228  0.41596349  0.12318166  1
  Mn  Mn128  1  0.64288268  0.58426929  0.74760557  1
  Mn  Mn129  1  0.60713201  0.08357847  0.37238896  1
  Mn  Mn130  1  0.89234803  0.25047480  0.37744827  1
  Mn  Mn131  1  0.39288841  0.91742135  0.62664435  1
  Mn  Mn132  1  0.89163150  0.58330372  0.62742206  1
  Mn  Mn133  1  0.64310684  0.91617995  0.74768288  1
  Mn  Mn134  1  0.60680549  0.74966360  0.37243060  1
  Mn  Mn135  1  0.10786729  0.41620565  0.62205888  1
  Mn  Mn136  1  0.64220798  0.58406822  0.49696851  1
  Mn  Mn137  1  0.35804114  0.08318150  0.75184492  1
  Mn  Mn138  1  0.39182826  0.91705177  0.87711438  1
  Mn  Mn139  1  0.14262351  0.58306383  0.49720325  1
  Mn  Mn140  1  0.85695087  0.41641661  0.00203825  1
  Mn  Mn141  1  0.39293873  0.24954317  0.87780295  1
  Mn  Mn142  1  0.35691258  0.08319689  0.50260709  1
  Mn  Mn143  1  0.35665521  0.08329113  0.25272897  1
  Fe  Fe144  1  0.85764849  0.75023964  0.75194774  1
  Fe  Fe145  1  0.39137228  0.91696637  0.37746551  1
  Fe  Fe146  1  0.60768875  0.41638396  0.87290564  1
  Fe  Fe147  1  0.60753959  0.08305826  0.87362736  1
  Fe  Fe148  1  0.14303914  0.91545304  0.24785151  1
  Fe  Fe149  1  0.85823887  0.74986735  0.00213101  1
  Fe  Fe150  1  0.89274734  0.58276311  0.87685244  1
  Fe  Fe151  1  0.64173504  0.24964030  0.24844785  1
  Fe  Fe152  1  0.85703207  0.41661216  0.50123363  1
  Fe  Fe153  1  0.35803475  0.41733262  0.25203450  1
  Fe  Fe154  1  0.35712031  0.75020633  0.50208762  1
  Fe  Fe155  1  0.10730163  0.08342599  0.12286954  1
  Fe  Fe156  1  0.89268521  0.91814241  0.62597383  1
  Fe  Fe157  1  0.14284176  0.91643304  0.99895283  1
  Fe  Fe158  1  0.64310661  0.58398235  0.99807721  1
  Fe  Fe159  1  0.35681194  0.08273207  0.00142491  1
  Fe  Fe160  1  0.60725757  0.41715625  0.12338299  1
  Fe  Fe161  1  0.39250976  0.24993363  0.37667240  1
  Fe  Fe162  1  0.10803121  0.08417832  0.37334039  1
  Fe  Fe163  1  0.35646754  0.75063176  0.00159228  1
  Fe  Fe164  1  0.64271940  0.24966333  0.99822775  1
  Fe  Fe165  1  0.14304572  0.58358098  0.24934445  1
  Fe  Fe166  1  0.14218489  0.91611991  0.49842636  1
  Fe  Fe167  1  0.89424803  0.91747462  0.12660001  1
  Fe  Fe168  1  0.39152017  0.58294735  0.37651443  1
  Fe  Fe169  1  0.10778178  0.41687103  0.37360118  1
  Fe  Fe170  1  0.85837238  0.74974182  0.25164044  1
  Fe  Fe171  1  0.89195032  0.24925786  0.12671469  1
  Fe  Fe172  1  0.10680180  0.08331764  0.62382302  1
  Fe  Fe173  1  0.35799802  0.41674859  0.75206029  1
  Fe  Fe174  1  0.89318723  0.24917064  0.62607108  1
  Fe  Fe175  1  0.10749668  0.75034447  0.12321844  1
  Fe  Fe176  1  0.14304821  0.25044191  0.49849971  1
  Fe  Fe177  1  0.85720768  0.75031034  0.50177249  1
  Fe  Fe178  1  0.35611972  0.74962809  0.25140652  1
  Fe  Fe179  1  0.89290954  0.58238555  0.37594354  1
  Fe  Fe180  1  0.60631295  0.41673699  0.37378364  1
  Fe  Fe181  1  0.10734379  0.41710355  0.87313828  1
  Fe  Fe182  1  0.60815007  0.08337964  0.62323395  1
  Fe  Fe183  1  0.60661087  0.41640237  0.62280974  1
  Fe  Fe184  1  0.10665663  0.74898451  0.87329011  1
  Fe  Fe185  1  0.10770166  0.08386264  0.87292892  1
  Fe  Fe186  1  0.39284959  0.24955888  0.62630911  1
  Fe  Fe187  1  0.35754478  0.41684034  0.50169360  1
  Fe  Fe188  1  0.64316291  0.91646843  0.49825899  1
  Fe  Fe189  1  0.85780327  0.08308978  0.75169505  1
  Fe  Fe190  1  0.60844846  0.75033375  0.62230871  1
  Fe  Fe191  1  0.39082695  0.91695568  0.12649981  1
  P  P192  1  0.05189738  0.24929487  0.11030703  1
  P  P193  1  0.05524664  0.25104365  0.36164864  1
  P  P194  1  0.05305989  0.24921939  0.60944441  1
  P  P195  1  0.05377093  0.25067873  0.85992584  1
  P  P196  1  0.05510582  0.58414292  0.11172718  1
  P  P197  1  0.05284504  0.58234995  0.35961746  1
  P  P198  1  0.05307247  0.58356537  0.60955225  1
  P  P199  1  0.05171790  0.58332467  0.85997058  1
  P  P200  1  0.05485426  0.91615322  0.11107936  1
  P  P201  1  0.05598574  0.91681387  0.36055329  1
  P  P202  1  0.05226155  0.91730969  0.60949844  1
  P  P203  1  0.05514720  0.91610479  0.86181845  1
  P  P204  1  0.55530568  0.25077968  0.11080718  1
  P  P205  1  0.55235437  0.25076308  0.35969047  1
  P  P206  1  0.55215049  0.24997207  0.61029320  1
  P  P207  1  0.55548652  0.24936900  0.86136333  1
  P  P208  1  0.55410297  0.58316917  0.10970346  1
  P  P209  1  0.55104871  0.58311719  0.36027048  1
  P  P210  1  0.55391025  0.58363090  0.60978862  1
  P  P211  1  0.55531812  0.58344159  0.86110171  1
  P  P212  1  0.55107242  0.91599137  0.11023932  1
  P  P213  1  0.55257353  0.91628557  0.36094421  1
  P  P214  1  0.55485120  0.91658353  0.60905443  1
  P  P215  1  0.55367718  0.91743246  0.86021386  1
  P  P216  1  0.44453583  0.08240045  0.13892953  1
  P  P217  1  0.44568136  0.08331994  0.38985555  1
  P  P218  1  0.44829623  0.08387419  0.63968655  1
  P  P219  1  0.44742138  0.08326876  0.89084519  1
  P  P220  1  0.44734314  0.41692097  0.14029060  1
  P  P221  1  0.44531516  0.41661510  0.38911672  1
  P  P222  1  0.44593996  0.41570961  0.63939138  1
  P  P223  1  0.44756492  0.41653301  0.88901137  1
  P  P224  1  0.44374954  0.75102721  0.13950350  1
  P  P225  1  0.44337196  0.75005205  0.38906257  1
  P  P226  1  0.44745524  0.75059141  0.63871266  1
  P  P227  1  0.44626275  0.75032004  0.89091957  1
  P  P228  1  0.94833808  0.08326850  0.13988058  1
  P  P229  1  0.94855898  0.08338483  0.38983930  1
  P  P230  1  0.94743082  0.08336158  0.64017320  1
  P  P231  1  0.94725209  0.08333094  0.88908002  1
  P  P232  1  0.94618853  0.41541722  0.14022250  1
  P  P233  1  0.94718235  0.41751378  0.39030350  1
  P  P234  1  0.94520739  0.41554310  0.63848290  1
  P  P235  1  0.94788802  0.41770834  0.89020769  1
  P  P236  1  0.94642470  0.75097242  0.13939791  1
  P  P237  1  0.94495787  0.74878858  0.38908702  1
  P  P238  1  0.94422133  0.75166100  0.63904772  1
  P  P239  1  0.94601757  0.74889828  0.88969716  1
  P  P240  1  0.19423495  0.08266586  0.23588129  1
  P  P241  1  0.19409844  0.08349622  0.48632823  1
  P  P242  1  0.19484434  0.08355290  0.73492738  1
  P  P243  1  0.19572413  0.08253491  0.98574444  1
  P  P244  1  0.19726811  0.41770751  0.23649309  1
  P  P245  1  0.19764389  0.41573616  0.48458358  1
  P  P246  1  0.19694252  0.41694418  0.73540920  1
  P  P247  1  0.19624822  0.41634661  0.98401824  1
  P  P248  1  0.19681331  0.74953304  0.23478386  1
  P  P249  1  0.19766733  0.75037048  0.48507706  1
  P  P250  1  0.19524850  0.74938586  0.73568253  1
  P  P251  1  0.19558808  0.75102799  0.98574694  1
  P  P252  1  0.69645361  0.08365320  0.23509489  1
  P  P253  1  0.69574807  0.08253143  0.48593095  1
  P  P254  1  0.69649315  0.08310889  0.73534547  1
  P  P255  1  0.69639956  0.08354744  0.98444750  1
  P  P256  1  0.69377555  0.41625538  0.23619063  1
  P  P257  1  0.69541845  0.41632064  0.48551532  1
  P  P258  1  0.69474895  0.41678249  0.73503607  1
  P  P259  1  0.69446409  0.41659990  0.98589932  1
  P  P260  1  0.69825074  0.74992448  0.23514541  1
  P  P261  1  0.69676907  0.75118768  0.48558278  1
  P  P262  1  0.69802551  0.75008773  0.73425346  1
  P  P263  1  0.69862927  0.74998356  0.98550113  1
  P  P264  1  0.30312083  0.24904604  0.01491355  1
  P  P265  1  0.30423773  0.25073725  0.26560386  1
  P  P266  1  0.30412857  0.25071139  0.51433962  1
  P  P267  1  0.30538066  0.25041894  0.76366593  1
  P  P268  1  0.30313797  0.58396044  0.01468474  1
  P  P269  1  0.30284495  0.58337265  0.26504384  1
  P  P270  1  0.30495535  0.58326930  0.51379105  1
  P  P271  1  0.30380173  0.58246783  0.76514145  1
  P  P272  1  0.30222051  0.91699505  0.01520890  1
  P  P273  1  0.30325507  0.91601703  0.26436920  1
  P  P274  1  0.30275148  0.91618422  0.51412336  1
  P  P275  1  0.30293042  0.91685325  0.76485206  1
  P  P276  1  0.80223248  0.25013411  0.01554763  1
  P  P277  1  0.80285986  0.24973516  0.26424904  1
  P  P278  1  0.80390659  0.25094617  0.51558212  1
  P  P279  1  0.80488808  0.24893752  0.76378021  1
  P  P280  1  0.80370489  0.58339758  0.01396555  1
  P  P281  1  0.80366689  0.58382295  0.26587872  1
  P  P282  1  0.80476630  0.58272580  0.51314520  1
  P  P283  1  0.80415685  0.58395426  0.76589633  1
  P  P284  1  0.80477317  0.91622781  0.01563875  1
  P  P285  1  0.80542634  0.91631324  0.26380043  1
  P  P286  1  0.80332315  0.91649492  0.51527712  1
  P  P287  1  0.80573135  0.91717774  0.76372168  1
  O  O288  1  0.05602345  0.25011961  0.18699022  1
  O  O289  1  0.05922686  0.25123208  0.43833945  1
  O  O290  1  0.05655956  0.25043071  0.68614106  1
  O  O291  1  0.05653821  0.25039475  0.93666897  1
  O  O292  1  0.05965316  0.58367061  0.18840241  1
  O  O293  1  0.05641891  0.58339758  0.43630486  1
  O  O294  1  0.05635925  0.58349965  0.68621780  1
  O  O295  1  0.05511140  0.58348589  0.93671173  1
  O  O296  1  0.05907316  0.91547731  0.18781530  1
  O  O297  1  0.05969191  0.91564083  0.43733806  1
  O  O298  1  0.05549459  0.91598171  0.68624816  1
  O  O299  1  0.05900659  0.91627781  0.93877820  1
  O  O300  1  0.55857810  0.24962032  0.18757647  1
  O  O301  1  0.55610974  0.25011690  0.43641957  1
  O  O302  1  0.55573936  0.24987271  0.68663159  1
  O  O303  1  0.55904139  0.24944393  0.93833060  1
  O  O304  1  0.55651994  0.58439761  0.18649526  1
  O  O305  1  0.55530560  0.58396039  0.43690103  1
  O  O306  1  0.55683298  0.58413295  0.68655139  1
  O  O307  1  0.55942307  0.58445086  0.93786465  1
  O  O308  1  0.55523649  0.91568080  0.18692150  1
  O  O309  1  0.55854530  0.91615710  0.43746089  1
  O  O310  1  0.55775101  0.91625590  0.68591605  1
  O  O311  1  0.55652432  0.91654772  0.93692590  1
  O  O312  1  0.44037449  0.08285383  0.06218779  1
  O  O313  1  0.44270182  0.08289883  0.31314461  1
  O  O314  1  0.44374343  0.08331016  0.56303778  1
  O  O315  1  0.44359703  0.08320371  0.81416120  1
  O  O316  1  0.44378409  0.41682440  0.06354065  1
  O  O317  1  0.44118358  0.41709067  0.31239340  1
  O  O318  1  0.44110696  0.41636186  0.56264001  1
  O  O319  1  0.44252444  0.41680220  0.81241197  1
  O  O320  1  0.43954474  0.75043590  0.06275762  1
  O  O321  1  0.43915267  0.74997944  0.31226901  1
  O  O322  1  0.44173368  0.75065803  0.56210039  1
  O  O323  1  0.44355356  0.75021446  0.81408153  1
  O  O324  1  0.94470421  0.08337307  0.06319249  1
  O  O325  1  0.94447828  0.08311890  0.31322207  1
  O  O326  1  0.94439051  0.08331471  0.56340822  1
  O  O327  1  0.94219861  0.08318367  0.81241423  1
  O  O328  1  0.94283044  0.41620401  0.06351367  1
  O  O329  1  0.94322423  0.41675491  0.31361728  1
  O  O330  1  0.94100645  0.41647804  0.56184439  1
  O  O331  1  0.94396043  0.41705447  0.81350675  1
  O  O332  1  0.94176943  0.74990395  0.06270647  1
  O  O333  1  0.94161017  0.74977368  0.31229054  1
  O  O334  1  0.94025688  0.75070333  0.56223514  1
  O  O335  1  0.94144123  0.74979640  0.81295187  1
  O  O336  1  0.19094042  0.08364636  0.06249228  1
  O  O337  1  0.19063091  0.08382246  0.31272068  1
  O  O338  1  0.19029923  0.08348282  0.56310881  1
  O  O339  1  0.19060053  0.08369769  0.81176700  1
  O  O340  1  0.19306920  0.41630975  0.06084060  1
  O  O341  1  0.19228841  0.41695943  0.31308725  1
  O  O342  1  0.19395642  0.41613167  0.56129253  1
  O  O343  1  0.19127196  0.41701541  0.81201761  1
  O  O344  1  0.19107778  0.75009780  0.06244405  1
  O  O345  1  0.19362518  0.74958937  0.31161026  1
  O  O346  1  0.19364934  0.74984533  0.56171031  1
  O  O347  1  0.19048823  0.74928070  0.81245538  1
  O  O348  1  0.69317949  0.08274032  0.06124716  1
  O  O349  1  0.69325595  0.08299323  0.31189886  1
  O  O350  1  0.69149294  0.08357424  0.56270545  1
  O  O351  1  0.69153020  0.08316868  0.81193838  1
  O  O352  1  0.69118289  0.41675088  0.06272130  1
  O  O353  1  0.68950623  0.41694340  0.31300479  1
  O  O354  1  0.69039496  0.41632538  0.56220820  1
  O  O355  1  0.69057181  0.41648348  0.81187000  1
  O  O356  1  0.69428128  0.75036775  0.06213016  1
  O  O357  1  0.69375562  0.75018290  0.31182571  1
  O  O358  1  0.69209329  0.75021635  0.56228268  1
  O  O359  1  0.69392203  0.75029559  0.81090523  1
  O  O360  1  0.30730305  0.25009098  0.18882887  1
  O  O361  1  0.30883493  0.24987105  0.43768279  1
  O  O362  1  0.30963818  0.24950650  0.68688826  1
  O  O363  1  0.30606576  0.24946257  0.93810237  1
  O  O364  1  0.30607002  0.58283686  0.18838205  1
  O  O365  1  0.30856211  0.58311165  0.43699925  1
  O  O366  1  0.30705305  0.58288671  0.68833220  1
  O  O367  1  0.30660978  0.58346447  0.93796105  1
  O  O368  1  0.30745181  0.91703730  0.18767873  1
  O  O369  1  0.30736753  0.91716269  0.43741429  1
  O  O370  1  0.30664106  0.91707425  0.68809774  1
  O  O371  1  0.30550209  0.91717210  0.93850367  1
  O  O372  1  0.80815057  0.24948503  0.18761318  1
  O  O373  1  0.80663314  0.25024126  0.43875893  1
  O  O374  1  0.80950357  0.24939488  0.68693829  1
  O  O375  1  0.80645378  0.25022878  0.93884073  1
  O  O376  1  0.80628939  0.58272458  0.18894889  1
  O  O377  1  0.80878728  0.58233920  0.43651051  1
  O  O378  1  0.80674544  0.58281644  0.68886028  1
  O  O379  1  0.80865135  0.58269954  0.93731784  1
  O  O380  1  0.81022835  0.91733373  0.18713282  1
  O  O381  1  0.80719023  0.91735935  0.43858170  1
  O  O382  1  0.80917070  0.91777209  0.68674868  1
  O  O383  1  0.80758338  0.91707094  0.93907440  1
  O  O384  1  0.23363136  0.24979182  0.04062578  1
  O  O385  1  0.23444250  0.25041387  0.29039668  1
  O  O386  1  0.23371757  0.25014101  0.53799384  1
  O  O387  1  0.23532425  0.25008199  0.78766826  1
  O  O388  1  0.23340621  0.58349686  0.03953203  1
  O  O389  1  0.23284370  0.58391804  0.29008956  1
  O  O390  1  0.23510131  0.58249231  0.53854933  1
  O  O391  1  0.23419872  0.58334238  0.79035890  1
  O  O392  1  0.23219115  0.91657784  0.04004954  1
  O  O393  1  0.23281460  0.91618620  0.28798396  1
  O  O394  1  0.23242476  0.91636323  0.53793019  1
  O  O395  1  0.23316020  0.91681771  0.78947692  1
  O  O396  1  0.73196729  0.25012480  0.03931224  1
  O  O397  1  0.73247993  0.25005058  0.28777546  1
  O  O398  1  0.73428235  0.25007286  0.54089939  1
  O  O399  1  0.73498730  0.24953550  0.78750547  1
  O  O400  1  0.73338050  0.58334787  0.03767696  1
  O  O401  1  0.73409585  0.58380381  0.29131210  1
  O  O402  1  0.73485397  0.58344462  0.53775244  1
  O  O403  1  0.73456511  0.58389865  0.79094847  1
  O  O404  1  0.73505826  0.91640705  0.04106745  1
  O  O405  1  0.73537205  0.91639895  0.28791283  1
  O  O406  1  0.73333002  0.91653285  0.53982761  1
  O  O407  1  0.73587211  0.91660472  0.78844517  1
  O  O408  1  0.26424557  0.08301463  0.21179180  1
  O  O409  1  0.26411797  0.08336105  0.46189920  1
  O  O410  1  0.26486077  0.08334978  0.71088403  1
  O  O411  1  0.26605874  0.08270115  0.96191143  1
  O  O412  1  0.26762535  0.41730145  0.21268104  1
  O  O413  1  0.26784327  0.41682622  0.46047755  1
  O  O414  1  0.26733094  0.41637787  0.71212831  1
  O  O415  1  0.26603174  0.41649648  0.95922068  1
  O  O416  1  0.26688518  0.74955915  0.21027869  1
  O  O417  1  0.26763808  0.75045824  0.46050822  1
  O  O418  1  0.26531842  0.74954068  0.71181099  1
  O  O419  1  0.26599692  0.75080630  0.96209390  1
  O  O420  1  0.76609581  0.08382523  0.20991408  1
  O  O421  1  0.76576833  0.08332018  0.46166429  1
  O  O422  1  0.76693971  0.08282036  0.71188657  1
  O  O423  1  0.76614213  0.08322464  0.95944907  1
  O  O424  1  0.76387981  0.41690517  0.21216470  1
  O  O425  1  0.76583968  0.41618106  0.46209386  1
  O  O426  1  0.76496287  0.41710024  0.71145140  1
  O  O427  1  0.76432942  0.41637009  0.96084928  1
  O  O428  1  0.76841283  0.74949653  0.21109444  1
  O  O429  1  0.76722346  0.75066590  0.46220772  1
  O  O430  1  0.76826316  0.75017930  0.71037876  1
  O  O431  1  0.76878625  0.75033600  0.96123630  1
  O  O432  1  0.01835954  0.08286847  0.16462648  1
  O  O433  1  0.01872015  0.08383272  0.41385449  1
  O  O434  1  0.01739875  0.08317604  0.66510885  1
  O  O435  1  0.01772567  0.08364777  0.91247814  1
  O  O436  1  0.01593105  0.41595553  0.16519607  1
  O  O437  1  0.01728788  0.41693220  0.41470252  1
  O  O438  1  0.01522328  0.41606721  0.66270138  1
  O  O439  1  0.01781389  0.41708277  0.91498251  1
  O  O440  1  0.01684032  0.75044455  0.16299837  1
  O  O441  1  0.01499036  0.74958099  0.41355735  1
  O  O442  1  0.01417688  0.75026338  0.66331009  1
  O  O443  1  0.01641743  0.74962084  0.91345385  1
  O  O444  1  0.51450564  0.08270959  0.16326346  1
  O  O445  1  0.51537285  0.08373825  0.41499870  1
  O  O446  1  0.51844934  0.08332172  0.66382767  1
  O  O447  1  0.51746795  0.08319053  0.91525670  1
  O  O448  1  0.51742021  0.41703399  0.16455656  1
  O  O449  1  0.51567938  0.41648183  0.41314341  1
  O  O450  1  0.51642183  0.41648910  0.66271313  1
  O  O451  1  0.51791213  0.41618268  0.91247447  1
  O  O452  1  0.51376910  0.74997944  0.16381890  1
  O  O453  1  0.51356030  0.75014531  0.41292933  1
  O  O454  1  0.51793552  0.75060547  0.66190476  1
  O  O455  1  0.51594400  0.75079043  0.91608307  1
  O  O456  1  0.48539991  0.25028754  0.08610567  1
  O  O457  1  0.48221795  0.25034717  0.33538548  1
  O  O458  1  0.48214690  0.25016229  0.58513903  1
  O  O459  1  0.48559784  0.24965520  0.83678116  1
  O  O460  1  0.48446235  0.58308059  0.08432280  1
  O  O461  1  0.48092929  0.58298499  0.33597196  1
  O  O462  1  0.48423855  0.58319823  0.58458106  1
  O  O463  1  0.48547056  0.58356542  0.83643988  1
  O  O464  1  0.48100714  0.91661594  0.08596392  1
  O  O465  1  0.48191303  0.91624801  0.33829468  1
  O  O466  1  0.48510130  0.91693625  0.58398260  1
  O  O467  1  0.48418602  0.91690581  0.83449281  1
  O  O468  1  0.98193703  0.24950888  0.08553736  1
  O  O469  1  0.98527539  0.25037104  0.33717495  1
  O  O470  1  0.98299111  0.24946452  0.58489678  1
  O  O471  1  0.98416808  0.25031011  0.83451221  1
  O  O472  1  0.98491923  0.58358733  0.08788178  1
  O  O473  1  0.98289914  0.58280025  0.33485281  1
  O  O474  1  0.98315380  0.58357101  0.58497507  1
  O  O475  1  0.98193586  0.58332833  0.83466179  1
  O  O476  1  0.98462458  0.91668437  0.08687656  1
  O  O477  1  0.98594565  0.91623657  0.33643522  1
  O  O478  1  0.98233466  0.91780636  0.58457410  1
  O  O479  1  0.98544623  0.91605124  0.83739366  1
  O  O480  1  0.08596131  0.31418418  0.07753689  1
  O  O481  1  0.08831958  0.31640898  0.32846687  1
  O  O482  1  0.08732237  0.31385467  0.57620275  1
  O  O483  1  0.08757337  0.31603198  0.82762022  1
  O  O484  1  0.08799733  0.64947493  0.07852081  1
  O  O485  1  0.08709214  0.64721371  0.32664736  1
  O  O486  1  0.08685214  0.64855556  0.57678715  1
  O  O487  1  0.08566161  0.64848178  0.82751687  1
  O  O488  1  0.08866823  0.98120153  0.07828618  1
  O  O489  1  0.08940287  0.98210069  0.32814096  1
  O  O490  1  0.08685354  0.98229495  0.57778935  1
  O  O491  1  0.08873264  0.98126998  0.82900595  1
  O  O492  1  0.58875804  0.31622933  0.07857044  1
  O  O493  1  0.58615939  0.31591629  0.32735078  1
  O  O494  1  0.58594092  0.31506790  0.57739283  1
  O  O495  1  0.58935934  0.31422202  0.82850060  1
  O  O496  1  0.58846969  0.64804216  0.07695747  1
  O  O497  1  0.58451578  0.64813817  0.32696618  1
  O  O498  1  0.58775162  0.64873942  0.57703944  1
  O  O499  1  0.58887045  0.64853597  0.82796232  1
  O  O500  1  0.58532820  0.98083310  0.07768941  1
  O  O501  1  0.58546979  0.98139663  0.32730710  1
  O  O502  1  0.58917520  0.98172206  0.57701652  1
  O  O503  1  0.58769667  0.98277768  0.82825154  1
  O  O504  1  0.41091100  0.01734379  0.17182529  1
  O  O505  1  0.41177607  0.01827898  0.42264195  1
  O  O506  1  0.41452677  0.01889785  0.67272994  1
  O  O507  1  0.41317292  0.01835096  0.92350031  1
  O  O508  1  0.41335616  0.35205850  0.17310446  1
  O  O509  1  0.41196511  0.35140008  0.42213760  1
  O  O510  1  0.41297288  0.35047384  0.67249038  1
  O  O511  1  0.41426575  0.35157723  0.92244768  1
  O  O512  1  0.40958522  0.68619010  0.17258065  1
  O  O513  1  0.41000639  0.68489200  0.42213027  1
  O  O514  1  0.41442236  0.68546977  0.67222099  1
  O  O515  1  0.41210984  0.68534058  0.92337504  1
  O  O516  1  0.91465082  0.01809656  0.17252021  1
  O  O517  1  0.91532146  0.01827770  0.42297078  1
  O  O518  1  0.91330833  0.01839868  0.67278843  1
  O  O519  1  0.91445570  0.01839124  0.92273795  1
  O  O520  1  0.91235010  0.35020637  0.17249753  1
  O  O521  1  0.91277190  0.35283537  0.42325898  1
  O  O522  1  0.91201024  0.35020825  0.67128780  1
  O  O523  1  0.91366017  0.35277394  0.92289702  1
  O  O524  1  0.91267079  0.68619928  0.17299821  1
  O  O525  1  0.91155987  0.68344673  0.42145336  1
  O  O526  1  0.90971459  0.68706732  0.67229076  1
  O  O527  1  0.91299914  0.68352414  0.92269695  1
  O  O528  1  0.16081432  0.01733116  0.20343254  1
  O  O529  1  0.16031671  0.01852043  0.45342545  1
  O  O530  1  0.16081347  0.01869557  0.70203872  1
  O  O531  1  0.16230291  0.01727894  0.95307867  1
  O  O532  1  0.16400175  0.35274590  0.20270194  1
  O  O533  1  0.16431343  0.35049668  0.45186401  1
  O  O534  1  0.16361721  0.35199337  0.70185824  1
  O  O535  1  0.16216134  0.35137850  0.95154025  1
  O  O536  1  0.16284329  0.68460543  0.20229266  1
  O  O537  1  0.16416510  0.68521341  0.45198925  1
  O  O538  1  0.16183581  0.68446480  0.70243950  1
  O  O539  1  0.16208621  0.68625633  0.95189824  1
  O  O540  1  0.66254780  0.01854852  0.20242347  1
  O  O541  1  0.66263092  0.01709323  0.45322698  1
  O  O542  1  0.66295778  0.01816754  0.70199803  1
  O  O543  1  0.66205347  0.01861520  0.95188178  1
  O  O544  1  0.66052573  0.35099737  0.20340079  1
  O  O545  1  0.66193015  0.35134489  0.45225295  1
  O  O546  1  0.66133508  0.35191919  0.70167722  1
  O  O547  1  0.66060714  0.35148364  0.95316660  1
  O  O548  1  0.66433505  0.68488933  0.20261619  1
  O  O549  1  0.66335147  0.68637000  0.45187125  1
  O  O550  1  0.66445421  0.68510471  0.70113786  1
  O  O551  1  0.66508352  0.68494971  0.95257703  1
  O  O552  1  0.33776321  0.31401529  0.04702053  1
  O  O553  1  0.33836042  0.31584270  0.29776157  1
  O  O554  1  0.33732495  0.31602795  0.54717953  1
  O  O555  1  0.33880719  0.31567098  0.79642867  1
  O  O556  1  0.33678008  0.64922751  0.04702458  1
  O  O557  1  0.33700701  0.64843709  0.29732216  1
  O  O558  1  0.33810574  0.64873181  0.54656990  1
  O  O559  1  0.33834873  0.64735756  0.79734416  1
  O  O560  1  0.33589094  0.98203461  0.04817902  1
  O  O561  1  0.33659953  0.98075538  0.29833786  1
  O  O562  1  0.33599115  0.98118539  0.54769938  1
  O  O563  1  0.33671756  0.98194199  0.79754343  1
  O  O564  1  0.83584974  0.31502650  0.04867901  1
  O  O565  1  0.83610876  0.31482783  0.29759367  1
  O  O566  1  0.83785294  0.31622235  0.54752429  1
  O  O567  1  0.83836485  0.31396742  0.79715585  1
  O  O568  1  0.83719434  0.64846284  0.04701637  1
  O  O569  1  0.83839281  0.64882349  0.29734916  1
  O  O570  1  0.83867818  0.64783988  0.54581976  1
  O  O571  1  0.83846582  0.64916956  0.79743803  1
  O  O572  1  0.83918122  0.98120993  0.04835952  1
  O  O573  1  0.83884752  0.98124890  0.29747178  1
  O  O574  1  0.83726044  0.98145612  0.54838587  1
  O  O575  1  0.83917064  0.98222714  0.79673200  1
  O  O576  1  0.41100473  0.14747242  0.17199536  1
  O  O577  1  0.41154835  0.14856566  0.42189765  1
  O  O578  1  0.41481444  0.14899640  0.67243976  1
  O  O579  1  0.41349308  0.14818019  0.92375231  1
  O  O580  1  0.41332667  0.48186732  0.17303737  1
  O  O581  1  0.41189346  0.48149811  0.42262344  1
  O  O582  1  0.41239965  0.48051662  0.67307552  1
  O  O583  1  0.41463316  0.48156578  0.92267725  1
  O  O584  1  0.41032492  0.81621903  0.17234957  1
  O  O585  1  0.40978180  0.81510147  0.42227469  1
  O  O586  1  0.41422047  0.81554600  0.67221188  1
  O  O587  1  0.41148603  0.81516845  0.92305172  1
  O  O588  1  0.91459012  0.14835637  0.17269637  1
  O  O589  1  0.91457314  0.14822528  0.42258760  1
  O  O590  1  0.91342253  0.14846851  0.67265278  1
  O  O591  1  0.91389029  0.14833316  0.92237199  1
  O  O592  1  0.91204899  0.48049703  0.17278022  1
  O  O593  1  0.91346851  0.48275023  0.42277323  1
  O  O594  1  0.91145236  0.48041489  0.67194218  1
  O  O595  1  0.91422257  0.48286110  0.92281170  1
  O  O596  1  0.91338682  0.81624817  0.17234783  1
  O  O597  1  0.91081329  0.81348414  0.42234413  1
  O  O598  1  0.91151155  0.81725325  0.67175812  1
  O  O599  1  0.91235842  0.81353390  0.92332228  1
  O  O600  1  0.08575047  0.18413698  0.07783442  1
  O  O601  1  0.08918151  0.18611256  0.32883952  1
  O  O602  1  0.08692276  0.18395642  0.57743225  1
  O  O603  1  0.08816974  0.18565802  0.82774063  1
  O  O604  1  0.08864057  0.51922810  0.07843534  1
  O  O605  1  0.08691971  0.51716408  0.32745565  1
  O  O606  1  0.08696522  0.51848795  0.57704236  1
  O  O607  1  0.08582170  0.51821045  0.82756192  1
  O  O608  1  0.08811561  0.85112120  0.07762154  1
  O  O609  1  0.08979020  0.85192783  0.32710953  1
  O  O610  1  0.08605291  0.85241460  0.57616848  1
  O  O611  1  0.08855864  0.85083207  0.82902092  1
  O  O612  1  0.58943704  0.18610727  0.07751008  1
  O  O613  1  0.58643078  0.18597012  0.32660607  1
  O  O614  1  0.58602476  0.18488746  0.57743086  1
  O  O615  1  0.58884414  0.18403492  0.82872343  1
  O  O616  1  0.58850077  0.51794735  0.07810115  1
  O  O617  1  0.58500422  0.51806679  0.32804554  1
  O  O618  1  0.58795320  0.51832622  0.57777080  1
  O  O619  1  0.58888417  0.51817852  0.82862694  1
  O  O620  1  0.58463490  0.85095477  0.07721707  1
  O  O621  1  0.58550656  0.85130726  0.32701936  1
  O  O622  1  0.58889025  0.85156594  0.57636332  1
  O  O623  1  0.58829364  0.85261965  0.82767489  1
  O  O624  1  0.33691388  0.18375117  0.04703648  1
  O  O625  1  0.33829175  0.18582580  0.29849427  1
  O  O626  1  0.33770960  0.18594214  0.54813433  1
  O  O627  1  0.33885016  0.18545746  0.79700045  1
  O  O628  1  0.33728659  0.51896495  0.04727631  1
  O  O629  1  0.33680913  0.51850321  0.29811065  1
  O  O630  1  0.33906858  0.51825709  0.54633606  1
  O  O631  1  0.33756233  0.51708803  0.79733457  1
  O  O632  1  0.33638311  0.85206609  0.04778382  1
  O  O633  1  0.33649331  0.85076834  0.29710945  1
  O  O634  1  0.33621158  0.85110282  0.54701136  1
  O  O635  1  0.33681543  0.85179891  0.79735759  1
  O  O636  1  0.83598110  0.18507097  0.04846452  1
  O  O637  1  0.83613974  0.18482886  0.29785626  1
  O  O638  1  0.83880115  0.18616956  0.54795102  1
  O  O639  1  0.83813099  0.18359994  0.79667311  1
  O  O640  1  0.83675441  0.51840829  0.04772801  1
  O  O641  1  0.83799085  0.51889152  0.29843874  1
  O  O642  1  0.83777749  0.51743184  0.54650134  1
  O  O643  1  0.83839580  0.51912295  0.79867596  1
  O  O644  1  0.83928519  0.85121125  0.04765813  1
  O  O645  1  0.83889393  0.85099629  0.29639411  1
  O  O646  1  0.83748413  0.85154142  0.54758474  1
  O  O647  1  0.83957216  0.85197639  0.79602599  1
  O  O648  1  0.16046145  0.14743076  0.20235901  1
  O  O649  1  0.16071612  0.14878172  0.45337204  1
  O  O650  1  0.16119944  0.14847659  0.70181322  1
  O  O651  1  0.16226054  0.14733934  0.95194989  1
  O  O652  1  0.16404604  0.48282217  0.20349377  1
  O  O653  1  0.16320064  0.48037032  0.45161144  1
  O  O654  1  0.16404023  0.48202180  0.70180122  1
  O  O655  1  0.16189710  0.48129431  0.95152585  1
  O  O656  1  0.16297980  0.81458986  0.20204485  1
  O  O657  1  0.16359838  0.81521967  0.45246634  1
  O  O658  1  0.16176247  0.81449892  0.70256064  1
  O  O659  1  0.16229937  0.81621232  0.95292908  1
  O  O660  1  0.66202403  0.14868850  0.20326111  1
  O  O661  1  0.66178022  0.14740398  0.45288385  1
  O  O662  1  0.66324275  0.14791755  0.70156946  1
  O  O663  1  0.66242274  0.14878838  0.95230947  1
  O  O664  1  0.65996902  0.48111895  0.20295028  1
  O  O665  1  0.66200614  0.48122620  0.45194499  1
  O  O666  1  0.66113399  0.48181686  0.70209809  1
  O  O667  1  0.66074207  0.48174693  0.95314728  1
  O  O668  1  0.66475703  0.81487583  0.20190133  1
  O  O669  1  0.66387664  0.81644902  0.45247150  1
  O  O670  1  0.66421700  0.81500044  0.70123036  1
  O  O671  1  0.66504383  0.81506806  0.95246612  1
