# generated using pymatgen
data_Na2MnFe(PO4)2
_symmetry_space_group_name_H-M   'P 1'
_cell_length_a   21.08243420
_cell_length_b   18.93510051
_cell_length_c   20.04147133
_cell_angle_alpha   90.00047744
_cell_angle_beta   90.00337501
_cell_angle_gamma   90.00064391
_symmetry_Int_Tables_number   1
_chemical_formula_structural   Na2MnFe(PO4)2
_chemical_formula_sum   'Na96 Mn48 Fe48 P96 O384'
_cell_volume   8000.51546675
_cell_formula_units_Z   48
loop_
 _symmetry_equiv_pos_site_id
 _symmetry_equiv_pos_as_xyz
  1  'x, y, z'
loop_
 _atom_site_type_symbol
 _atom_site_label
 _atom_site_symmetry_multiplicity
 _atom_site_fract_x
 _atom_site_fract_y
 _atom_site_fract_z
 _atom_site_occupancy
  Na  Na0  1  0.00037701  0.00008535  -0.00034045  1
  Na  Na1  1  0.00068452  0.00033617  0.24972428  1
  Na  Na2  1  -0.00299714  -0.00115888  0.50090658  1
  Na  Na3  1  -0.00177254  -0.00043505  0.74945935  1
  Na  Na4  1  0.00097922  0.33400245  -0.00059074  1
  Na  Na5  1  0.00237818  0.33354368  0.25038052  1
  Na  Na6  1  0.00112057  0.33351789  0.49998905  1
  Na  Na7  1  -0.00123706  0.33308148  0.75060203  1
  Na  Na8  1  -0.00009825  0.66696967  -0.00001795  1
  Na  Na9  1  0.00238670  0.66716471  0.24972548  1
  Na  Na10  1  0.00109468  0.66646873  0.50029159  1
  Na  Na11  1  -0.00046841  0.66672715  0.74948503  1
  Na  Na12  1  0.50067980  -0.00071624  0.00036519  1
  Na  Na13  1  0.50252443  0.00045806  0.24992971  1
  Na  Na14  1  0.50135417  -0.00073522  0.50034666  1
  Na  Na15  1  0.50194481  -0.00021875  0.75054391  1
  Na  Na16  1  0.50026546  0.33318830  -0.00046478  1
  Na  Na17  1  0.49885508  0.33318416  0.25027180  1
  Na  Na18  1  0.49854788  0.33318128  0.50010265  1
  Na  Na19  1  0.49941221  0.33313037  0.74922399  1
  Na  Na20  1  0.50148189  0.66686902  -0.00074907  1
  Na  Na21  1  0.50118610  0.66793061  0.24998826  1
  Na  Na22  1  0.49823654  0.66613046  0.50101080  1
  Na  Na23  1  0.50220202  0.66763296  0.74981427  1
  Na  Na24  1  0.24863656  -0.00053228  0.12375618  1
  Na  Na25  1  0.24849615  -0.00086763  0.37514091  1
  Na  Na26  1  0.25029000  -0.00026960  0.62602252  1
  Na  Na27  1  0.25078410  -0.00004904  0.87585701  1
  Na  Na28  1  0.25118751  0.33306733  0.12356451  1
  Na  Na29  1  0.25029317  0.33310912  0.37422380  1
  Na  Na30  1  0.25190060  0.33405532  0.62589988  1
  Na  Na31  1  0.25200159  0.33346987  0.87608704  1
  Na  Na32  1  0.24772084  0.66600968  0.12343532  1
  Na  Na33  1  0.24972632  0.66658151  0.37459529  1
  Na  Na34  1  0.24953628  0.66630533  0.62628364  1
  Na  Na35  1  0.24971080  0.66683262  0.87492215  1
  Na  Na36  1  0.74699640  -0.00179224  0.12394035  1
  Na  Na37  1  0.75100716  0.00022131  0.37548805  1
  Na  Na38  1  0.75016377  -0.00070165  0.62493376  1
  Na  Na39  1  0.75026825  0.00005480  0.87518782  1
  Na  Na40  1  0.74750451  0.33287357  0.12477653  1
  Na  Na41  1  0.74842865  0.33275579  0.37479917  1
  Na  Na42  1  0.74980031  0.33387109  0.62537166  1
  Na  Na43  1  0.74823222  0.33337518  0.87484892  1
  Na  Na44  1  0.74764829  0.66615593  0.12510283  1
  Na  Na45  1  0.74921018  0.66746133  0.37519649  1
  Na  Na46  1  0.74947741  0.66684890  0.62555292  1
  Na  Na47  1  0.74985125  0.66724209  0.87517256  1
  Na  Na48  1  0.00185601  0.16571166  -0.00054163  1
  Na  Na49  1  0.00230526  0.16625846  0.25054090  1
  Na  Na50  1  -0.00040789  0.16677261  0.49976178  1
  Na  Na51  1  -0.00031204  0.16585563  0.74932632  1
  Na  Na52  1  -0.00004761  0.50029718  -0.00016262  1
  Na  Na53  1  0.00215759  0.50002578  0.25062402  1
  Na  Na54  1  0.00173374  0.50033706  0.50040842  1
  Na  Na55  1  -0.00108490  0.50086649  0.75001804  1
  Na  Na56  1  -0.00070747  0.83306077  -0.00024737  1
  Na  Na57  1  0.00051832  0.83296987  0.24882538  1
  Na  Na58  1  -0.00257080  0.83423771  0.50082677  1
  Na  Na59  1  -0.00152426  0.83314269  0.75030307  1
  Na  Na60  1  0.49910260  0.16722222  0.00009379  1
  Na  Na61  1  0.50115286  0.16622740  0.24923152  1
  Na  Na62  1  0.50130383  0.16620563  0.50026872  1
  Na  Na63  1  0.50103514  0.16648770  0.75072665  1
  Na  Na64  1  0.50184005  0.49932009  -0.00102785  1
  Na  Na65  1  0.49669856  0.50100515  0.25019896  1
  Na  Na66  1  0.49613358  0.50077274  0.50067218  1
  Na  Na67  1  0.49925918  0.50077941  0.74938233  1
  Na  Na68  1  0.50324366  0.83271533  0.00045200  1
  Na  Na69  1  0.50289839  0.83289911  0.25053491  1
  Na  Na70  1  0.50279335  0.83262629  0.50081074  1
  Na  Na71  1  0.50207818  0.83357201  0.74917540  1
  Na  Na72  1  0.24934767  0.16673730  0.12386390  1
  Na  Na73  1  0.24770420  0.16719961  0.37360752  1
  Na  Na74  1  0.24800255  0.16707717  0.62634272  1
  Na  Na75  1  0.25189361  0.16548128  0.87544083  1
  Na  Na76  1  0.25003904  0.50074448  0.12339370  1
  Na  Na77  1  0.25138820  0.50031521  0.37521976  1
  Na  Na78  1  0.25265260  0.50024644  0.62511872  1
  Na  Na79  1  0.25207684  0.50017542  0.87561861  1
  Na  Na80  1  0.24782252  0.83422612  0.12337448  1
  Na  Na81  1  0.25033465  0.83288802  0.37505136  1
  Na  Na82  1  0.25078664  0.83291626  0.62672938  1
  Na  Na83  1  0.24905818  0.83378166  0.87565441  1
  Na  Na84  1  0.74688585  0.16781345  0.12480361  1
  Na  Na85  1  0.75024509  0.16609820  0.37540426  1
  Na  Na86  1  0.75067226  0.16597469  0.62504438  1
  Na  Na87  1  0.74786797  0.16718407  0.87573773  1
  Na  Na88  1  0.74814901  0.50067421  0.12399682  1
  Na  Na89  1  0.75032230  0.49989180  0.37491931  1
  Na  Na90  1  0.75037883  0.49975540  0.62558714  1
  Na  Na91  1  0.74895395  0.50088480  0.87523384  1
  Na  Na92  1  0.74830826  0.83325122  0.12473163  1
  Na  Na93  1  0.74707064  0.83431538  0.37545999  1
  Na  Na94  1  0.74908743  0.83312971  0.62491938  1
  Na  Na95  1  0.74954330  0.83334556  0.87474286  1
  Mn  Mn96  1  0.60710516  0.41696698  0.62277033  1
  Mn  Mn97  1  0.85813611  0.41637548  0.25186704  1
  Mn  Mn98  1  0.14194705  0.58326638  0.99676006  1
  Mn  Mn99  1  0.10868277  0.75091122  0.37323583  1
  Mn  Mn100  1  0.35816387  0.75032676  0.75312636  1
  Mn  Mn101  1  0.39287811  0.58369197  0.12707896  1
  Mn  Mn102  1  0.10860528  0.41645897  0.62370150  1
  Mn  Mn103  1  0.85829509  0.41662659  0.50191066  1
  Mn  Mn104  1  0.35834322  0.08308668  0.75239264  1
  Mn  Mn105  1  0.85723353  0.08353895  0.00255973  1
  Mn  Mn106  1  0.64097657  0.58299687  0.24812139  1
  Mn  Mn107  1  0.89251225  0.24992378  0.37661800  1
  Mn  Mn108  1  0.64101427  0.58319604  0.49748290  1
  Mn  Mn109  1  0.39241069  0.91636989  0.37686194  1
  Mn  Mn110  1  0.10755084  0.41718937  0.87168487  1
  Mn  Mn111  1  0.10689780  0.08298183  0.62299049  1
  Mn  Mn112  1  0.60631944  0.41735704  0.37279983  1
  Mn  Mn113  1  0.10976517  0.41682919  0.37262529  1
  Mn  Mn114  1  0.39135463  0.24950090  0.37720111  1
  Mn  Mn115  1  0.89213121  0.91705551  0.12708419  1
  Mn  Mn116  1  0.89233731  0.25024795  0.12705180  1
  Mn  Mn117  1  0.39331777  0.91658492  0.12769677  1
  Mn  Mn118  1  0.60751731  0.08326168  0.87258260  1
  Mn  Mn119  1  0.89233929  0.58277039  0.12721259  1
  Mn  Mn120  1  0.35760595  0.75006696  0.25138395  1
  Mn  Mn121  1  0.89187616  0.25011295  0.62749353  1
  Mn  Mn122  1  0.14188269  0.91695680  0.99678454  1
  Mn  Mn123  1  0.85731676  0.75004295  0.25199038  1
  Mn  Mn124  1  0.14275858  0.25047690  0.74837730  1
  Mn  Mn125  1  0.85700379  0.74985795  0.50175652  1
  Mn  Mn126  1  0.64216363  0.24994499  0.49761209  1
  Mn  Mn127  1  0.60876020  0.08312935  0.37233047  1
  Mn  Mn128  1  0.35794861  0.08303942  0.50253704  1
  Mn  Mn129  1  0.85678349  0.41684219  0.00260562  1
  Mn  Mn130  1  0.10745222  0.75034214  0.62316638  1
  Mn  Mn131  1  0.35893337  0.41633273  0.00216182  1
  Mn  Mn132  1  0.14156060  0.91637673  0.49826022  1
  Mn  Mn133  1  0.39341170  0.91668275  0.62733788  1
  Mn  Mn134  1  0.85740233  0.08340737  0.25112813  1
  Mn  Mn135  1  0.89142759  0.24979740  0.87742467  1
  Mn  Mn136  1  0.60709042  0.41695374  0.12308428  1
  Mn  Mn137  1  0.35735257  0.08277784  0.25188245  1
  Mn  Mn138  1  0.39202035  0.24902781  0.62728433  1
  Mn  Mn139  1  0.89223030  0.58342962  0.62721656  1
  Mn  Mn140  1  0.89291440  0.58364212  0.37699754  1
  Mn  Mn141  1  0.14318630  0.24987536  0.99741917  1
  Mn  Mn142  1  0.35834676  0.75079069  0.00170185  1
  Mn  Mn143  1  0.10741003  0.08255100  0.37338746  1
  Fe  Fe144  1  0.89186832  0.91623479  0.37617066  1
  Fe  Fe145  1  0.89123981  0.91617263  0.62768577  1
  Fe  Fe146  1  0.35649275  0.41658660  0.25099867  1
  Fe  Fe147  1  0.64294579  0.58328954  0.74820602  1
  Fe  Fe148  1  0.39381365  0.24971882  0.87653209  1
  Fe  Fe149  1  0.60649693  0.74915157  0.37374672  1
  Fe  Fe150  1  0.14322025  0.58346646  0.74884424  1
  Fe  Fe151  1  0.60759461  0.74997011  0.62319323  1
  Fe  Fe152  1  0.14440725  0.58319557  0.49887331  1
  Fe  Fe153  1  0.39417558  0.58426936  0.87614994  1
  Fe  Fe154  1  0.14210396  0.91630101  0.74891627  1
  Fe  Fe155  1  0.10590183  0.75033035  0.87303355  1
  Fe  Fe156  1  0.60709927  0.41710737  0.87253726  1
  Fe  Fe157  1  0.35799871  0.75037117  0.50187291  1
  Fe  Fe158  1  0.85710488  0.08345916  0.50170315  1
  Fe  Fe159  1  0.85632221  0.74976815  0.00151809  1
  Fe  Fe160  1  0.39347565  0.24940096  0.12692185  1
  Fe  Fe161  1  0.89195787  0.58395078  0.87636596  1
  Fe  Fe162  1  0.10844210  0.41662218  0.12318393  1
  Fe  Fe163  1  0.64137050  0.25029366  0.99786993  1
  Fe  Fe164  1  0.35778796  0.08270568  0.00194217  1
  Fe  Fe165  1  0.60724297  0.08346173  0.12297905  1
  Fe  Fe166  1  0.35687518  0.41654444  0.50175576  1
  Fe  Fe167  1  0.60807291  0.74958888  0.87299281  1
  Fe  Fe168  1  0.14147649  0.91643249  0.24813719  1
  Fe  Fe169  1  0.10718307  0.08253014  0.87267931  1
  Fe  Fe170  1  0.85660469  0.41691061  0.75196266  1
  Fe  Fe171  1  0.10725504  0.75010537  0.12273275  1
  Fe  Fe172  1  0.64280624  0.91646352  0.99744455  1
  Fe  Fe173  1  0.14302330  0.25017616  0.24688395  1
  Fe  Fe174  1  0.39367395  0.91638807  0.87639045  1
  Fe  Fe175  1  0.14278510  0.25035893  0.49886539  1
  Fe  Fe176  1  0.39239405  0.58421263  0.62765173  1
  Fe  Fe177  1  0.35806108  0.41684321  0.75238179  1
  Fe  Fe178  1  0.14331788  0.58335482  0.24799798  1
  Fe  Fe179  1  0.89227176  0.91608797  0.87635481  1
  Fe  Fe180  1  0.64345589  0.91684521  0.74842473  1
  Fe  Fe181  1  0.10797048  0.08335544  0.12291649  1
  Fe  Fe182  1  0.85636363  0.08356392  0.75202111  1
  Fe  Fe183  1  0.60813364  0.75013947  0.12265544  1
  Fe  Fe184  1  0.64252066  0.24998306  0.74813636  1
  Fe  Fe185  1  0.64236915  0.58342609  0.99726616  1
  Fe  Fe186  1  0.85634719  0.74961943  0.75207306  1
  Fe  Fe187  1  0.64355904  0.91704123  0.49829841  1
  Fe  Fe188  1  0.39124317  0.58451912  0.37658204  1
  Fe  Fe189  1  0.64175134  0.24994053  0.24827909  1
  Fe  Fe190  1  0.64275774  0.91731698  0.24831756  1
  Fe  Fe191  1  0.60872083  0.08311446  0.62352586  1
  P  P192  1  0.05515908  0.25012897  0.11055266  1
  P  P193  1  0.05594681  0.24996073  0.36041654  1
  P  P194  1  0.05390732  0.25006920  0.60958507  1
  P  P195  1  0.05318142  0.24906550  0.85979319  1
  P  P196  1  0.05523282  0.58313806  0.11091028  1
  P  P197  1  0.05638440  0.58373655  0.36068586  1
  P  P198  1  0.05567288  0.58327262  0.61077964  1
  P  P199  1  0.05220914  0.58453884  0.85924381  1
  P  P200  1  0.05465685  0.91672906  0.11049609  1
  P  P201  1  0.05194360  0.91653021  0.35949768  1
  P  P202  1  0.05213480  0.91637520  0.61149969  1
  P  P203  1  0.05213718  0.91633060  0.85937240  1
  P  P204  1  0.55392774  0.24953048  0.11043617  1
  P  P205  1  0.55324298  0.25016504  0.35927507  1
  P  P206  1  0.55470500  0.24929089  0.61119662  1
  P  P207  1  0.55411880  0.25083596  0.86036966  1
  P  P208  1  0.55403200  0.58402818  0.10897139  1
  P  P209  1  0.55053824  0.58390199  0.36042843  1
  P  P210  1  0.55310898  0.58386677  0.61140618  1
  P  P211  1  0.55465521  0.58345232  0.86014938  1
  P  P212  1  0.55610391  0.91681988  0.11067228  1
  P  P213  1  0.55546445  0.91565412  0.36095392  1
  P  P214  1  0.55667049  0.91683048  0.61108622  1
  P  P215  1  0.55464372  0.91578777  0.86043975  1
  P  P216  1  0.44712485  0.08354068  0.13885955  1
  P  P217  1  0.44725269  0.08293422  0.39008937  1
  P  P218  1  0.44900718  0.08283016  0.64042100  1
  P  P219  1  0.44639422  0.08278061  0.89052377  1
  P  P220  1  0.44591020  0.41584661  0.14044210  1
  P  P221  1  0.44344395  0.41746539  0.38930601  1
  P  P222  1  0.44394416  0.41718213  0.63944968  1
  P  P223  1  0.44700465  0.41708170  0.88819019  1
  P  P224  1  0.44884253  0.75047129  0.13980275  1
  P  P225  1  0.44684915  0.74993547  0.39066358  1
  P  P226  1  0.44688384  0.74986696  0.63924185  1
  P  P227  1  0.44881558  0.75048277  0.88955218  1
  P  P228  1  0.94830873  0.08371229  0.13977042  1
  P  P229  1  0.94550576  0.08230505  0.39028027  1
  P  P230  1  0.94369201  0.08256323  0.63960198  1
  P  P231  1  0.94582725  0.08228032  0.88869655  1
  P  P232  1  0.94866487  0.41658120  0.14006866  1
  P  P233  1  0.94802326  0.41674527  0.39013011  1
  P  P234  1  0.94624950  0.41678784  0.64113869  1
  P  P235  1  0.94469209  0.41783236  0.88899858  1
  P  P236  1  0.94643454  0.74971619  0.13855367  1
  P  P237  1  0.94695445  0.75069751  0.38985410  1
  P  P238  1  0.94501197  0.75037973  0.64082123  1
  P  P239  1  0.94473141  0.74988121  0.88906945  1
  P  P240  1  0.19569537  0.08279204  0.23405872  1
  P  P241  1  0.19662254  0.08369823  0.48539965  1
  P  P242  1  0.19531834  0.08197637  0.73665239  1
  P  P243  1  0.19619447  0.08335998  0.98489825  1
  P  P244  1  0.19777836  0.41706150  0.23389360  1
  P  P245  1  0.19833408  0.41697729  0.48576503  1
  P  P246  1  0.19878898  0.41785125  0.73566225  1
  P  P247  1  0.19612960  0.41653389  0.98527982  1
  P  P248  1  0.19606414  0.75012396  0.23384849  1
  P  P249  1  0.19832294  0.74941658  0.48582540  1
  P  P250  1  0.19507641  0.75016830  0.73712707  1
  P  P251  1  0.19461128  0.75016152  0.98448711  1
  P  P252  1  0.69583821  0.08323785  0.23411655  1
  P  P253  1  0.69697386  0.08243095  0.48637956  1
  P  P254  1  0.69702612  0.08316813  0.73507938  1
  P  P255  1  0.69478627  0.08315967  0.98612291  1
  P  P256  1  0.69622637  0.41620053  0.23492011  1
  P  P257  1  0.69637463  0.41693163  0.48469322  1
  P  P258  1  0.69589856  0.41713908  0.73647297  1
  P  P259  1  0.69487627  0.41680443  0.98419568  1
  P  P260  1  0.69434169  0.75069813  0.23579587  1
  P  P261  1  0.69418832  0.75059327  0.48583937  1
  P  P262  1  0.69560531  0.74983515  0.73607022  1
  P  P263  1  0.69545659  0.75001747  0.98521975  1
  P  P264  1  0.30663411  0.24865779  0.01410253  1
  P  P265  1  0.30325922  0.25012971  0.26281694  1
  P  P266  1  0.30192542  0.24998646  0.51514002  1
  P  P267  1  0.30453920  0.25043822  0.76615945  1
  P  P268  1  0.30537974  0.58406572  0.01332076  1
  P  P269  1  0.30278361  0.58314157  0.26446426  1
  P  P270  1  0.30485047  0.58423160  0.51461642  1
  P  P271  1  0.30461181  0.58327430  0.76501841  1
  P  P272  1  0.30524183  0.91720129  0.01364487  1
  P  P273  1  0.30148850  0.91642561  0.26442220  1
  P  P274  1  0.30337289  0.91568661  0.51555031  1
  P  P275  1  0.30311456  0.91651077  0.76620977  1
  P  P276  1  0.80119614  0.25017963  0.01506183  1
  P  P277  1  0.80162470  0.24975668  0.26466143  1
  P  P278  1  0.80337643  0.24962539  0.51498602  1
  P  P279  1  0.80168308  0.24996372  0.76506869  1
  P  P280  1  0.80289319  0.58452841  0.01360428  1
  P  P281  1  0.80272659  0.58342766  0.26501149  1
  P  P282  1  0.80270876  0.58357210  0.51520102  1
  P  P283  1  0.80257988  0.58360153  0.76538440  1
  P  P284  1  0.80340129  0.91547519  0.01344443  1
  P  P285  1  0.80221190  0.91665564  0.26512070  1
  P  P286  1  0.80414096  0.91682908  0.51442683  1
  P  P287  1  0.80357597  0.91636417  0.76438782  1
  O  O288  1  0.05912630  0.25026052  0.18740036  1
  O  O289  1  0.06013728  0.25038497  0.43722531  1
  O  O290  1  0.05724309  0.25018322  0.68637957  1
  O  O291  1  0.05685056  0.24980481  0.93654378  1
  O  O292  1  0.05941455  0.58301552  0.18768873  1
  O  O293  1  0.06107809  0.58349079  0.43748125  1
  O  O294  1  0.05998596  0.58311863  0.68753830  1
  O  O295  1  0.05592849  0.58361541  0.93598738  1
  O  O296  1  0.05834774  0.91663546  0.18725136  1
  O  O297  1  0.05556854  0.91630634  0.43627731  1
  O  O298  1  0.05756261  0.91626501  0.68805212  1
  O  O299  1  0.05576433  0.91658321  0.93614578  1
  O  O300  1  0.55836425  0.25012803  0.18714861  1
  O  O301  1  0.55655131  0.25024794  0.43610904  1
  O  O302  1  0.55898803  0.24985834  0.68801477  1
  O  O303  1  0.55824011  0.25024412  0.93714127  1
  O  O304  1  0.55617012  0.58325032  0.18580665  1
  O  O305  1  0.55405350  0.58284228  0.43712370  1
  O  O306  1  0.55855177  0.58330210  0.68803940  1
  O  O307  1  0.55888828  0.58338692  0.93688284  1
  O  O308  1  0.55953205  0.91696489  0.18749806  1
  O  O309  1  0.55930981  0.91708002  0.43772410  1
  O  O310  1  0.56051533  0.91701865  0.68795813  1
  O  O311  1  0.55902077  0.91637006  0.93716871  1
  O  O312  1  0.44241794  0.08271651  0.06224215  1
  O  O313  1  0.44359064  0.08292255  0.31330100  1
  O  O314  1  0.44473046  0.08293318  0.56373407  1
  O  O315  1  0.44394882  0.08264928  0.81368966  1
  O  O316  1  0.44406680  0.41660346  0.06353331  1
  O  O317  1  0.43937579  0.41659630  0.31249515  1
  O  O318  1  0.43963388  0.41627788  0.56260669  1
  O  O319  1  0.44266031  0.41700318  0.81146838  1
  O  O320  1  0.44454732  0.75063131  0.06316192  1
  O  O321  1  0.44335434  0.75068553  0.31391369  1
  O  O322  1  0.44196324  0.75034509  0.56263505  1
  O  O323  1  0.44511584  0.75073190  0.81284763  1
  O  O324  1  0.94386277  0.08368186  0.06303467  1
  O  O325  1  0.94302953  0.08335426  0.31345984  1
  O  O326  1  0.93979654  0.08335407  0.56280354  1
  O  O327  1  0.94028999  0.08328739  0.81204051  1
  O  O328  1  0.94386988  0.41663308  0.06334408  1
  O  O329  1  0.94451094  0.41662684  0.31334394  1
  O  O330  1  0.94354391  0.41688077  0.56432582  1
  O  O331  1  0.93977539  0.41701900  0.81225034  1
  O  O332  1  0.94106622  0.74964642  0.06190238  1
  O  O333  1  0.94404136  0.74986222  0.31305286  1
  O  O334  1  0.94209743  0.74966590  0.56404916  1
  O  O335  1  0.93996749  0.74964444  0.81236638  1
  O  O336  1  0.19119007  0.08318127  0.06157664  1
  O  O337  1  0.19288104  0.08243978  0.31085785  1
  O  O338  1  0.19352097  0.08288466  0.56221889  1
  O  O339  1  0.19127462  0.08224237  0.81344312  1
  O  O340  1  0.19172906  0.41666222  0.06199166  1
  O  O341  1  0.19509415  0.41691069  0.31070337  1
  O  O342  1  0.19513397  0.41705611  0.56242948  1
  O  O343  1  0.19476781  0.41735215  0.81237597  1
  O  O344  1  0.19020629  0.75015642  0.06123566  1
  O  O345  1  0.19395607  0.75054238  0.31069996  1
  O  O346  1  0.19445162  0.75020480  0.56252803  1
  O  O347  1  0.19049659  0.75027751  0.81381475  1
  O  O348  1  0.69093514  0.08327637  0.06283537  1
  O  O349  1  0.69406217  0.08322249  0.31105577  1
  O  O350  1  0.69268516  0.08301341  0.56301430  1
  O  O351  1  0.69331828  0.08311638  0.81183768  1
  O  O352  1  0.69211455  0.41674892  0.06097160  1
  O  O353  1  0.69291310  0.41699338  0.31165491  1
  O  O354  1  0.69295870  0.41725681  0.56150601  1
  O  O355  1  0.69119374  0.41727167  0.81314230  1
  O  O356  1  0.69150381  0.74983204  0.06197738  1
  O  O357  1  0.69033828  0.74948949  0.31257145  1
  O  O358  1  0.69067631  0.74923004  0.56269470  1
  O  O359  1  0.69133161  0.74988385  0.81283825  1
  O  O360  1  0.30848560  0.24921346  0.18618769  1
  O  O361  1  0.30512888  0.24909108  0.43837971  1
  O  O362  1  0.30691628  0.24935241  0.68931502  1
  O  O363  1  0.31099853  0.24957659  0.93733971  1
  O  O364  1  0.30643203  0.58416135  0.18772501  1
  O  O365  1  0.30850889  0.58475070  0.43780658  1
  O  O366  1  0.30901128  0.58449631  0.68824497  1
  O  O367  1  0.31058125  0.58446437  0.93660952  1
  O  O368  1  0.30597955  0.91654220  0.18772479  1
  O  O369  1  0.30645119  0.91619250  0.43876880  1
  O  O370  1  0.30762639  0.91634042  0.68951883  1
  O  O371  1  0.31015453  0.91615077  0.93698312  1
  O  O372  1  0.80566593  0.25007573  0.18794804  1
  O  O373  1  0.80645413  0.24999318  0.43819750  1
  O  O374  1  0.80543997  0.25007406  0.68841663  1
  O  O375  1  0.80558372  0.24997499  0.93838715  1
  O  O376  1  0.80605931  0.58344806  0.18816102  1
  O  O377  1  0.80642243  0.58390556  0.43845282  1
  O  O378  1  0.80618776  0.58350602  0.68870216  1
  O  O379  1  0.80791326  0.58411189  0.93699028  1
  O  O380  1  0.80606088  0.91623980  0.18834595  1
  O  O381  1  0.80830797  0.91603205  0.43769208  1
  O  O382  1  0.80740040  0.91602553  0.68763317  1
  O  O383  1  0.80831368  0.91626021  0.93678460  1
  O  O384  1  0.23642034  0.24963429  0.03762828  1
  O  O385  1  0.23279335  0.25004702  0.28620385  1
  O  O386  1  0.23213810  0.25041948  0.54054625  1
  O  O387  1  0.23495114  0.24974622  0.79169823  1
  O  O388  1  0.23510821  0.58373873  0.03643497  1
  O  O389  1  0.23271929  0.58347037  0.28903745  1
  O  O390  1  0.23461948  0.58364480  0.53903078  1
  O  O391  1  0.23422931  0.58372716  0.78878550  1
  O  O392  1  0.23490685  0.91707699  0.03681427  1
  O  O393  1  0.23132868  0.91618927  0.28859305  1
  O  O394  1  0.23375267  0.91611903  0.54101212  1
  O  O395  1  0.23286118  0.91644313  0.79008356  1
  O  O396  1  0.73087125  0.25037023  0.03862794  1
  O  O397  1  0.73156897  0.24937305  0.28916964  1
  O  O398  1  0.73375377  0.24986818  0.54032249  1
  O  O399  1  0.73149441  0.25000214  0.78956734  1
  O  O400  1  0.73238997  0.58369810  0.03690125  1
  O  O401  1  0.73297005  0.58350444  0.28996634  1
  O  O402  1  0.73296686  0.58347526  0.54012728  1
  O  O403  1  0.73232845  0.58399471  0.78965242  1
  O  O404  1  0.73299040  0.91551054  0.03685644  1
  O  O405  1  0.73211268  0.91736696  0.28942409  1
  O  O406  1  0.73383301  0.91610747  0.53841478  1
  O  O407  1  0.73313983  0.91659050  0.78835299  1
  O  O408  1  0.26539204  0.08306336  0.20862710  1
  O  O409  1  0.26607651  0.08307800  0.45956712  1
  O  O410  1  0.26535897  0.08295609  0.71233461  1
  O  O411  1  0.26672158  0.08301213  0.96191489  1
  O  O412  1  0.26772482  0.41698105  0.20864446  1
  O  O413  1  0.26823632  0.41706587  0.46049693  1
  O  O414  1  0.26882341  0.41735110  0.71120948  1
  O  O415  1  0.26636494  0.41650318  0.96175349  1
  O  O416  1  0.26558286  0.75006331  0.20777697  1
  O  O417  1  0.26821618  0.74953255  0.46086843  1
  O  O418  1  0.26521580  0.74996253  0.71315316  1
  O  O419  1  0.26484476  0.75030261  0.96095847  1
  O  O420  1  0.76522019  0.08296574  0.20787052  1
  O  O421  1  0.76710936  0.08289786  0.46205921  1
  O  O422  1  0.76720207  0.08282627  0.71079220  1
  O  O423  1  0.76467424  0.08341943  0.96143943  1
  O  O424  1  0.76574957  0.41663356  0.20918514  1
  O  O425  1  0.76602467  0.41654407  0.45966724  1
  O  O426  1  0.76625874  0.41706638  0.71263176  1
  O  O427  1  0.76465384  0.41698882  0.95917396  1
  O  O428  1  0.76428995  0.74979257  0.21118248  1
  O  O429  1  0.76410224  0.75059000  0.46134068  1
  O  O430  1  0.76605069  0.74973444  0.71237606  1
  O  O431  1  0.76567760  0.75036065  0.96102685  1
  O  O432  1  0.01837952  0.08337777  0.16391454  1
  O  O433  1  0.01508558  0.08248298  0.41592389  1
  O  O434  1  0.01379587  0.08293633  0.66359616  1
  O  O435  1  0.01636981  0.08224956  0.91188039  1
  O  O436  1  0.01882860  0.41668200  0.16407461  1
  O  O437  1  0.01780185  0.41687874  0.41498725  1
  O  O438  1  0.01598881  0.41677918  0.66627070  1
  O  O439  1  0.01494108  0.41752753  0.91253923  1
  O  O440  1  0.01688907  0.75003339  0.16183473  1
  O  O441  1  0.01644516  0.75063261  0.41564026  1
  O  O442  1  0.01480515  0.75013510  0.66566296  1
  O  O443  1  0.01523638  0.75015067  0.91259887  1
  O  O444  1  0.51746698  0.08331216  0.16259734  1
  O  O445  1  0.51710896  0.08292501  0.41474461  1
  O  O446  1  0.51904032  0.08284119  0.66488941  1
  O  O447  1  0.51615184  0.08302724  0.91565918  1
  O  O448  1  0.51535600  0.41689515  0.16621174  1
  O  O449  1  0.51340685  0.41674833  0.41386101  1
  O  O450  1  0.51411023  0.41699533  0.66321876  1
  O  O451  1  0.51724945  0.41683924  0.91237000  1
  O  O452  1  0.51899533  0.75062553  0.16383171  1
  O  O453  1  0.51686052  0.74955176  0.41542925  1
  O  O454  1  0.51735529  0.75058381  0.66268397  1
  O  O455  1  0.51894009  0.74974605  0.91402340  1
  O  O456  1  0.48362181  0.25004630  0.08654368  1
  O  O457  1  0.48343959  0.24968526  0.33456365  1
  O  O458  1  0.48471586  0.24965755  0.58684671  1
  O  O459  1  0.48371492  0.24983729  0.83664660  1
  O  O460  1  0.48449496  0.58323354  0.08326538  1
  O  O461  1  0.48063001  0.58461924  0.33542138  1
  O  O462  1  0.48260849  0.58351845  0.58823765  1
  O  O463  1  0.48428353  0.58409499  0.83618563  1
  O  O464  1  0.48613796  0.91623971  0.08614399  1
  O  O465  1  0.48558431  0.91653450  0.33614522  1
  O  O466  1  0.48661525  0.91623251  0.58682648  1
  O  O467  1  0.48431422  0.91667880  0.83650932  1
  O  O468  1  0.98530957  0.24998594  0.08562561  1
  O  O469  1  0.98583980  0.24983464  0.33635553  1
  O  O470  1  0.98411379  0.25011920  0.58486490  1
  O  O471  1  0.98334689  0.24930145  0.83504022  1
  O  O472  1  0.98525706  0.58334589  0.08637230  1
  O  O473  1  0.98627210  0.58370827  0.33678145  1
  O  O474  1  0.98550288  0.58351546  0.58697014  1
  O  O475  1  0.98198643  0.58417287  0.83511516  1
  O  O476  1  0.98473802  0.91672099  0.08577033  1
  O  O477  1  0.98199596  0.91674909  0.33463139  1
  O  O478  1  0.98165908  0.91625692  0.58833071  1
  O  O479  1  0.98191374  0.91616803  0.83517207  1
  O  O480  1  0.08893179  0.31529348  0.07780665  1
  O  O481  1  0.08979986  0.31481309  0.32711916  1
  O  O482  1  0.08818889  0.31509895  0.57712417  1
  O  O483  1  0.08713070  0.31421555  0.82708624  1
  O  O484  1  0.08874527  0.64836952  0.07798371  1
  O  O485  1  0.08987879  0.64877563  0.32752540  1
  O  O486  1  0.08934545  0.64828289  0.57766440  1
  O  O487  1  0.08592014  0.64977712  0.82685610  1
  O  O488  1  0.08828941  0.98194020  0.07761535  1
  O  O489  1  0.08624377  0.98143494  0.32696185  1
  O  O490  1  0.08510879  0.98139050  0.57779026  1
  O  O491  1  0.08610653  0.98116722  0.82641208  1
  O  O492  1  0.58740942  0.31449906  0.07693244  1
  O  O493  1  0.58707415  0.31525611  0.32662067  1
  O  O494  1  0.58809102  0.31440682  0.57805806  1
  O  O495  1  0.58710999  0.31595680  0.82707162  1
  O  O496  1  0.58815707  0.64930479  0.07696852  1
  O  O497  1  0.58513263  0.64881922  0.32843065  1
  O  O498  1  0.58603275  0.64911692  0.57819965  1
  O  O499  1  0.58849228  0.64835828  0.82711146  1
  O  O500  1  0.58952391  0.98195358  0.07750685  1
  O  O501  1  0.58995564  0.98005447  0.32736177  1
  O  O502  1  0.59003633  0.98203716  0.57799831  1
  O  O503  1  0.58859917  0.98061336  0.82716551  1
  O  O504  1  0.41392923  0.01863385  0.17271350  1
  O  O505  1  0.41342085  0.01782855  0.42265552  1
  O  O506  1  0.41524261  0.01779598  0.67327330  1
  O  O507  1  0.41239793  0.01761609  0.92291072  1
  O  O508  1  0.41194947  0.35044828  0.17223639  1
  O  O509  1  0.40938739  0.35265071  0.42264497  1
  O  O510  1  0.41039445  0.35225931  0.67286939  1
  O  O511  1  0.41359365  0.35203152  0.92140271  1
  O  O512  1  0.41529887  0.68525306  0.17254913  1
  O  O513  1  0.41243910  0.68505090  0.42306045  1
  O  O514  1  0.41400892  0.68467059  0.67271479  1
  O  O515  1  0.41470575  0.68552737  0.92207562  1
  O  O516  1  0.91434888  0.01864725  0.17237027  1
  O  O517  1  0.91120069  0.01696878  0.42199433  1
  O  O518  1  0.91011838  0.01739600  0.67240756  1
  O  O519  1  0.91271929  0.01698952  0.92180388  1
  O  O520  1  0.91509020  0.35143770  0.17294816  1
  O  O521  1  0.91408880  0.35152137  0.42245280  1
  O  O522  1  0.91175924  0.35187403  0.67354716  1
  O  O523  1  0.91136975  0.35279146  0.92253812  1
  O  O524  1  0.91353043  0.68469976  0.17227646  1
  O  O525  1  0.91269081  0.68581832  0.42259304  1
  O  O526  1  0.91081376  0.68545685  0.67363545  1
  O  O527  1  0.91155905  0.68480743  0.92266641  1
  O  O528  1  0.16153326  0.01772393  0.20155199  1
  O  O529  1  0.16199305  0.01870509  0.45309628  1
  O  O530  1  0.16220806  0.01656202  0.70368022  1
  O  O531  1  0.16249323  0.01856292  0.95133911  1
  O  O532  1  0.16352764  0.35214974  0.20130535  1
  O  O533  1  0.16445594  0.35196308  0.45307078  1
  O  O534  1  0.16491949  0.35275592  0.70291190  1
  O  O535  1  0.16281652  0.35148531  0.95210776  1
  O  O536  1  0.16169359  0.68483759  0.20199540  1
  O  O537  1  0.16447577  0.68433363  0.45337395  1
  O  O538  1  0.16175191  0.68495190  0.70406986  1
  O  O539  1  0.16093307  0.68531522  0.95120029  1
  O  O540  1  0.66108501  0.01823422  0.20230653  1
  O  O541  1  0.66386441  0.01709940  0.45333775  1
  O  O542  1  0.66323924  0.01810202  0.70234702  1
  O  O543  1  0.66155511  0.01777904  0.95313225  1
  O  O544  1  0.66215317  0.35088882  0.20287898  1
  O  O545  1  0.66194185  0.35198016  0.45254556  1
  O  O546  1  0.66251605  0.35208739  0.70330326  1
  O  O547  1  0.66065675  0.35173162  0.95177376  1
  O  O548  1  0.65989451  0.68622131  0.20233813  1
  O  O549  1  0.66020162  0.68591422  0.45229055  1
  O  O550  1  0.66205583  0.68483091  0.70280854  1
  O  O551  1  0.66201628  0.68494125  0.95191546  1
  O  O552  1  0.34063488  0.31335240  0.04750707  1
  O  O553  1  0.33623676  0.31542581  0.29589435  1
  O  O554  1  0.33635727  0.31502227  0.54708606  1
  O  O555  1  0.33857845  0.31587566  0.79792615  1
  O  O556  1  0.33831883  0.64909250  0.04705591  1
  O  O557  1  0.33676103  0.64805365  0.29767422  1
  O  O558  1  0.33819271  0.64924898  0.54820368  1
  O  O559  1  0.33842475  0.64802436  0.79861728  1
  O  O560  1  0.33833911  0.98249649  0.04676656  1
  O  O561  1  0.33512987  0.98140890  0.29749233  1
  O  O562  1  0.33778198  0.98065762  0.54809722  1
  O  O563  1  0.33715436  0.98147080  0.79890610  1
  O  O564  1  0.83483314  0.31525636  0.04791528  1
  O  O565  1  0.83548399  0.31470586  0.29759411  1
  O  O566  1  0.83750854  0.31463435  0.54756946  1
  O  O567  1  0.83539990  0.31501520  0.79788691  1
  O  O568  1  0.83562754  0.64985038  0.04699649  1
  O  O569  1  0.83673514  0.64856070  0.29742453  1
  O  O570  1  0.83656429  0.64869002  0.54788822  1
  O  O571  1  0.83647069  0.64863896  0.79825722  1
  O  O572  1  0.83645556  0.98053399  0.04720229  1
  O  O573  1  0.83653105  0.98155679  0.29750093  1
  O  O574  1  0.83727481  0.98207309  0.54746890  1
  O  O575  1  0.83710971  0.98137997  0.79750194  1
  O  O576  1  0.41388504  0.14877410  0.17190351  1
  O  O577  1  0.41338209  0.14807026  0.42267463  1
  O  O578  1  0.41499182  0.14777979  0.67316470  1
  O  O579  1  0.41215269  0.14787167  0.92267160  1
  O  O580  1  0.41074309  0.48050934  0.17251992  1
  O  O581  1  0.41012790  0.48295733  0.42176866  1
  O  O582  1  0.41051168  0.48240909  0.67230038  1
  O  O583  1  0.41385621  0.48232486  0.92129094  1
  O  O584  1  0.41511258  0.81522069  0.17315092  1
  O  O585  1  0.41329857  0.81504640  0.42381370  1
  O  O586  1  0.41347693  0.81468423  0.67292005  1
  O  O587  1  0.41552801  0.81570150  0.92255329  1
  O  O588  1  0.91475555  0.14874847  0.17271964  1
  O  O589  1  0.91105174  0.14719441  0.42290795  1
  O  O590  1  0.90998422  0.14743013  0.67311976  1
  O  O591  1  0.91282357  0.14723718  0.92273429  1
  O  O592  1  0.91497340  0.48162394  0.17296405  1
  O  O593  1  0.91404180  0.48182551  0.42265320  1
  O  O594  1  0.91178106  0.48174712  0.67347428  1
  O  O595  1  0.91164782  0.48330858  0.92185536  1
  O  O596  1  0.91310338  0.81478890  0.17190356  1
  O  O597  1  0.91254937  0.81601161  0.42151150  1
  O  O598  1  0.91071200  0.81535571  0.67319976  1
  O  O599  1  0.91138245  0.81504126  0.92230757  1
  O  O600  1  0.08893273  0.18483690  0.07796392  1
  O  O601  1  0.08949583  0.18481885  0.32756584  1
  O  O602  1  0.08794621  0.18504134  0.57703726  1
  O  O603  1  0.08699238  0.18384194  0.82757233  1
  O  O604  1  0.08872291  0.51796186  0.07781032  1
  O  O605  1  0.09012751  0.51884132  0.32731227  1
  O  O606  1  0.08926366  0.51825855  0.57760615  1
  O  O607  1  0.08652557  0.51983797  0.82611999  1
  O  O608  1  0.08827929  0.85162216  0.07752390  1
  O  O609  1  0.08612631  0.85165107  0.32673389  1
  O  O610  1  0.08532130  0.85142498  0.57775178  1
  O  O611  1  0.08591529  0.85115531  0.82676599  1
  O  O612  1  0.58721069  0.18443108  0.07717826  1
  O  O613  1  0.58778365  0.18526743  0.32689629  1
  O  O614  1  0.58819348  0.18396700  0.57860572  1
  O  O615  1  0.58800021  0.18594328  0.82719378  1
  O  O616  1  0.58881052  0.51927555  0.07658205  1
  O  O617  1  0.58395693  0.51883744  0.32719318  1
  O  O618  1  0.58600151  0.51888709  0.57751516  1
  O  O619  1  0.58760932  0.51824605  0.82668623  1
  O  O620  1  0.59025464  0.85187501  0.07782433  1
  O  O621  1  0.58867164  0.84992235  0.32887099  1
  O  O622  1  0.59060189  0.85181841  0.57838456  1
  O  O623  1  0.58793317  0.85067630  0.82734244  1
  O  O624  1  0.33947643  0.18319401  0.04715515  1
  O  O625  1  0.33626817  0.18525093  0.29690397  1
  O  O626  1  0.33575312  0.18493573  0.54817541  1
  O  O627  1  0.33946456  0.18571420  0.79846282  1
  O  O628  1  0.33864880  0.51886597  0.04636533  1
  O  O629  1  0.33650482  0.51795433  0.29685043  1
  O  O630  1  0.33864548  0.51908758  0.54723394  1
  O  O631  1  0.33815463  0.51808909  0.79769021  1
  O  O632  1  0.33836305  0.85225247  0.04745566  1
  O  O633  1  0.33541857  0.85138691  0.29711983  1
  O  O634  1  0.33741177  0.85042072  0.54776607  1
  O  O635  1  0.33704787  0.85159722  0.79933816  1
  O  O636  1  0.83473230  0.18514542  0.04810631  1
  O  O637  1  0.83558754  0.18459565  0.29703480  1
  O  O638  1  0.83734141  0.18443191  0.54722769  1
  O  O639  1  0.83514793  0.18468812  0.79791166  1
  O  O640  1  0.83636605  0.51963463  0.04722653  1
  O  O641  1  0.83696163  0.51840890  0.29727866  1
  O  O642  1  0.83692582  0.51857408  0.54763126  1
  O  O643  1  0.83624055  0.51860217  0.79840784  1
  O  O644  1  0.83657062  0.85032898  0.04667126  1
  O  O645  1  0.83561156  0.85155628  0.29830561  1
  O  O646  1  0.83785328  0.85208214  0.54809900  1
  O  O647  1  0.83681150  0.85125990  0.79772327  1
  O  O648  1  0.16145514  0.14794906  0.20174286  1
  O  O649  1  0.16269090  0.14901891  0.45344773  1
  O  O650  1  0.16125545  0.14688422  0.70383751  1
  O  O651  1  0.16305631  0.14838214  0.95147374  1
  O  O652  1  0.16379679  0.48225204  0.20158679  1
  O  O653  1  0.16468564  0.48217839  0.45305471  1
  O  O654  1  0.16523761  0.48301094  0.70300656  1
  O  O655  1  0.16275180  0.48149530  0.95191070  1
  O  O656  1  0.16138655  0.81503438  0.20162813  1
  O  O657  1  0.16426469  0.81440067  0.45290377  1
  O  O658  1  0.16181589  0.81542131  0.70383764  1
  O  O659  1  0.16082997  0.81511185  0.95136685  1
  O  O660  1  0.66113898  0.14831832  0.20230461  1
  O  O661  1  0.66320664  0.14715249  0.45291547  1
  O  O662  1  0.66327995  0.14822263  0.70228781  1
  O  O663  1  0.66084912  0.14813431  0.95329297  1
  O  O664  1  0.66176126  0.48114660  0.20245490  1
  O  O665  1  0.66234248  0.48201997  0.45208857  1
  O  O666  1  0.66277189  0.48237229  0.70314081  1
  O  O667  1  0.66065273  0.48189913  0.95174576  1
  O  O668  1  0.66136387  0.81640333  0.20327385  1
  O  O669  1  0.66046273  0.81590728  0.45366372  1
  O  O670  1  0.66239766  0.81498042  0.70288870  1
  O  O671  1  0.66166806  0.81493302  0.95202814  1
