# generated using pymatgen
data_Na2MnFe(PO4)2
_symmetry_space_group_name_H-M   'P 1'
_cell_length_a   21.08321639
_cell_length_b   18.93617187
_cell_length_c   20.04267073
_cell_angle_alpha   89.99925783
_cell_angle_beta   89.99689647
_cell_angle_gamma   90.00017247
_symmetry_Int_Tables_number   1
_chemical_formula_structural   Na2MnFe(PO4)2
_chemical_formula_sum   'Na96 Mn48 Fe48 P96 O384'
_cell_volume   8001.74383731
_cell_formula_units_Z   48
loop_
 _symmetry_equiv_pos_site_id
 _symmetry_equiv_pos_as_xyz
  1  'x, y, z'
loop_
 _atom_site_type_symbol
 _atom_site_label
 _atom_site_symmetry_multiplicity
 _atom_site_fract_x
 _atom_site_fract_y
 _atom_site_fract_z
 _atom_site_occupancy
  Na  Na0  1  -0.00078509  0.00029607  -0.00052667  1
  Na  Na1  1  -0.00168278  -0.00027616  0.24889182  1
  Na  Na2  1  0.00145385  0.00137911  0.50047691  1
  Na  Na3  1  -0.00032980  -0.00021751  0.75059972  1
  Na  Na4  1  0.00020180  0.33338276  -0.00030222  1
  Na  Na5  1  0.00117924  0.33323801  0.25006810  1
  Na  Na6  1  -0.00065707  0.33270003  0.50005235  1
  Na  Na7  1  -0.00216830  0.33254085  0.74985917  1
  Na  Na8  1  0.00115933  0.66727030  -0.00026579  1
  Na  Na9  1  -0.00156676  0.66569389  0.25054649  1
  Na  Na10  1  -0.00012855  0.66583425  0.50061789  1
  Na  Na11  1  0.00174495  0.66634703  0.74986885  1
  Na  Na12  1  0.50238993  0.00165550  0.00104598  1
  Na  Na13  1  0.49946302  0.00008435  0.25002607  1
  Na  Na14  1  0.49852147  -0.00003247  0.49960723  1
  Na  Na15  1  0.50005210  0.00005899  0.74977328  1
  Na  Na16  1  0.50092906  0.33301782  -0.00025846  1
  Na  Na17  1  0.49987566  0.33236846  0.25037814  1
  Na  Na18  1  0.50249584  0.33406223  0.50056636  1
  Na  Na19  1  0.50168068  0.33292942  0.74985253  1
  Na  Na20  1  0.49953123  0.66670558  -0.00109920  1
  Na  Na21  1  0.49928400  0.66654299  0.25030215  1
  Na  Na22  1  0.49777231  0.66616066  0.50116300  1
  Na  Na23  1  0.49771711  0.66579415  0.74862935  1
  Na  Na24  1  0.25105444  0.00110200  0.12587931  1
  Na  Na25  1  0.25136184  0.00108333  0.37507243  1
  Na  Na26  1  0.25046896  0.00049826  0.62463402  1
  Na  Na27  1  0.24811858  -0.00074077  0.87391113  1
  Na  Na28  1  0.25193982  0.33294105  0.12521888  1
  Na  Na29  1  0.24659379  0.33169051  0.37416774  1
  Na  Na30  1  0.24855180  0.33265924  0.62512562  1
  Na  Na31  1  0.25320678  0.33378709  0.87544242  1
  Na  Na32  1  0.25184051  0.66638329  0.12454301  1
  Na  Na33  1  0.25205573  0.66671092  0.37530800  1
  Na  Na34  1  0.25051124  0.66588337  0.62445565  1
  Na  Na35  1  0.25166209  0.66666642  0.87510970  1
  Na  Na36  1  0.74942120  0.00069915  0.12532769  1
  Na  Na37  1  0.74686569  -0.00093729  0.37418648  1
  Na  Na38  1  0.75051113  0.00101506  0.62591042  1
  Na  Na39  1  0.74942162  0.00036349  0.87565691  1
  Na  Na40  1  0.74840012  0.33262560  0.12506255  1
  Na  Na41  1  0.75225081  0.33384196  0.37603242  1
  Na  Na42  1  0.74922793  0.33298408  0.62491105  1
  Na  Na43  1  0.74720029  0.33257801  0.87371998  1
  Na  Na44  1  0.74900763  0.66676465  0.12494595  1
  Na  Na45  1  0.75134763  0.66700976  0.37591139  1
  Na  Na46  1  0.75062279  0.66666306  0.62490796  1
  Na  Na47  1  0.74770757  0.66596204  0.87461715  1
  Na  Na48  1  -0.00026978  0.16586311  0.00056353  1
  Na  Na49  1  -0.00128027  0.16668372  0.24945784  1
  Na  Na50  1  -0.00146835  0.16723613  0.49947959  1
  Na  Na51  1  -0.00051851  0.16606703  0.75052677  1
  Na  Na52  1  -0.00036090  0.50027819  -0.00114274  1
  Na  Na53  1  -0.00019423  0.50003024  0.25037009  1
  Na  Na54  1  -0.00028875  0.50024188  0.50118868  1
  Na  Na55  1  0.00006551  0.49963071  0.74935010  1
  Na  Na56  1  0.00028760  0.83418345  -0.00070918  1
  Na  Na57  1  0.00024974  0.83374402  0.25020685  1
  Na  Na58  1  0.00127717  0.83340761  0.50022167  1
  Na  Na59  1  0.00246801  0.83271478  0.75101187  1
  Na  Na60  1  0.49870548  0.16740287  0.00019940  1
  Na  Na61  1  0.50100592  0.16582896  0.25068941  1
  Na  Na62  1  0.50158082  0.16622304  0.50010336  1
  Na  Na63  1  0.50046307  0.16663016  0.74929943  1
  Na  Na64  1  0.49887500  0.50037315  -0.00014072  1
  Na  Na65  1  0.49757813  0.50047000  0.24979017  1
  Na  Na66  1  0.49794180  0.50116209  0.50056005  1
  Na  Na67  1  0.50156837  0.49886942  0.74956732  1
  Na  Na68  1  0.50370258  0.83259823  -0.00078744  1
  Na  Na69  1  0.50145682  0.83344005  0.25061128  1
  Na  Na70  1  0.49728000  0.83469411  0.49994294  1
  Na  Na71  1  0.49968607  0.83327446  0.74997591  1
  Na  Na72  1  0.25216569  0.16599801  0.12441799  1
  Na  Na73  1  0.24911132  0.16673725  0.37420394  1
  Na  Na74  1  0.24950189  0.16632536  0.62609183  1
  Na  Na75  1  0.25132052  0.16658248  0.87538652  1
  Na  Na76  1  0.25285446  0.49934775  0.12577352  1
  Na  Na77  1  0.24910604  0.50029176  0.37440597  1
  Na  Na78  1  0.24917731  0.50053816  0.62421402  1
  Na  Na79  1  0.25183836  0.50062312  0.87486564  1
  Na  Na80  1  0.24975445  0.83456094  0.12532573  1
  Na  Na81  1  0.25250445  0.83293692  0.37604424  1
  Na  Na82  1  0.25126376  0.83311740  0.62361854  1
  Na  Na83  1  0.24895735  0.83419520  0.87441469  1
  Na  Na84  1  0.74940623  0.16597294  0.12588582  1
  Na  Na85  1  0.74965845  0.16662445  0.37523975  1
  Na  Na86  1  0.75011515  0.16671787  0.62455631  1
  Na  Na87  1  0.74836344  0.16678213  0.87452330  1
  Na  Na88  1  0.74990896  0.49986377  0.12491649  1
  Na  Na89  1  0.75249686  0.49953600  0.37663433  1
  Na  Na90  1  0.75206967  0.49932069  0.62532040  1
  Na  Na91  1  0.74833406  0.50004494  0.87406081  1
  Na  Na92  1  0.74709179  0.83447978  0.12461949  1
  Na  Na93  1  0.74799404  0.83400359  0.37408801  1
  Na  Na94  1  0.74765768  0.83396801  0.62597172  1
  Na  Na95  1  0.74794462  0.83353584  0.87521117  1
  Mn  Mn96  1  0.60781043  0.08312246  0.62226060  1
  Mn  Mn97  1  0.89145287  0.91660699  0.37763415  1
  Mn  Mn98  1  0.14370442  0.24973784  0.99771942  1
  Mn  Mn99  1  0.10890559  0.41611025  0.87285402  1
  Mn  Mn100  1  0.85770644  0.75006368  0.75233933  1
  Mn  Mn101  1  0.85681180  0.75048703  0.00222639  1
  Mn  Mn102  1  0.85728730  0.08279298  0.50152655  1
  Mn  Mn103  1  0.89144067  0.24988737  0.12689121  1
  Mn  Mn104  1  0.64257818  0.25006202  0.24838496  1
  Mn  Mn105  1  0.10721746  0.08348980  0.62290064  1
  Mn  Mn106  1  0.39244720  0.91728532  0.87779292  1
  Mn  Mn107  1  0.60734331  0.41674012  0.12300761  1
  Mn  Mn108  1  0.89161842  0.58389565  0.12689543  1
  Mn  Mn109  1  0.14271391  0.91727736  0.24801838  1
  Mn  Mn110  1  0.10810997  0.75036349  0.12312858  1
  Mn  Mn111  1  0.35773376  0.41568671  0.25298092  1
  Mn  Mn112  1  0.35915162  0.75100473  0.25212150  1
  Mn  Mn113  1  0.35782311  0.08291379  0.75271494  1
  Mn  Mn114  1  0.10850805  0.41703265  0.12192903  1
  Mn  Mn115  1  0.14318773  0.91695864  0.49739257  1
  Mn  Mn116  1  0.10698904  0.41644081  0.62301416  1
  Mn  Mn117  1  0.85667018  0.41607572  0.00178109  1
  Mn  Mn118  1  0.64077571  0.58300426  0.99709854  1
  Mn  Mn119  1  0.10905534  0.75010063  0.87244446  1
  Mn  Mn120  1  0.64270637  0.58339409  0.49786145  1
  Mn  Mn121  1  0.14233673  0.25040443  0.74834162  1
  Mn  Mn122  1  0.35878679  0.75123678  0.00223809  1
  Mn  Mn123  1  0.89109889  0.24983156  0.87763772  1
  Mn  Mn124  1  0.10744141  0.08284642  0.12268443  1
  Mn  Mn125  1  0.60635178  0.74973110  0.62244996  1
  Mn  Mn126  1  0.39186721  0.25005945  0.37831886  1
  Mn  Mn127  1  0.39314697  0.91691202  0.12679426  1
  Mn  Mn128  1  0.64181503  0.91687770  0.74761946  1
  Mn  Mn129  1  0.39249569  0.25037361  0.62644273  1
  Mn  Mn130  1  0.60691476  0.74987325  0.37361118  1
  Mn  Mn131  1  0.89259260  0.91635929  0.87726797  1
  Mn  Mn132  1  0.89208729  0.91615021  0.62722279  1
  Mn  Mn133  1  0.35869070  0.41702647  0.75189604  1
  Mn  Mn134  1  0.14380399  0.58335648  0.99786644  1
  Mn  Mn135  1  0.35679520  0.41546659  0.50208171  1
  Mn  Mn136  1  0.85854470  0.41631052  0.25239271  1
  Mn  Mn137  1  0.85809707  0.75056707  0.50289188  1
  Mn  Mn138  1  0.14244887  0.58331990  0.24772977  1
  Mn  Mn139  1  0.89209499  0.58362252  0.87667145  1
  Mn  Mn140  1  0.64193617  0.58350958  0.24873322  1
  Mn  Mn141  1  0.60828801  0.41720360  0.37317417  1
  Mn  Mn142  1  0.10837025  0.75011612  0.37246206  1
  Mn  Mn143  1  0.85717029  0.75060034  0.25215213  1
  Fe  Fe144  1  0.89166988  0.91628778  0.12632757  1
  Fe  Fe145  1  0.39210627  0.58293295  0.62710801  1
  Fe  Fe146  1  0.89186659  0.25008048  0.62702698  1
  Fe  Fe147  1  0.39328082  0.91665380  0.37681219  1
  Fe  Fe148  1  0.64200455  0.58290913  0.74749063  1
  Fe  Fe149  1  0.10741659  0.08384528  0.37279756  1
  Fe  Fe150  1  0.64182877  0.91675796  0.24781458  1
  Fe  Fe151  1  0.85626359  0.08303461  0.25205118  1
  Fe  Fe152  1  0.39347310  0.24987392  0.12691949  1
  Fe  Fe153  1  0.14365087  0.58372889  0.74838774  1
  Fe  Fe154  1  0.89353185  0.25011033  0.37672716  1
  Fe  Fe155  1  0.14111161  0.24986461  0.49834487  1
  Fe  Fe156  1  0.60750151  0.74976549  0.12320010  1
  Fe  Fe157  1  0.60789547  0.41720920  0.62289515  1
  Fe  Fe158  1  0.35721405  0.74994026  0.50215238  1
  Fe  Fe159  1  0.35668783  0.75031884  0.75138453  1
  Fe  Fe160  1  0.60682325  0.41673148  0.87301182  1
  Fe  Fe161  1  0.85818908  0.41639035  0.50234199  1
  Fe  Fe162  1  0.39396966  0.25002043  0.87637112  1
  Fe  Fe163  1  0.64113305  0.91697426  0.49847183  1
  Fe  Fe164  1  0.60710558  0.08355687  0.12308927  1
  Fe  Fe165  1  0.89303263  0.58292835  0.37714707  1
  Fe  Fe166  1  0.64259875  0.25024132  0.74781224  1
  Fe  Fe167  1  0.14312052  0.91598581  0.74737296  1
  Fe  Fe168  1  0.14230960  0.91730479  0.99894416  1
  Fe  Fe169  1  0.10728552  0.08388425  0.87386390  1
  Fe  Fe170  1  0.10832135  0.74962500  0.62342926  1
  Fe  Fe171  1  0.39323043  0.58344669  0.12660119  1
  Fe  Fe172  1  0.60737344  0.08369245  0.87354956  1
  Fe  Fe173  1  0.14292895  0.58280706  0.49809733  1
  Fe  Fe174  1  0.10649256  0.41624174  0.37380884  1
  Fe  Fe175  1  0.60665658  0.08328953  0.37343343  1
  Fe  Fe176  1  0.64376763  0.24969794  0.49803451  1
  Fe  Fe177  1  0.35930794  0.41592291  0.00180819  1
  Fe  Fe178  1  0.85615523  0.08328776  0.00156682  1
  Fe  Fe179  1  0.85678483  0.08378216  0.75228478  1
  Fe  Fe180  1  0.64268003  0.91743970  0.99820059  1
  Fe  Fe181  1  0.14256262  0.24943920  0.24771962  1
  Fe  Fe182  1  0.39345146  0.58271207  0.87593985  1
  Fe  Fe183  1  0.39225042  0.91679410  0.62677071  1
  Fe  Fe184  1  0.35795432  0.08371063  0.25202518  1
  Fe  Fe185  1  0.35696512  0.08400145  0.50123830  1
  Fe  Fe186  1  0.39196083  0.58329476  0.37724330  1
  Fe  Fe187  1  0.35792929  0.08317070  0.00130326  1
  Fe  Fe188  1  0.60663292  0.74943641  0.87218355  1
  Fe  Fe189  1  0.85586130  0.41655477  0.75206387  1
  Fe  Fe190  1  0.89365232  0.58359718  0.62757008  1
  Fe  Fe191  1  0.64141134  0.24921543  0.99821676  1
  P  P192  1  0.05427648  0.24949985  0.11048142  1
  P  P193  1  0.05422525  0.24978889  0.36053720  1
  P  P194  1  0.05192556  0.24983962  0.60981252  1
  P  P195  1  0.05316640  0.24908699  0.86031364  1
  P  P196  1  0.05331126  0.58353959  0.10944857  1
  P  P197  1  0.05367664  0.58231682  0.36161393  1
  P  P198  1  0.05496241  0.58386905  0.61095576  1
  P  P199  1  0.05479479  0.58299435  0.85897443  1
  P  P200  1  0.05226789  0.91707658  0.10927495  1
  P  P201  1  0.05330796  0.91803816  0.35993538  1
  P  P202  1  0.05484919  0.91583530  0.61108169  1
  P  P203  1  0.05600954  0.91814919  0.86064025  1
  P  P204  1  0.55309289  0.24905625  0.10995953  1
  P  P205  1  0.55455818  0.24941003  0.36159347  1
  P  P206  1  0.55583328  0.25078094  0.61029812  1
  P  P207  1  0.55437395  0.24945177  0.86061073  1
  P  P208  1  0.55201293  0.58385862  0.11023005  1
  P  P209  1  0.55143917  0.58339250  0.36055896  1
  P  P210  1  0.55302734  0.58259322  0.61102187  1
  P  P211  1  0.55260330  0.58309654  0.85883865  1
  P  P212  1  0.55546137  0.91707274  0.11080263  1
  P  P213  1  0.55389100  0.91755256  0.36083103  1
  P  P214  1  0.55196613  0.91661613  0.60934758  1
  P  P215  1  0.55461383  0.91740873  0.86123584  1
  P  P216  1  0.44623188  0.08407716  0.13944101  1
  P  P217  1  0.44596366  0.08289304  0.38951246  1
  P  P218  1  0.44526846  0.08310211  0.63864033  1
  P  P219  1  0.44775401  0.08392118  0.89044427  1
  P  P220  1  0.44555293  0.41593557  0.13896488  1
  P  P221  1  0.44673078  0.41683775  0.39069279  1
  P  P222  1  0.44797236  0.41672030  0.63967303  1
  P  P223  1  0.44786386  0.41631949  0.88969983  1
  P  P224  1  0.44856816  0.75022801  0.13961604  1
  P  P225  1  0.44561854  0.75017622  0.39093142  1
  P  P226  1  0.44365362  0.75029498  0.63923974  1
  P  P227  1  0.44656421  0.74955557  0.88796987  1
  P  P228  1  0.94368775  0.08231604  0.13914108  1
  P  P229  1  0.94657928  0.08391170  0.38850875  1
  P  P230  1  0.94519387  0.08395983  0.64065721  1
  P  P231  1  0.94542075  0.08335294  0.88983512  1
  P  P232  1  0.94688326  0.41652313  0.13979155  1
  P  P233  1  0.94708100  0.41616896  0.39070046  1
  P  P234  1  0.94416076  0.41649812  0.63952841  1
  P  P235  1  0.94546285  0.41664057  0.88874442  1
  P  P236  1  0.94642645  0.75128585  0.13997835  1
  P  P237  1  0.94688941  0.74961080  0.39040040  1
  P  P238  1  0.94845814  0.74941276  0.64041575  1
  P  P239  1  0.94715428  0.74992434  0.89013612  1
  P  P240  1  0.19673629  0.08425576  0.23590753  1
  P  P241  1  0.19672816  0.08419722  0.48443242  1
  P  P242  1  0.19536062  0.08281361  0.73632031  1
  P  P243  1  0.19762621  0.08288283  0.98468829  1
  P  P244  1  0.19516719  0.41563156  0.23616007  1
  P  P245  1  0.19518922  0.41639894  0.48442364  1
  P  P246  1  0.19732945  0.41750326  0.73487790  1
  P  P247  1  0.19974732  0.41650622  0.98506684  1
  P  P248  1  0.19788537  0.75014216  0.23498271  1
  P  P249  1  0.19701806  0.74899430  0.48623183  1
  P  P250  1  0.19748901  0.74973842  0.73406155  1
  P  P251  1  0.19757765  0.75092184  0.98514595  1
  P  P252  1  0.69496456  0.08280295  0.23586727  1
  P  P253  1  0.69559478  0.08323991  0.48445200  1
  P  P254  1  0.69616798  0.08422878  0.73618629  1
  P  P255  1  0.69527631  0.08351876  0.98595747  1
  P  P256  1  0.69714604  0.41687561  0.23532325  1
  P  P257  1  0.69734644  0.41625952  0.48657126  1
  P  P258  1  0.69479705  0.41678937  0.73543108  1
  P  P259  1  0.69498419  0.41548421  0.98398682  1
  P  P260  1  0.69525004  0.75045407  0.23468730  1
  P  P261  1  0.69642171  0.75071008  0.48522978  1
  P  P262  1  0.69469303  0.74888754  0.73578616  1
  P  P263  1  0.69392932  0.75080304  0.98517933  1
  P  P264  1  0.30679136  0.24961625  0.01413994  1
  P  P265  1  0.30376981  0.24880422  0.26397397  1
  P  P266  1  0.30094777  0.24907115  0.51497940  1
  P  P267  1  0.30458333  0.25009177  0.76577013  1
  P  P268  1  0.30685026  0.58255178  0.01419969  1
  P  P269  1  0.30568903  0.58347289  0.26463669  1
  P  P270  1  0.30406339  0.58304674  0.51430206  1
  P  P271  1  0.30453211  0.58419437  0.76401610  1
  P  P272  1  0.30229345  0.91808126  0.01496508  1
  P  P273  1  0.30485466  0.91801150  0.26571464  1
  P  P274  1  0.30578792  0.91758629  0.51393497  1
  P  P275  1  0.30348698  0.91572113  0.76356451  1
  P  P276  1  0.80076038  0.24912019  0.01478422  1
  P  P277  1  0.80423608  0.24896535  0.26592981  1
  P  P278  1  0.80465601  0.25023793  0.51424854  1
  P  P279  1  0.80300145  0.25025154  0.76351587  1
  P  P280  1  0.80205776  0.58331911  0.01457180  1
  P  P281  1  0.80381956  0.58346524  0.26626357  1
  P  P282  1  0.80599952  0.58269250  0.51513727  1
  P  P283  1  0.80294575  0.58271507  0.76364129  1
  P  P284  1  0.80220668  0.91745571  0.01519699  1
  P  P285  1  0.80250406  0.91749082  0.26365260  1
  P  P286  1  0.80093868  0.91690683  0.51529303  1
  P  P287  1  0.80317564  0.91732992  0.76536328  1
  O  O288  1  0.05856637  0.24927039  0.18727249  1
  O  O289  1  0.05822617  0.24925892  0.43733425  1
  O  O290  1  0.05631085  0.24980776  0.68645239  1
  O  O291  1  0.05696940  0.24971734  0.93706557  1
  O  O292  1  0.05647054  0.58322973  0.18628778  1
  O  O293  1  0.05857031  0.58319346  0.43830260  1
  O  O294  1  0.06002140  0.58330000  0.68760018  1
  O  O295  1  0.05824975  0.58310188  0.93574798  1
  O  O296  1  0.05662050  0.91742859  0.18596043  1
  O  O297  1  0.05700627  0.91778681  0.43673474  1
  O  O298  1  0.05898041  0.91621312  0.68787475  1
  O  O299  1  0.05988907  0.91738608  0.93744136  1
  O  O300  1  0.55675751  0.24943680  0.18667148  1
  O  O301  1  0.55927179  0.25014823  0.43830773  1
  O  O302  1  0.55953866  0.24978752  0.68715916  1
  O  O303  1  0.55817428  0.24923600  0.93736911  1
  O  O304  1  0.55550995  0.58325529  0.18688372  1
  O  O305  1  0.55581734  0.58328756  0.43724235  1
  O  O306  1  0.55797588  0.58299633  0.68763397  1
  O  O307  1  0.55551852  0.58330819  0.93565449  1
  O  O308  1  0.55836643  0.91723368  0.18770363  1
  O  O309  1  0.55796148  0.91709775  0.43757314  1
  O  O310  1  0.55622389  0.91671427  0.68606986  1
  O  O311  1  0.55851785  0.91772016  0.93799442  1
  O  O312  1  0.44162126  0.08313478  0.06277381  1
  O  O313  1  0.44176292  0.08395242  0.31277772  1
  O  O314  1  0.44106786  0.08414408  0.56191107  1
  O  O315  1  0.44398653  0.08288039  0.81370622  1
  O  O316  1  0.44272649  0.41573232  0.06212613  1
  O  O317  1  0.44350072  0.41556898  0.31389832  1
  O  O318  1  0.44348005  0.41620125  0.56306400  1
  O  O319  1  0.44471506  0.41608761  0.81299163  1
  O  O320  1  0.44509301  0.75121650  0.06286075  1
  O  O321  1  0.44398659  0.75032780  0.31409390  1
  O  O322  1  0.43989703  0.75012055  0.56239394  1
  O  O323  1  0.44150611  0.75052533  0.81135177  1
  O  O324  1  0.93933539  0.08325543  0.06234170  1
  O  O325  1  0.94143260  0.08288013  0.31190421  1
  O  O326  1  0.94240369  0.08326535  0.56381187  1
  O  O327  1  0.94038268  0.08354536  0.81313084  1
  O  O328  1  0.94320233  0.41618982  0.06300781  1
  O  O329  1  0.94411699  0.41626619  0.31394899  1
  O  O330  1  0.94106649  0.41621002  0.56267373  1
  O  O331  1  0.94037777  0.41646141  0.81200130  1
  O  O332  1  0.94335029  0.75096022  0.06319645  1
  O  O333  1  0.94333670  0.75038402  0.31364849  1
  O  O334  1  0.94436412  0.75031401  0.56372456  1
  O  O335  1  0.94363111  0.74990982  0.81337239  1
  O  O336  1  0.19396114  0.08356777  0.06143189  1
  O  O337  1  0.19161265  0.08375078  0.31253083  1
  O  O338  1  0.19298164  0.08358969  0.56117933  1
  O  O339  1  0.19149603  0.08377937  0.81299617  1
  O  O340  1  0.19569020  0.41644178  0.06179210  1
  O  O341  1  0.19035586  0.41637981  0.31286020  1
  O  O342  1  0.19258897  0.41644560  0.56127755  1
  O  O343  1  0.19493111  0.41690064  0.81164516  1
  O  O344  1  0.19451073  0.75018416  0.06189828  1
  O  O345  1  0.19471875  0.74986421  0.31183844  1
  O  O346  1  0.19224779  0.74938846  0.56286246  1
  O  O347  1  0.19451674  0.74974657  0.81087977  1
  O  O348  1  0.69107917  0.08387757  0.06267291  1
  O  O349  1  0.69030417  0.08334032  0.31254491  1
  O  O350  1  0.69343810  0.08311886  0.56127282  1
  O  O351  1  0.69142244  0.08356496  0.81286575  1
  O  O352  1  0.69233355  0.41647205  0.06082185  1
  O  O353  1  0.69427153  0.41703637  0.31215004  1
  O  O354  1  0.69239175  0.41731722  0.56322749  1
  O  O355  1  0.68991361  0.41703020  0.81214779  1
  O  O356  1  0.69020220  0.74948395  0.06200440  1
  O  O357  1  0.69232916  0.74961463  0.31148899  1
  O  O358  1  0.69287081  0.74986166  0.56200128  1
  O  O359  1  0.69022411  0.74915320  0.81258576  1
  O  O360  1  0.30905870  0.24938239  0.18734737  1
  O  O361  1  0.30489238  0.24981590  0.43829606  1
  O  O362  1  0.30738559  0.25003252  0.68895581  1
  O  O363  1  0.31097549  0.24990189  0.93736171  1
  O  O364  1  0.31035390  0.58363456  0.18782795  1
  O  O365  1  0.30859657  0.58256181  0.43756005  1
  O  O366  1  0.30884620  0.58259212  0.68725384  1
  O  O367  1  0.31083730  0.58319893  0.93732318  1
  O  O368  1  0.30777285  0.91728051  0.18890407  1
  O  O369  1  0.30960995  0.91742320  0.43716434  1
  O  O370  1  0.30813725  0.91685707  0.68690881  1
  O  O371  1  0.30602105  0.91729835  0.93822634  1
  O  O372  1  0.80646061  0.24988275  0.18910984  1
  O  O373  1  0.80965348  0.24986376  0.43758373  1
  O  O374  1  0.80743593  0.25001283  0.68685491  1
  O  O375  1  0.80435135  0.24968084  0.93805144  1
  O  O376  1  0.80638407  0.58343704  0.18942505  1
  O  O377  1  0.81031379  0.58333994  0.43833867  1
  O  O378  1  0.80846359  0.58384274  0.68703257  1
  O  O379  1  0.80539831  0.58345452  0.93780498  1
  O  O380  1  0.80724154  0.91674158  0.18706288  1
  O  O381  1  0.80494336  0.91667389  0.43855022  1
  O  O382  1  0.80631704  0.91646950  0.68857414  1
  O  O383  1  0.80622731  0.91661273  0.93851468  1
  O  O384  1  0.23670324  0.24934797  0.03836039  1
  O  O385  1  0.23336452  0.24900031  0.28734841  1
  O  O386  1  0.23091612  0.24943991  0.53961237  1
  O  O387  1  0.23489770  0.25028450  0.79090338  1
  O  O388  1  0.23685286  0.58306233  0.03858592  1
  O  O389  1  0.23553310  0.58343906  0.28829589  1
  O  O390  1  0.23357472  0.58268226  0.53772593  1
  O  O391  1  0.23427241  0.58391875  0.78797624  1
  O  O392  1  0.23239865  0.91796144  0.03996755  1
  O  O393  1  0.23521472  0.91717361  0.29103806  1
  O  O394  1  0.23569831  0.91744683  0.53813580  1
  O  O395  1  0.23318154  0.91609356  0.78725837  1
  O  O396  1  0.73082516  0.24915262  0.03969995  1
  O  O397  1  0.73464178  0.25003784  0.29137704  1
  O  O398  1  0.73416161  0.24957029  0.53763263  1
  O  O399  1  0.73262980  0.25036622  0.78738236  1
  O  O400  1  0.73225199  0.58320847  0.03949636  1
  O  O401  1  0.73420798  0.58331435  0.29181976  1
  O  O402  1  0.73576718  0.58314445  0.53887586  1
  O  O403  1  0.73246540  0.58254488  0.78695174  1
  O  O404  1  0.73198381  0.91769190  0.03926762  1
  O  O405  1  0.73207117  0.91698563  0.28725408  1
  O  O406  1  0.73090634  0.91747644  0.53987709  1
  O  O407  1  0.73342990  0.91701196  0.79030268  1
  O  O408  1  0.26712378  0.08377724  0.21236038  1
  O  O409  1  0.26692943  0.08362439  0.46017799  1
  O  O410  1  0.26534225  0.08312682  0.71187155  1
  O  O411  1  0.26776568  0.08326951  0.96014759  1
  O  O412  1  0.26536398  0.41590780  0.21249956  1
  O  O413  1  0.26477910  0.41603357  0.45882690  1
  O  O414  1  0.26681892  0.41683208  0.70904739  1
  O  O415  1  0.26987711  0.41648652  0.96079010  1
  O  O416  1  0.26753462  0.75066435  0.20980214  1
  O  O417  1  0.26752911  0.74968534  0.46279872  1
  O  O418  1  0.26740041  0.74973619  0.70907676  1
  O  O419  1  0.26723655  0.75076345  0.95975491  1
  O  O420  1  0.76532894  0.08339433  0.21224651  1
  O  O421  1  0.76516303  0.08291479  0.45877792  1
  O  O422  1  0.76644077  0.08411913  0.71229570  1
  O  O423  1  0.76558860  0.08321850  0.96182543  1
  O  O424  1  0.76666523  0.41618525  0.20987130  1
  O  O425  1  0.76779005  0.41640212  0.46311929  1
  O  O426  1  0.76527195  0.41644303  0.71201841  1
  O  O427  1  0.76450715  0.41614544  0.95833562  1
  O  O428  1  0.76489375  0.75064271  0.20941679  1
  O  O429  1  0.76610322  0.75057507  0.46017909  1
  O  O430  1  0.76472702  0.74999550  0.71171497  1
  O  O431  1  0.76388893  0.75013325  0.96064942  1
  O  O432  1  0.01390241  0.08299977  0.16290750  1
  O  O433  1  0.01687339  0.08445214  0.41240758  1
  O  O434  1  0.01496366  0.08313251  0.66561637  1
  O  O435  1  0.01581892  0.08333031  0.91330328  1
  O  O436  1  0.01655950  0.41663215  0.16478106  1
  O  O437  1  0.01705229  0.41611626  0.41571687  1
  O  O438  1  0.01420456  0.41633919  0.66403036  1
  O  O439  1  0.01562220  0.41663356  0.91245427  1
  O  O440  1  0.01595957  0.75040733  0.16562531  1
  O  O441  1  0.01668363  0.74982830  0.41531212  1
  O  O442  1  0.01855734  0.74929372  0.66476158  1
  O  O443  1  0.01704269  0.75056634  0.91460289  1
  O  O444  1  0.51665582  0.08318497  0.16304525  1
  O  O445  1  0.51629448  0.08328891  0.41338412  1
  O  O446  1  0.51528860  0.08322798  0.66292053  1
  O  O447  1  0.51785597  0.08417891  0.91478938  1
  O  O448  1  0.51520678  0.41599368  0.16443817  1
  O  O449  1  0.51636375  0.41725787  0.41586906  1
  O  O450  1  0.51808895  0.41629883  0.66389539  1
  O  O451  1  0.51798309  0.41662893  0.91443616  1
  O  O452  1  0.51839206  0.75030337  0.16473420  1
  O  O453  1  0.51504069  0.75027238  0.41707912  1
  O  O454  1  0.51370760  0.74988292  0.66341170  1
  O  O455  1  0.51696718  0.74961628  0.91158529  1
  O  O456  1  0.48303411  0.24984562  0.08556341  1
  O  O457  1  0.48451259  0.24911374  0.33756748  1
  O  O458  1  0.48580336  0.25022938  0.58596024  1
  O  O459  1  0.48406275  0.24957377  0.83635990  1
  O  O460  1  0.48210427  0.58352826  0.08515261  1
  O  O461  1  0.48133820  0.58356028  0.33635924  1
  O  O462  1  0.48249236  0.58340048  0.58782088  1
  O  O463  1  0.48249574  0.58263016  0.83410574  1
  O  O464  1  0.48566859  0.91725765  0.08560923  1
  O  O465  1  0.48356709  0.91673059  0.33689382  1
  O  O466  1  0.48177617  0.91679510  0.58554157  1
  O  O467  1  0.48470092  0.91704103  0.83654574  1
  O  O468  1  0.98423477  0.24936042  0.08635062  1
  O  O469  1  0.98386420  0.24998923  0.33655564  1
  O  O470  1  0.98167439  0.25020629  0.58596713  1
  O  O471  1  0.98336334  0.24928628  0.83557790  1
  O  O472  1  0.98369851  0.58374646  0.08418079  1
  O  O473  1  0.98327861  0.58248345  0.33796831  1
  O  O474  1  0.98438542  0.58311957  0.58791073  1
  O  O475  1  0.98495249  0.58300358  0.83424132  1
  O  O476  1  0.98212968  0.91725366  0.08508289  1
  O  O477  1  0.98352878  0.91721491  0.33514825  1
  O  O478  1  0.98488373  0.91689745  0.58661100  1
  O  O479  1  0.98587523  0.91663726  0.83659729  1
  O  O480  1  0.08795780  0.31448087  0.07742474  1
  O  O481  1  0.08772702  0.31507042  0.32785650  1
  O  O482  1  0.08594122  0.31470482  0.57684253  1
  O  O483  1  0.08718787  0.31403675  0.82740412  1
  O  O484  1  0.08772274  0.64865533  0.07748387  1
  O  O485  1  0.08701281  0.64718356  0.32782655  1
  O  O486  1  0.08802608  0.64892797  0.57737499  1
  O  O487  1  0.08897760  0.64812930  0.82646101  1
  O  O488  1  0.08619783  0.98200302  0.07617295  1
  O  O489  1  0.08685060  0.98332083  0.32726518  1
  O  O490  1  0.08888471  0.98074667  0.57814143  1
  O  O491  1  0.08869591  0.98378153  0.82791310  1
  O  O492  1  0.58743002  0.31372627  0.07701067  1
  O  O493  1  0.58782018  0.31448552  0.32815181  1
  O  O494  1  0.58950327  0.31602727  0.57782023  1
  O  O495  1  0.58788202  0.31460576  0.82762160  1
  O  O496  1  0.58570618  0.64892700  0.07755161  1
  O  O497  1  0.58509161  0.64855350  0.32788844  1
  O  O498  1  0.58635662  0.64749069  0.57744127  1
  O  O499  1  0.58635416  0.64806782  0.82594530  1
  O  O500  1  0.58947099  0.98221293  0.07822301  1
  O  O501  1  0.58698116  0.98276155  0.32757681  1
  O  O502  1  0.58586566  0.98150435  0.57639283  1
  O  O503  1  0.58787584  0.98279175  0.82825372  1
  O  O504  1  0.41235791  0.01943902  0.17305676  1
  O  O505  1  0.41265538  0.01756469  0.42213300  1
  O  O506  1  0.41187778  0.01777477  0.67149871  1
  O  O507  1  0.41403156  0.01903749  0.92390044  1
  O  O508  1  0.41176187  0.35073486  0.17172435  1
  O  O509  1  0.41292993  0.35169411  0.42360396  1
  O  O510  1  0.41431597  0.35170856  0.67268053  1
  O  O511  1  0.41424136  0.35123679  0.92259722  1
  O  O512  1  0.41442167  0.68520645  0.17176904  1
  O  O513  1  0.41104228  0.68514837  0.42299108  1
  O  O514  1  0.40974630  0.68531635  0.67205527  1
  O  O515  1  0.41351429  0.68422390  0.92074259  1
  O  O516  1  0.91043574  0.01692841  0.17198061  1
  O  O517  1  0.91352867  0.01894025  0.42252138  1
  O  O518  1  0.91053335  0.01927857  0.67332551  1
  O  O519  1  0.91196745  0.01830438  0.92306716  1
  O  O520  1  0.91299116  0.35135419  0.17241483  1
  O  O521  1  0.91302146  0.35093615  0.42307180  1
  O  O522  1  0.91016384  0.35155550  0.67235439  1
  O  O523  1  0.91207195  0.35155430  0.92211411  1
  O  O524  1  0.91171506  0.68646638  0.17225694  1
  O  O525  1  0.91308336  0.68438300  0.42267023  1
  O  O526  1  0.91451674  0.68424616  0.67288438  1
  O  O527  1  0.91348565  0.68474071  0.92263203  1
  O  O528  1  0.16344985  0.01914176  0.20246761  1
  O  O529  1  0.16270607  0.01938323  0.45126930  1
  O  O530  1  0.16199889  0.01754039  0.70345561  1
  O  O531  1  0.16357934  0.01785737  0.95232768  1
  O  O532  1  0.16213756  0.35022776  0.20319332  1
  O  O533  1  0.16053803  0.35140925  0.45243229  1
  O  O534  1  0.16250260  0.35262061  0.70272725  1
  O  O535  1  0.16593315  0.35144335  0.95226615  1
  O  O536  1  0.16403903  0.68503868  0.20250301  1
  O  O537  1  0.16417961  0.68379925  0.45285455  1
  O  O538  1  0.16346979  0.68462921  0.70158546  1
  O  O539  1  0.16364847  0.68586996  0.95234039  1
  O  O540  1  0.66166666  0.01779249  0.20254360  1
  O  O541  1  0.66077821  0.01843821  0.45230070  1
  O  O542  1  0.66281518  0.01923175  0.70264600  1
  O  O543  1  0.66166710  0.01847716  0.95282066  1
  O  O544  1  0.66249638  0.35194690  0.20325036  1
  O  O545  1  0.66420361  0.35103365  0.45353505  1
  O  O546  1  0.66143912  0.35168779  0.70228282  1
  O  O547  1  0.66100796  0.35002511  0.95220565  1
  O  O548  1  0.66114230  0.68537383  0.20198875  1
  O  O549  1  0.66247966  0.68557265  0.45253681  1
  O  O550  1  0.66167850  0.68363262  0.70259128  1
  O  O551  1  0.65959662  0.68623821  0.95170170  1
  O  O552  1  0.34026689  0.31467004  0.04741332  1
  O  O553  1  0.33683381  0.31370586  0.29796006  1
  O  O554  1  0.33494371  0.31405571  0.54788701  1
  O  O555  1  0.33917237  0.31501828  0.79796018  1
  O  O556  1  0.34074681  0.64756111  0.04730372  1
  O  O557  1  0.33929091  0.64845524  0.29778555  1
  O  O558  1  0.33740807  0.64809478  0.54747861  1
  O  O559  1  0.33787042  0.64957100  0.79657501  1
  O  O560  1  0.33640083  0.98317150  0.04721458  1
  O  O561  1  0.33879084  0.98338252  0.29772906  1
  O  O562  1  0.33915378  0.98285350  0.54691713  1
  O  O563  1  0.33703665  0.98038667  0.79750248  1
  O  O564  1  0.83470748  0.31416924  0.04749485  1
  O  O565  1  0.83940688  0.31340098  0.29850620  1
  O  O566  1  0.83764810  0.31530424  0.54782802  1
  O  O567  1  0.83614949  0.31543476  0.79678134  1
  O  O568  1  0.83590302  0.64845120  0.04712341  1
  O  O569  1  0.83818270  0.64852931  0.29845236  1
  O  O570  1  0.83975649  0.64757900  0.54858664  1
  O  O571  1  0.83592729  0.64767876  0.79760149  1
  O  O572  1  0.83607935  0.98246900  0.04777720  1
  O  O573  1  0.83543906  0.98278377  0.29704660  1
  O  O574  1  0.83523999  0.98186153  0.54757662  1
  O  O575  1  0.83695247  0.98271324  0.79742165  1
  O  O576  1  0.41335584  0.14945176  0.17270765  1
  O  O577  1  0.41216537  0.14745398  0.42347761  1
  O  O578  1  0.41184172  0.14807490  0.67200243  1
  O  O579  1  0.41365386  0.14892438  0.92269641  1
  O  O580  1  0.41149684  0.48107145  0.17117985  1
  O  O581  1  0.41218707  0.48187009  0.42240582  1
  O  O582  1  0.41439541  0.48189001  0.67249311  1
  O  O583  1  0.41376903  0.48136909  0.92205608  1
  O  O584  1  0.41478860  0.81531920  0.17245189  1
  O  O585  1  0.41100444  0.81530783  0.42270981  1
  O  O586  1  0.41038960  0.81560947  0.67221473  1
  O  O587  1  0.41363601  0.81448647  0.92214047  1
  O  O588  1  0.90975896  0.14699113  0.17266631  1
  O  O589  1  0.91295785  0.14904332  0.42139054  1
  O  O590  1  0.91147387  0.14944583  0.67281818  1
  O  O591  1  0.91181312  0.14817306  0.92339588  1
  O  O592  1  0.91276392  0.48158410  0.17220460  1
  O  O593  1  0.91291855  0.48101947  0.42346109  1
  O  O594  1  0.91055220  0.48180105  0.67216194  1
  O  O595  1  0.91201391  0.48170100  0.92180071  1
  O  O596  1  0.91264853  0.81677286  0.17220029  1
  O  O597  1  0.91288922  0.81473776  0.42316493  1
  O  O598  1  0.91471246  0.81445363  0.67338344  1
  O  O599  1  0.91284933  0.81481472  0.92264669  1
  O  O600  1  0.08786894  0.18443578  0.07750064  1
  O  O601  1  0.08773226  0.18492393  0.32686219  1
  O  O602  1  0.08541355  0.18481139  0.57655874  1
  O  O603  1  0.08698576  0.18377366  0.82803727  1
  O  O604  1  0.08745230  0.51856863  0.07678220  1
  O  O605  1  0.08669255  0.51696854  0.32861270  1
  O  O606  1  0.08828477  0.51887506  0.57729577  1
  O  O607  1  0.08908035  0.51813611  0.82633473  1
  O  O608  1  0.08637619  0.85212065  0.07660866  1
  O  O609  1  0.08770185  0.85299825  0.32765808  1
  O  O610  1  0.08813947  0.85052795  0.57821832  1
  O  O611  1  0.09060693  0.85362453  0.82731927  1
  O  O612  1  0.58650609  0.18377613  0.07709860  1
  O  O613  1  0.58811373  0.18423466  0.32872568  1
  O  O614  1  0.58984945  0.18599388  0.57714002  1
  O  O615  1  0.58787269  0.18444076  0.82732704  1
  O  O616  1  0.58577643  0.51876296  0.07734911  1
  O  O617  1  0.58509897  0.51844809  0.32746971  1
  O  O618  1  0.58596734  0.51743902  0.57758269  1
  O  O619  1  0.58681404  0.51801871  0.82663009  1
  O  O620  1  0.58941795  0.85205943  0.07823888  1
  O  O621  1  0.58784530  0.85274060  0.32767350  1
  O  O622  1  0.58556754  0.85160823  0.57635443  1
  O  O623  1  0.58833810  0.85230074  0.82842945  1
  O  O624  1  0.34037850  0.18438689  0.04703532  1
  O  O625  1  0.33700517  0.18372010  0.29729372  1
  O  O626  1  0.33496423  0.18401546  0.54736438  1
  O  O627  1  0.33889626  0.18516703  0.79829526  1
  O  O628  1  0.34032596  0.51730476  0.04690339  1
  O  O629  1  0.33913496  0.51843589  0.29794187  1
  O  O630  1  0.33745504  0.51807534  0.54791402  1
  O  O631  1  0.33841411  0.51954996  0.79768909  1
  O  O632  1  0.33642444  0.85314245  0.04776672  1
  O  O633  1  0.33972912  0.85334809  0.29821685  1
  O  O634  1  0.33937283  0.85254106  0.54704220  1
  O  O635  1  0.33648306  0.85035033  0.79657852  1
  O  O636  1  0.83482337  0.18413897  0.04718631  1
  O  O637  1  0.83792960  0.18337849  0.29779305  1
  O  O638  1  0.83798262  0.18521731  0.54773582  1
  O  O639  1  0.83618222  0.18524100  0.79707639  1
  O  O640  1  0.83605965  0.51823557  0.04693821  1
  O  O641  1  0.83845941  0.51851850  0.29852000  1
  O  O642  1  0.83940366  0.51745705  0.54790572  1
  O  O643  1  0.83605555  0.51738112  0.79663392  1
  O  O644  1  0.83568343  0.85243078  0.04856644  1
  O  O645  1  0.83589750  0.85272570  0.29750020  1
  O  O646  1  0.83468583  0.85191086  0.54835200  1
  O  O647  1  0.83729524  0.85235890  0.79802921  1
  O  O648  1  0.16356405  0.14923407  0.20239606  1
  O  O649  1  0.16295123  0.14932656  0.45183885  1
  O  O650  1  0.16169115  0.14778854  0.70300755  1
  O  O651  1  0.16352487  0.14774627  0.95162261  1
  O  O652  1  0.16209186  0.48077921  0.20264890  1
  O  O653  1  0.16113027  0.48166103  0.45218907  1
  O  O654  1  0.16332214  0.48271137  0.70276134  1
  O  O655  1  0.16590196  0.48146216  0.95234336  1
  O  O656  1  0.16349768  0.81527369  0.20305117  1
  O  O657  1  0.16379648  0.81405113  0.45278130  1
  O  O658  1  0.16328882  0.81470958  0.70149435  1
  O  O659  1  0.16348618  0.81618743  0.95323878  1
  O  O660  1  0.66141608  0.14770774  0.20228632  1
  O  O661  1  0.66150520  0.14856439  0.45240026  1
  O  O662  1  0.66280601  0.14923726  0.70303789  1
  O  O663  1  0.66185374  0.14844599  0.95239878  1
  O  O664  1  0.66313207  0.48201872  0.20297422  1
  O  O665  1  0.66416426  0.48122509  0.45281640  1
  O  O666  1  0.66169384  0.48181150  0.70165810  1
  O  O667  1  0.66015276  0.48020435  0.95132021  1
  O  O668  1  0.66075564  0.81548869  0.20268158  1
  O  O669  1  0.66229211  0.81590573  0.45321173  1
  O  O670  1  0.66054889  0.81382919  0.70302076  1
  O  O671  1  0.66062130  0.81647600  0.95305032  1
