# generated using pymatgen
data_Na2MnFe(PO4)2
_symmetry_space_group_name_H-M   'P 1'
_cell_length_a   21.07824811
_cell_length_b   18.92973914
_cell_length_c   20.03766968
_cell_angle_alpha   90.00057494
_cell_angle_beta   89.99747184
_cell_angle_gamma   89.99856856
_symmetry_Int_Tables_number   1
_chemical_formula_structural   Na2MnFe(PO4)2
_chemical_formula_sum   'Na96 Mn48 Fe48 P96 O384'
_cell_volume   7995.14517070
_cell_formula_units_Z   48
loop_
 _symmetry_equiv_pos_site_id
 _symmetry_equiv_pos_as_xyz
  1  'x, y, z'
loop_
 _atom_site_type_symbol
 _atom_site_label
 _atom_site_symmetry_multiplicity
 _atom_site_fract_x
 _atom_site_fract_y
 _atom_site_fract_z
 _atom_site_occupancy
  Na  Na0  1  0.00149035  0.00057082  -0.00123992  1
  Na  Na1  1  0.00024898  0.00024258  0.24995586  1
  Na  Na2  1  0.00069396  0.00058106  0.50058733  1
  Na  Na3  1  -0.00084010  -0.00133831  0.75004860  1
  Na  Na4  1  0.00007576  0.33266063  0.00080552  1
  Na  Na5  1  -0.00106400  0.33231947  0.25082146  1
  Na  Na6  1  -0.00042499  0.33313348  0.49985452  1
  Na  Na7  1  0.00053716  0.33335543  0.74903007  1
  Na  Na8  1  -0.00236021  0.66603565  0.00010133  1
  Na  Na9  1  0.00023224  0.66740988  0.25049376  1
  Na  Na10  1  -0.00035456  0.66671296  0.49923324  1
  Na  Na11  1  -0.00215008  0.66588486  0.75019318  1
  Na  Na12  1  0.49830122  0.00012964  0.00154765  1
  Na  Na13  1  0.50061109  0.00105402  0.24926748  1
  Na  Na14  1  0.50023839  0.00098316  0.49901891  1
  Na  Na15  1  0.49804195  0.00015727  0.75046411  1
  Na  Na16  1  0.50184370  0.33391212  0.00043510  1
  Na  Na17  1  0.49961486  0.33221712  0.25007687  1
  Na  Na18  1  0.49950386  0.33237542  0.49982249  1
  Na  Na19  1  0.50026046  0.33290376  0.74942264  1
  Na  Na20  1  0.50071721  0.66625592  -0.00041151  1
  Na  Na21  1  0.50303845  0.66642297  0.25057795  1
  Na  Na22  1  0.50210224  0.66716343  0.49964720  1
  Na  Na23  1  0.49905454  0.66647066  0.75008588  1
  Na  Na24  1  0.24955121  0.00098536  0.12503935  1
  Na  Na25  1  0.24966229  0.00047337  0.37512044  1
  Na  Na26  1  0.24994576  -0.00064025  0.62483558  1
  Na  Na27  1  0.25092426  0.00006329  0.87515453  1
  Na  Na28  1  0.24786812  0.33273063  0.12575583  1
  Na  Na29  1  0.24811292  0.33219906  0.37551984  1
  Na  Na30  1  0.24947894  0.33336562  0.62514314  1
  Na  Na31  1  0.24664501  0.33220526  0.87394427  1
  Na  Na32  1  0.25133179  0.66628466  0.12449771  1
  Na  Na33  1  0.25094061  0.66612539  0.37401835  1
  Na  Na34  1  0.25264745  0.66700267  0.62581285  1
  Na  Na35  1  0.25295890  0.66709653  0.87505878  1
  Na  Na36  1  0.74904633  -0.00036897  0.12437103  1
  Na  Na37  1  0.74855427  0.00041430  0.37584874  1
  Na  Na38  1  0.75002354  0.00044994  0.62402151  1
  Na  Na39  1  0.75189348  0.00125493  0.87587012  1
  Na  Na40  1  0.75296001  0.33334574  0.12452823  1
  Na  Na41  1  0.75383796  0.33366718  0.37443477  1
  Na  Na42  1  0.75132128  0.33276824  0.62583704  1
  Na  Na43  1  0.75065361  0.33266457  0.87442854  1
  Na  Na44  1  0.74716251  0.66626466  0.12484349  1
  Na  Na45  1  0.74654768  0.66613164  0.37596415  1
  Na  Na46  1  0.74831618  0.66657162  0.62604592  1
  Na  Na47  1  0.74964326  0.66719896  0.87408886  1
  Na  Na48  1  -0.00031746  0.16687965  -0.00054918  1
  Na  Na49  1  0.00008677  0.16680946  0.25110616  1
  Na  Na50  1  -0.00036604  0.16705994  0.49970856  1
  Na  Na51  1  -0.00104292  0.16749954  0.75047997  1
  Na  Na52  1  0.00067051  0.49954672  0.00018639  1
  Na  Na53  1  -0.00032326  0.50020043  0.25094897  1
  Na  Na54  1  0.00027258  0.49975521  0.49878939  1
  Na  Na55  1  -0.00095473  0.50059239  0.74841971  1
  Na  Na56  1  -0.00080183  0.83358211  0.00008975  1
  Na  Na57  1  -0.00107746  0.83395734  0.24911804  1
  Na  Na58  1  -0.00148087  0.83432871  0.50092204  1
  Na  Na59  1  0.00005106  0.83307856  0.75037881  1
  Na  Na60  1  0.49891719  0.16668411  0.00036527  1
  Na  Na61  1  0.50012275  0.16626712  0.24993235  1
  Na  Na62  1  0.50198703  0.16625373  0.49850409  1
  Na  Na63  1  0.50011193  0.16673767  0.75035432  1
  Na  Na64  1  0.50043229  0.50033491  0.00084368  1
  Na  Na65  1  0.50085038  0.50045552  0.25050879  1
  Na  Na66  1  0.49965002  0.50011126  0.49957207  1
  Na  Na67  1  0.49860740  0.50037787  0.75025689  1
  Na  Na68  1  0.50148092  0.83291031  0.00052141  1
  Na  Na69  1  0.50348608  0.83216450  0.24974733  1
  Na  Na70  1  0.49966178  0.83334044  0.50037982  1
  Na  Na71  1  0.49899586  0.83340658  0.74917951  1
  Na  Na72  1  0.24812850  0.16698008  0.12592358  1
  Na  Na73  1  0.24873458  0.16679720  0.37540016  1
  Na  Na74  1  0.24863543  0.16764740  0.62443787  1
  Na  Na75  1  0.24895836  0.16697220  0.87493759  1
  Na  Na76  1  0.25104852  0.49950614  0.12543678  1
  Na  Na77  1  0.24834036  0.50075478  0.37415262  1
  Na  Na78  1  0.25016979  0.50004778  0.62616431  1
  Na  Na79  1  0.25064174  0.50050870  0.87475228  1
  Na  Na80  1  0.24864123  0.83465019  0.12417459  1
  Na  Na81  1  0.25219986  0.83280167  0.37502714  1
  Na  Na82  1  0.25321378  0.83245649  0.62512133  1
  Na  Na83  1  0.24996351  0.83405671  0.87451578  1
  Na  Na84  1  0.75099583  0.16639786  0.12480246  1
  Na  Na85  1  0.75043410  0.16677664  0.37484223  1
  Na  Na86  1  0.75057234  0.16679331  0.62418316  1
  Na  Na87  1  0.75225565  0.16612056  0.87538555  1
  Na  Na88  1  0.74966669  0.50042549  0.12373737  1
  Na  Na89  1  0.74926595  0.50042726  0.37556681  1
  Na  Na90  1  0.75147219  0.49892928  0.62650268  1
  Na  Na91  1  0.74894746  0.50099093  0.87399535  1
  Na  Na92  1  0.74893656  0.83344059  0.12505659  1
  Na  Na93  1  0.74884127  0.83322880  0.37604800  1
  Na  Na94  1  0.74803417  0.83385009  0.62488396  1
  Na  Na95  1  0.75026690  0.83288053  0.87524722  1
  Mn  Mn96  1  0.85643934  0.75025585  0.25258318  1
  Mn  Mn97  1  0.10770237  0.08336174  0.87208385  1
  Mn  Mn98  1  0.14280980  0.91580923  0.49742626  1
  Mn  Mn99  1  0.35859642  0.75059890  0.00275503  1
  Mn  Mn100  1  0.14171259  0.91683141  0.24816995  1
  Mn  Mn101  1  0.85715054  0.75091531  0.75213350  1
  Mn  Mn102  1  0.60726003  0.08343355  0.87279593  1
  Mn  Mn103  1  0.10733837  0.41653271  0.12281644  1
  Mn  Mn104  1  0.85818513  0.41758857  0.00163418  1
  Mn  Mn105  1  0.39137412  0.25031615  0.87769005  1
  Mn  Mn106  1  0.14233827  0.58353486  0.24741184  1
  Mn  Mn107  1  0.10741955  0.74889336  0.87286542  1
  Mn  Mn108  1  0.64267255  0.24919298  0.74795743  1
  Mn  Mn109  1  0.35702581  0.41698189  0.50166925  1
  Mn  Mn110  1  0.10868346  0.74938488  0.62277761  1
  Mn  Mn111  1  0.60891561  0.41589353  0.37263807  1
  Mn  Mn112  1  0.89143234  0.58388680  0.37779159  1
  Mn  Mn113  1  0.35766528  0.41647218  0.75259648  1
  Mn  Mn114  1  0.10761383  0.75041356  0.12223992  1
  Mn  Mn115  1  0.64102002  0.91709195  0.49769429  1
  Mn  Mn116  1  0.14240904  0.58422171  0.74797157  1
  Mn  Mn117  1  0.35785279  0.08339343  0.75165178  1
  Mn  Mn118  1  0.10725776  0.41724953  0.62220185  1
  Mn  Mn119  1  0.89218477  0.91745674  0.12749279  1
  Mn  Mn120  1  0.64300054  0.25047295  0.99782266  1
  Mn  Mn121  1  0.85743588  0.08366333  0.50200030  1
  Mn  Mn122  1  0.64359418  0.25008997  0.24770264  1
  Mn  Mn123  1  0.64151365  0.91781243  0.74850641  1
  Mn  Mn124  1  0.35770015  0.41540675  0.25256025  1
  Mn  Mn125  1  0.39251523  0.91594072  0.12768507  1
  Mn  Mn126  1  0.10833944  0.75062276  0.37319580  1
  Mn  Mn127  1  0.89117047  0.58286080  0.12768926  1
  Mn  Mn128  1  0.60767807  0.41613103  0.62205682  1
  Mn  Mn129  1  0.89167078  0.91645844  0.62786277  1
  Mn  Mn130  1  0.35764627  0.41543267  0.00199721  1
  Mn  Mn131  1  0.64195566  0.91663580  0.99692949  1
  Mn  Mn132  1  0.60892555  0.41613662  0.12285560  1
  Mn  Mn133  1  0.39141022  0.25054362  0.12730732  1
  Mn  Mn134  1  0.35901686  0.75063577  0.25181675  1
  Mn  Mn135  1  0.85868492  0.08258246  0.00295671  1
  Mn  Mn136  1  0.14261737  0.58361002  0.99748809  1
  Mn  Mn137  1  0.39315269  0.58280583  0.37747617  1
  Mn  Mn138  1  0.35778921  0.08331803  0.50224219  1
  Mn  Mn139  1  0.64167469  0.58313658  0.74760592  1
  Mn  Mn140  1  0.39317684  0.91698580  0.37654027  1
  Mn  Mn141  1  0.85834169  0.41615162  0.75307549  1
  Mn  Mn142  1  0.85670794  0.74909043  0.50238098  1
  Mn  Mn143  1  0.10734004  0.08320569  0.62312855  1
  Fe  Fe144  1  0.64292063  0.58287769  0.24795846  1
  Fe  Fe145  1  0.64308815  0.25077132  0.49817179  1
  Fe  Fe146  1  0.39243551  0.58289225  0.62594230  1
  Fe  Fe147  1  0.60581513  0.75023582  0.62361580  1
  Fe  Fe148  1  0.85757387  0.08294939  0.75129958  1
  Fe  Fe149  1  0.89300243  0.91609687  0.87675300  1
  Fe  Fe150  1  0.10705394  0.41737171  0.87364160  1
  Fe  Fe151  1  0.60750636  0.08349762  0.62379248  1
  Fe  Fe152  1  0.89378250  0.25032579  0.87670104  1
  Fe  Fe153  1  0.85752944  0.41704148  0.50137541  1
  Fe  Fe154  1  0.89354486  0.24948356  0.12687331  1
  Fe  Fe155  1  0.39263129  0.24981057  0.62589745  1
  Fe  Fe156  1  0.89184304  0.91714274  0.37625859  1
  Fe  Fe157  1  0.60663445  0.75019648  0.87319876  1
  Fe  Fe158  1  0.35668314  0.08391912  0.25156670  1
  Fe  Fe159  1  0.10732270  0.08321354  0.12345465  1
  Fe  Fe160  1  0.60741321  0.08355115  0.37208547  1
  Fe  Fe161  1  0.14289120  0.91675556  0.99764940  1
  Fe  Fe162  1  0.14338088  0.91630388  0.74847026  1
  Fe  Fe163  1  0.14165851  0.24980331  0.99831489  1
  Fe  Fe164  1  0.85755115  0.08289711  0.25184099  1
  Fe  Fe165  1  0.14193777  0.24950419  0.74767013  1
  Fe  Fe166  1  0.60801045  0.75035013  0.12268493  1
  Fe  Fe167  1  0.39367226  0.58316004  0.87719257  1
  Fe  Fe168  1  0.10649443  0.41645431  0.37343583  1
  Fe  Fe169  1  0.35871720  0.74927878  0.50132251  1
  Fe  Fe170  1  0.39428059  0.58322307  0.12640883  1
  Fe  Fe171  1  0.60716040  0.08348470  0.12357218  1
  Fe  Fe172  1  0.89213083  0.58342157  0.87687355  1
  Fe  Fe173  1  0.10680245  0.08330686  0.37336586  1
  Fe  Fe174  1  0.60739947  0.41664916  0.87352423  1
  Fe  Fe175  1  0.64303506  0.91710395  0.24844441  1
  Fe  Fe176  1  0.60750068  0.75084335  0.37338774  1
  Fe  Fe177  1  0.14207143  0.24970522  0.24880057  1
  Fe  Fe178  1  0.39248122  0.24975713  0.37684682  1
  Fe  Fe179  1  0.39287759  0.91733690  0.62659238  1
  Fe  Fe180  1  0.35610856  0.08399207  0.00194865  1
  Fe  Fe181  1  0.89269869  0.24999979  0.62662747  1
  Fe  Fe182  1  0.64244523  0.58306093  0.99731300  1
  Fe  Fe183  1  0.14210461  0.25041904  0.49794962  1
  Fe  Fe184  1  0.35833892  0.75026959  0.75213103  1
  Fe  Fe185  1  0.14278977  0.58356792  0.49884581  1
  Fe  Fe186  1  0.64229140  0.58187081  0.49953803  1
  Fe  Fe187  1  0.85626374  0.74976649  0.00140495  1
  Fe  Fe188  1  0.89213910  0.58350958  0.62584825  1
  Fe  Fe189  1  0.85786854  0.41679793  0.25191545  1
  Fe  Fe190  1  0.89343703  0.24935441  0.37699019  1
  Fe  Fe191  1  0.39213322  0.91650237  0.87719241  1
  P  P192  1  0.05395997  0.24878947  0.11111153  1
  P  P193  1  0.05421149  0.25012812  0.36123722  1
  P  P194  1  0.05361348  0.24989057  0.61022733  1
  P  P195  1  0.05420843  0.25089065  0.86052726  1
  P  P196  1  0.05273941  0.58344530  0.10978241  1
  P  P197  1  0.05447778  0.58305185  0.36128984  1
  P  P198  1  0.05244116  0.58363463  0.60899361  1
  P  P199  1  0.05168139  0.58269178  0.85990529  1
  P  P200  1  0.05404589  0.91790626  0.10906081  1
  P  P201  1  0.05177662  0.91720127  0.36026013  1
  P  P202  1  0.05459157  0.91626286  0.61120938  1
  P  P203  1  0.05413928  0.91611267  0.86038568  1
  P  P204  1  0.55364163  0.24884690  0.11022665  1
  P  P205  1  0.55388698  0.24946992  0.36064455  1
  P  P206  1  0.55309766  0.24904681  0.60927556  1
  P  P207  1  0.55314074  0.25061307  0.86013495  1
  P  P208  1  0.55540854  0.58369593  0.11047781  1
  P  P209  1  0.55622936  0.58345702  0.36103085  1
  P  P210  1  0.55221526  0.58359895  0.60990203  1
  P  P211  1  0.55372005  0.58323498  0.86117401  1
  P  P212  1  0.55519192  0.91725055  0.11145420  1
  P  P213  1  0.55430499  0.91720836  0.35919146  1
  P  P214  1  0.55186210  0.91727604  0.61047099  1
  P  P215  1  0.55127616  0.91647307  0.86017312  1
  P  P216  1  0.44530388  0.08364372  0.13968405  1
  P  P217  1  0.44641360  0.08431862  0.38822901  1
  P  P218  1  0.44785693  0.08419878  0.63936655  1
  P  P219  1  0.44516277  0.08282833  0.89110837  1
  P  P220  1  0.44728264  0.41729572  0.14026767  1
  P  P221  1  0.44706780  0.41539581  0.38994940  1
  P  P222  1  0.44618009  0.41610791  0.63951263  1
  P  P223  1  0.44793129  0.41700773  0.89028247  1
  P  P224  1  0.44900239  0.74895422  0.13999680  1
  P  P225  1  0.44811338  0.74995993  0.39021041  1
  P  P226  1  0.44549011  0.74965831  0.63893030  1
  P  P227  1  0.44659021  0.75026851  0.88896221  1
  P  P228  1  0.94763713  0.08391452  0.14076484  1
  P  P229  1  0.94626683  0.08306634  0.38878949  1
  P  P230  1  0.94576462  0.08418109  0.64058935  1
  P  P231  1  0.94546884  0.08306228  0.88838681  1
  P  P232  1  0.94600444  0.41582281  0.14091753  1
  P  P233  1  0.94546021  0.41596418  0.38937251  1
  P  P234  1  0.94471591  0.41684292  0.63806618  1
  P  P235  1  0.94797181  0.41659821  0.88981619  1
  P  P236  1  0.94492938  0.74999793  0.13919013  1
  P  P237  1  0.94613642  0.75135572  0.39016802  1
  P  P238  1  0.94655748  0.74899315  0.64007097  1
  P  P239  1  0.94541423  0.75015395  0.89056155  1
  P  P240  1  0.19515880  0.08413278  0.23599878  1
  P  P241  1  0.19557187  0.08389990  0.48457894  1
  P  P242  1  0.19648590  0.08287070  0.73489091  1
  P  P243  1  0.19567884  0.08343518  0.98609272  1
  P  P244  1  0.19497066  0.41553520  0.23647429  1
  P  P245  1  0.19535730  0.41706792  0.48457580  1
  P  P246  1  0.19472331  0.41653691  0.73616971  1
  P  P247  1  0.19579824  0.41609025  0.98424636  1
  P  P248  1  0.19733435  0.75027690  0.23437464  1
  P  P249  1  0.19908626  0.74886992  0.48509369  1
  P  P250  1  0.19854861  0.75063876  0.73525652  1
  P  P251  1  0.19719774  0.75066274  0.98452063  1
  P  P252  1  0.69660418  0.08290391  0.23542257  1
  P  P253  1  0.69416621  0.08475264  0.48545537  1
  P  P254  1  0.69769987  0.08333658  0.73431635  1
  P  P255  1  0.69597410  0.08368423  0.98589081  1
  P  P256  1  0.69898498  0.41662026  0.23487265  1
  P  P257  1  0.69826048  0.41587599  0.48546292  1
  P  P258  1  0.69559853  0.41617724  0.73597968  1
  P  P259  1  0.69657437  0.41723541  0.98373428  1
  P  P260  1  0.69435218  0.75044676  0.23592890  1
  P  P261  1  0.69356930  0.74911092  0.48651870  1
  P  P262  1  0.69382143  0.75068373  0.73550219  1
  P  P263  1  0.69528167  0.74927111  0.98494773  1
  P  P264  1  0.30094136  0.24941263  0.01516338  1
  P  P265  1  0.30233339  0.24888642  0.26594735  1
  P  P266  1  0.30321864  0.25013366  0.51432588  1
  P  P267  1  0.30281222  0.24976976  0.76371698  1
  P  P268  1  0.30589599  0.58287197  0.01474486  1
  P  P269  1  0.30542148  0.58320305  0.26372490  1
  P  P270  1  0.30282816  0.58343468  0.51537193  1
  P  P271  1  0.30593943  0.58405467  0.76465461  1
  P  P272  1  0.30349477  0.91780857  0.01404981  1
  P  P273  1  0.30334198  0.91794529  0.26490072  1
  P  P274  1  0.30478957  0.91608053  0.51525168  1
  P  P275  1  0.30480825  0.91619902  0.76435620  1
  P  P276  1  0.80619431  0.25016484  0.01452182  1
  P  P277  1  0.80634133  0.24912740  0.26414289  1
  P  P278  1  0.80449003  0.25064897  0.51418666  1
  P  P279  1  0.80564739  0.24867560  0.76451370  1
  P  P280  1  0.80293388  0.58443644  0.01342669  1
  P  P281  1  0.80161171  0.58315882  0.26524323  1
  P  P282  1  0.80185201  0.58261534  0.51597907  1
  P  P283  1  0.80484431  0.58363826  0.76451918  1
  P  P284  1  0.80438239  0.91542956  0.01399742  1
  P  P285  1  0.80225403  0.91774278  0.26570162  1
  P  P286  1  0.80374938  0.91673896  0.51400942  1
  P  P287  1  0.80334827  0.91763971  0.76594096  1
  O  O288  1  0.05814502  0.24948953  0.18783611  1
  O  O289  1  0.05837325  0.25012019  0.43799299  1
  O  O290  1  0.05837699  0.24977282  0.68699421  1
  O  O291  1  0.05843281  0.24980856  0.93732025  1
  O  O292  1  0.05618477  0.58382493  0.18658953  1
  O  O293  1  0.05899811  0.58387551  0.43801843  1
  O  O294  1  0.05655869  0.58384444  0.68572350  1
  O  O295  1  0.05596162  0.58347510  0.93654703  1
  O  O296  1  0.05679743  0.91698580  0.18589632  1
  O  O297  1  0.05582820  0.91654649  0.43698368  1
  O  O298  1  0.05956056  0.91585292  0.68795932  1
  O  O299  1  0.05920192  0.91641072  0.93708212  1
  O  O300  1  0.55722701  0.24930299  0.18699347  1
  O  O301  1  0.55881625  0.25063580  0.43726819  1
  O  O302  1  0.55691591  0.24965033  0.68599633  1
  O  O303  1  0.55664992  0.24997757  0.93686944  1
  O  O304  1  0.55988816  0.58254363  0.18728919  1
  O  O305  1  0.55993424  0.58190517  0.43783215  1
  O  O306  1  0.55556834  0.58282692  0.68664448  1
  O  O307  1  0.55804885  0.58317792  0.93791126  1
  O  O308  1  0.55923016  0.91745567  0.18818260  1
  O  O309  1  0.55598482  0.91729227  0.43607159  1
  O  O310  1  0.55503335  0.91751930  0.68714752  1
  O  O311  1  0.55519360  0.91709035  0.93690000  1
  O  O312  1  0.43996961  0.08400523  0.06302440  1
  O  O313  1  0.44130765  0.08398872  0.31161095  1
  O  O314  1  0.44456327  0.08421253  0.56264789  1
  O  O315  1  0.44235014  0.08384824  0.81425960  1
  O  O316  1  0.44400434  0.41626384  0.06350772  1
  O  O317  1  0.44389259  0.41601486  0.31318722  1
  O  O318  1  0.44310998  0.41623755  0.56276070  1
  O  O319  1  0.44393510  0.41604914  0.81356719  1
  O  O320  1  0.44496982  0.74988077  0.06326082  1
  O  O321  1  0.44468929  0.74964845  0.31347381  1
  O  O322  1  0.44168873  0.74936050  0.56213533  1
  O  O323  1  0.44240430  0.75055659  0.81221461  1
  O  O324  1  0.94434249  0.08307205  0.06396611  1
  O  O325  1  0.94191045  0.08278389  0.31212129  1
  O  O326  1  0.94307665  0.08355350  0.56373234  1
  O  O327  1  0.94181541  0.08273787  0.81167666  1
  O  O328  1  0.94338748  0.41700722  0.06410318  1
  O  O329  1  0.94091073  0.41709785  0.31264150  1
  O  O330  1  0.94113361  0.41685066  0.56125961  1
  O  O331  1  0.94480421  0.41663083  0.81302061  1
  O  O332  1  0.94030310  0.74965977  0.06249140  1
  O  O333  1  0.94273718  0.75052875  0.31335919  1
  O  O334  1  0.94309624  0.74983372  0.56331909  1
  O  O335  1  0.94272307  0.75033866  0.81374552  1
  O  O336  1  0.19158882  0.08349115  0.06281009  1
  O  O337  1  0.19033455  0.08318729  0.31269975  1
  O  O338  1  0.19267111  0.08340567  0.56135958  1
  O  O339  1  0.19386920  0.08292579  0.81172904  1
  O  O340  1  0.19305399  0.41698085  0.06111528  1
  O  O341  1  0.19063035  0.41628588  0.31319723  1
  O  O342  1  0.19310894  0.41697560  0.56146788  1
  O  O343  1  0.19047013  0.41741142  0.81291125  1
  O  O344  1  0.19379136  0.74985001  0.06128792  1
  O  O345  1  0.19410634  0.75010497  0.31121293  1
  O  O346  1  0.19538616  0.74951630  0.56180025  1
  O  O347  1  0.19410087  0.74978835  0.81189725  1
  O  O348  1  0.69122084  0.08364002  0.06260983  1
  O  O349  1  0.69187929  0.08383488  0.31219143  1
  O  O350  1  0.69009505  0.08369381  0.56225383  1
  O  O351  1  0.69362113  0.08345474  0.81105495  1
  O  O352  1  0.69402708  0.41636662  0.06059067  1
  O  O353  1  0.69527527  0.41575781  0.31157577  1
  O  O354  1  0.69469673  0.41550813  0.56219559  1
  O  O355  1  0.69082616  0.41641950  0.81268751  1
  O  O356  1  0.69106954  0.75017495  0.06176264  1
  O  O357  1  0.69102513  0.75063592  0.31279676  1
  O  O358  1  0.68933156  0.75037664  0.56334433  1
  O  O359  1  0.68957050  0.75055489  0.81233080  1
  O  O360  1  0.30597397  0.24973472  0.18919336  1
  O  O361  1  0.30836247  0.24977220  0.43768702  1
  O  O362  1  0.30826742  0.24996950  0.68708323  1
  O  O363  1  0.30485520  0.25020319  0.93843843  1
  O  O364  1  0.31024561  0.58322798  0.18698255  1
  O  O365  1  0.30659570  0.58274276  0.43861859  1
  O  O366  1  0.30996122  0.58295591  0.68784386  1
  O  O367  1  0.31050935  0.58307750  0.93790124  1
  O  O368  1  0.30630531  0.91733656  0.18807745  1
  O  O369  1  0.30788660  0.91717882  0.43845598  1
  O  O370  1  0.30977705  0.91703956  0.68762046  1
  O  O371  1  0.30824410  0.91658250  0.93733434  1
  O  O372  1  0.80986259  0.24892331  0.18731578  1
  O  O373  1  0.80935768  0.24956373  0.43743604  1
  O  O374  1  0.80922554  0.24970052  0.68769072  1
  O  O375  1  0.81046971  0.25013992  0.93771041  1
  O  O376  1  0.80503651  0.58380186  0.18848434  1
  O  O377  1  0.80529423  0.58373662  0.43920679  1
  O  O378  1  0.80905823  0.58357122  0.68778599  1
  O  O379  1  0.80803812  0.58366525  0.93673046  1
  O  O380  1  0.80589384  0.91728021  0.18893333  1
  O  O381  1  0.80815026  0.91693830  0.43727614  1
  O  O382  1  0.80585360  0.91659660  0.68905181  1
  O  O383  1  0.80893703  0.91647610  0.93730217  1
  O  O384  1  0.23091751  0.24984113  0.03978237  1
  O  O385  1  0.23214862  0.24914702  0.29015946  1
  O  O386  1  0.23259488  0.25041724  0.53740355  1
  O  O387  1  0.23230548  0.24957960  0.78698500  1
  O  O388  1  0.23566237  0.58301102  0.03829056  1
  O  O389  1  0.23525702  0.58330787  0.28738552  1
  O  O390  1  0.23281893  0.58312736  0.54023799  1
  O  O391  1  0.23578028  0.58382447  0.78868505  1
  O  O392  1  0.23318189  0.91756844  0.03781738  1
  O  O393  1  0.23380933  0.91709608  0.29045220  1
  O  O394  1  0.23498712  0.91629912  0.54019619  1
  O  O395  1  0.23437263  0.91669977  0.78793281  1
  O  O396  1  0.73609518  0.25014631  0.03848335  1
  O  O397  1  0.73633618  0.24964141  0.28870557  1
  O  O398  1  0.73411257  0.24984212  0.53786421  1
  O  O399  1  0.73567105  0.24933273  0.78900022  1
  O  O400  1  0.73257919  0.58356367  0.03703073  1
  O  O401  1  0.73157550  0.58333475  0.28993156  1
  O  O402  1  0.73182137  0.58253246  0.54084784  1
  O  O403  1  0.73461661  0.58391293  0.78813831  1
  O  O404  1  0.73431217  0.91606991  0.03795917  1
  O  O405  1  0.73215451  0.91719305  0.29020650  1
  O  O406  1  0.73358753  0.91704721  0.53790287  1
  O  O407  1  0.73375608  0.91728307  0.79150426  1
  O  O408  1  0.26552639  0.08413508  0.21226486  1
  O  O409  1  0.26542241  0.08352490  0.45976276  1
  O  O410  1  0.26597695  0.08340278  0.70911985  1
  O  O411  1  0.26577522  0.08352590  0.96144449  1
  O  O412  1  0.26496402  0.41564673  0.21211956  1
  O  O413  1  0.26491459  0.41670396  0.45884024  1
  O  O414  1  0.26478577  0.41660917  0.71202287  1
  O  O415  1  0.26544409  0.41618295  0.95878769  1
  O  O416  1  0.26703017  0.75066786  0.20917691  1
  O  O417  1  0.26914593  0.74931280  0.46031326  1
  O  O418  1  0.26877887  0.75015045  0.71127161  1
  O  O419  1  0.26702287  0.75059046  0.95976415  1
  O  O420  1  0.76702654  0.08334439  0.21174688  1
  O  O421  1  0.76436267  0.08405090  0.46161092  1
  O  O422  1  0.76774531  0.08332431  0.70989599  1
  O  O423  1  0.76620517  0.08361754  0.96246428  1
  O  O424  1  0.76896114  0.41662540  0.21004007  1
  O  O425  1  0.76818288  0.41666993  0.46039708  1
  O  O426  1  0.76584584  0.41594729  0.71258714  1
  O  O427  1  0.76621646  0.41710017  0.95837511  1
  O  O428  1  0.76423787  0.75022182  0.21103570  1
  O  O429  1  0.76363534  0.74963232  0.46231629  1
  O  O430  1  0.76397333  0.75055786  0.71172052  1
  O  O431  1  0.76551833  0.74980230  0.96095594  1
  O  O432  1  0.01762433  0.08344171  0.16542706  1
  O  O433  1  0.01650029  0.08379671  0.41308186  1
  O  O434  1  0.01536520  0.08317256  0.66597559  1
  O  O435  1  0.01543791  0.08353365  0.91301504  1
  O  O436  1  0.01563021  0.41631156  0.16627369  1
  O  O437  1  0.01586851  0.41610419  0.41297058  1
  O  O438  1  0.01461082  0.41684768  0.66274340  1
  O  O439  1  0.01773900  0.41635881  0.91520344  1
  O  O440  1  0.01502291  0.75063422  0.16315898  1
  O  O441  1  0.01584270  0.75081351  0.41531383  1
  O  O442  1  0.01621649  0.74921004  0.66536089  1
  O  O443  1  0.01515293  0.74986455  0.91580176  1
  O  O444  1  0.51587519  0.08340193  0.16276530  1
  O  O445  1  0.51685165  0.08354583  0.41164996  1
  O  O446  1  0.51771946  0.08380750  0.66479107  1
  O  O447  1  0.51491402  0.08346113  0.91615597  1
  O  O448  1  0.51702299  0.41641056  0.16540547  1
  O  O449  1  0.51676372  0.41600001  0.41504571  1
  O  O450  1  0.51587017  0.41631114  0.66481118  1
  O  O451  1  0.51792933  0.41708317  0.91493025  1
  O  O452  1  0.51909787  0.74946597  0.16426063  1
  O  O453  1  0.51819859  0.75049418  0.41462586  1
  O  O454  1  0.51583656  0.74982800  0.66317895  1
  O  O455  1  0.51680699  0.74991257  0.91331160  1
  O  O456  1  0.48384288  0.24996000  0.08540037  1
  O  O457  1  0.48360422  0.24940655  0.33671553  1
  O  O458  1  0.48295463  0.24961520  0.58480985  1
  O  O459  1  0.48332869  0.24986407  0.83522390  1
  O  O460  1  0.48507386  0.58337004  0.08666964  1
  O  O461  1  0.48616808  0.58297166  0.33679648  1
  O  O462  1  0.48215550  0.58342937  0.58515298  1
  O  O463  1  0.48345329  0.58343758  0.83705380  1
  O  O464  1  0.48517230  0.91684525  0.08708564  1
  O  O465  1  0.48489878  0.91699770  0.33305954  1
  O  O466  1  0.48194676  0.91715582  0.58519743  1
  O  O467  1  0.48130523  0.91679337  0.83551564  1
  O  O468  1  0.98368541  0.24949934  0.08703137  1
  O  O469  1  0.98377821  0.24983547  0.33754793  1
  O  O470  1  0.98320612  0.25014716  0.58673867  1
  O  O471  1  0.98383552  0.25025055  0.83670497  1
  O  O472  1  0.98292209  0.58273583  0.08511147  1
  O  O473  1  0.98429058  0.58352565  0.33733425  1
  O  O474  1  0.98228370  0.58320296  0.58474543  1
  O  O475  1  0.98150526  0.58327632  0.83565772  1
  O  O476  1  0.98428413  0.91745213  0.08408107  1
  O  O477  1  0.98181436  0.91717225  0.33539111  1
  O  O478  1  0.98436139  0.91708402  0.58773245  1
  O  O479  1  0.98357456  0.91586232  0.83729743  1
  O  O480  1  0.08776540  0.31354187  0.07754637  1
  O  O481  1  0.08737003  0.31525826  0.32786490  1
  O  O482  1  0.08714372  0.31481966  0.57688050  1
  O  O483  1  0.08735957  0.31611971  0.82760031  1
  O  O484  1  0.08643483  0.64849230  0.07684611  1
  O  O485  1  0.08816350  0.64793406  0.32787591  1
  O  O486  1  0.08640705  0.64858411  0.57605711  1
  O  O487  1  0.08554535  0.64767896  0.82667718  1
  O  O488  1  0.08792612  0.98342160  0.07716846  1
  O  O489  1  0.08568171  0.98239031  0.32781909  1
  O  O490  1  0.08817581  0.98122800  0.57807580  1
  O  O491  1  0.08725730  0.98120362  0.82678975  1
  O  O492  1  0.58832307  0.31370415  0.07789802  1
  O  O493  1  0.58737123  0.31436041  0.32695336  1
  O  O494  1  0.58731133  0.31393337  0.57613878  1
  O  O495  1  0.58683193  0.31587370  0.82770341  1
  O  O496  1  0.58861678  0.64899334  0.07753208  1
  O  O497  1  0.58947465  0.64907969  0.32880059  1
  O  O498  1  0.58632872  0.64864863  0.57776516  1
  O  O499  1  0.58700958  0.64839670  0.82801526  1
  O  O500  1  0.58843911  0.98251051  0.07831580  1
  O  O501  1  0.58885199  0.98225590  0.32708999  1
  O  O502  1  0.58592290  0.98222518  0.57776962  1
  O  O503  1  0.58518673  0.98157912  0.82737018  1
  O  O504  1  0.41196568  0.01863138  0.17311363  1
  O  O505  1  0.41302282  0.01937077  0.42178907  1
  O  O506  1  0.41357083  0.01919740  0.67178473  1
  O  O507  1  0.41128571  0.01741057  0.92308080  1
  O  O508  1  0.41262946  0.35243909  0.17279861  1
  O  O509  1  0.41303469  0.35013547  0.42203966  1
  O  O510  1  0.41225226  0.35072401  0.67183386  1
  O  O511  1  0.41412954  0.35191869  0.92334407  1
  O  O512  1  0.41560648  0.68371707  0.17254688  1
  O  O513  1  0.41448720  0.68488122  0.42327490  1
  O  O514  1  0.41217478  0.68461601  0.67224508  1
  O  O515  1  0.41310359  0.68515029  0.92189353  1
  O  O516  1  0.91318418  0.01914913  0.17367144  1
  O  O517  1  0.91296661  0.01805449  0.42221979  1
  O  O518  1  0.91075574  0.01960684  0.67313838  1
  O  O519  1  0.91219556  0.01780438  0.92163674  1
  O  O520  1  0.91215987  0.35034597  0.17273797  1
  O  O521  1  0.91217835  0.35068850  0.42226195  1
  O  O522  1  0.91122480  0.35160112  0.67102388  1
  O  O523  1  0.91390863  0.35153159  0.92220152  1
  O  O524  1  0.91172944  0.68488668  0.17270115  1
  O  O525  1  0.91178003  0.68625913  0.42271015  1
  O  O526  1  0.91237446  0.68374561  0.67196840  1
  O  O527  1  0.91092778  0.68511126  0.92281717  1
  O  O528  1  0.16178239  0.01929088  0.20214007  1
  O  O529  1  0.16124452  0.01897371  0.45185201  1
  O  O530  1  0.16266173  0.01744504  0.70289297  1
  O  O531  1  0.16222587  0.01834355  0.95283050  1
  O  O532  1  0.16152271  0.35004290  0.20395728  1
  O  O533  1  0.16062935  0.35205501  0.45254598  1
  O  O534  1  0.16111186  0.35136240  0.70337068  1
  O  O535  1  0.16133558  0.35087234  0.95253108  1
  O  O536  1  0.16335478  0.68522040  0.20177122  1
  O  O537  1  0.16521666  0.68377012  0.45263369  1
  O  O538  1  0.16481598  0.68564594  0.70204505  1
  O  O539  1  0.16339046  0.68548816  0.95165527  1
  O  O540  1  0.66325512  0.01767040  0.20250656  1
  O  O541  1  0.66014787  0.01999227  0.45205077  1
  O  O542  1  0.66363626  0.01831548  0.70155199  1
  O  O543  1  0.66268299  0.01864359  0.95238757  1
  O  O544  1  0.66534697  0.35153132  0.20184439  1
  O  O545  1  0.66492613  0.35068091  0.45223797  1
  O  O546  1  0.66232686  0.35114629  0.70266117  1
  O  O547  1  0.66219315  0.35228340  0.95122421  1
  O  O548  1  0.66047313  0.68530092  0.20324390  1
  O  O549  1  0.66035206  0.68364208  0.45415685  1
  O  O550  1  0.66008933  0.68572100  0.70237082  1
  O  O551  1  0.66184485  0.68408824  0.95204713  1
  O  O552  1  0.33492832  0.31435790  0.04815116  1
  O  O553  1  0.33644202  0.31364867  0.29912133  1
  O  O554  1  0.33656456  0.31509946  0.54778315  1
  O  O555  1  0.33571699  0.31477305  0.79770080  1
  O  O556  1  0.33972161  0.64782645  0.04795543  1
  O  O557  1  0.33889410  0.64826850  0.29700227  1
  O  O558  1  0.33709205  0.64842474  0.54775490  1
  O  O559  1  0.33957374  0.64935856  0.79719562  1
  O  O560  1  0.33664335  0.98310115  0.04691662  1
  O  O561  1  0.33702438  0.98340025  0.29703515  1
  O  O562  1  0.33893374  0.98107897  0.54821972  1
  O  O563  1  0.33829921  0.98108118  0.79793382  1
  O  O564  1  0.83983797  0.31522281  0.04743601  1
  O  O565  1  0.84043169  0.31405901  0.29695474  1
  O  O566  1  0.83759875  0.31592744  0.54720329  1
  O  O567  1  0.83983118  0.31345117  0.79788878  1
  O  O568  1  0.83557633  0.64968739  0.04697100  1
  O  O569  1  0.83522988  0.64819481  0.29834455  1
  O  O570  1  0.83575787  0.64755186  0.54907578  1
  O  O571  1  0.83839662  0.64857617  0.79775482  1
  O  O572  1  0.83805305  0.98029336  0.04762544  1
  O  O573  1  0.83607585  0.98293583  0.29833756  1
  O  O574  1  0.83732246  0.98178945  0.54703919  1
  O  O575  1  0.83776080  0.98281104  0.79772975  1
  O  O576  1  0.41207812  0.14862880  0.17340814  1
  O  O577  1  0.41347464  0.14944953  0.42190482  1
  O  O578  1  0.41396694  0.14939393  0.67194678  1
  O  O579  1  0.41035467  0.14756103  0.92378959  1
  O  O580  1  0.41381715  0.48279786  0.17238273  1
  O  O581  1  0.41270997  0.48034151  0.42250652  1
  O  O582  1  0.41205092  0.48123225  0.67185812  1
  O  O583  1  0.41407191  0.48211074  0.92263831  1
  O  O584  1  0.41513983  0.81399279  0.17292714  1
  O  O585  1  0.41382251  0.81486180  0.42266692  1
  O  O586  1  0.41210111  0.81491166  0.67194939  1
  O  O587  1  0.41337669  0.81541693  0.92237640  1
  O  O588  1  0.91371133  0.14899209  0.17319291  1
  O  O589  1  0.91263910  0.14823258  0.42184635  1
  O  O590  1  0.91206500  0.14970073  0.67250104  1
  O  O591  1  0.91185021  0.14821739  0.92123692  1
  O  O592  1  0.91121323  0.48047955  0.17374361  1
  O  O593  1  0.91184283  0.48079150  0.42306545  1
  O  O594  1  0.91102067  0.48195707  0.67088137  1
  O  O595  1  0.91387597  0.48173967  0.92229034  1
  O  O596  1  0.91118648  0.81509136  0.17213920  1
  O  O597  1  0.91209811  0.81653867  0.42229917  1
  O  O598  1  0.91232914  0.81396857  0.67286211  1
  O  O599  1  0.91128223  0.81530130  0.92295734  1
  O  O600  1  0.08703705  0.18347741  0.07792667  1
  O  O601  1  0.08770612  0.18516197  0.32787859  1
  O  O602  1  0.08692264  0.18486796  0.57690264  1
  O  O603  1  0.08785397  0.18602681  0.82685455  1
  O  O604  1  0.08709817  0.51839483  0.07762697  1
  O  O605  1  0.08750199  0.51747061  0.32852597  1
  O  O606  1  0.08653759  0.51872636  0.57622926  1
  O  O607  1  0.08515953  0.51752019  0.82715030  1
  O  O608  1  0.08869147  0.85326168  0.07621968  1
  O  O609  1  0.08568117  0.85221319  0.32730788  1
  O  O610  1  0.08752649  0.85107863  0.57758293  1
  O  O611  1  0.08763160  0.85116585  0.82699235  1
  O  O612  1  0.58709270  0.18347447  0.07772076  1
  O  O613  1  0.58739301  0.18428493  0.32765932  1
  O  O614  1  0.58695706  0.18396487  0.57675680  1
  O  O615  1  0.58737596  0.18559461  0.82741739  1
  O  O616  1  0.58907366  0.51885050  0.07693079  1
  O  O617  1  0.59029569  0.51885518  0.32727735  1
  O  O618  1  0.58634636  0.51867578  0.57687643  1
  O  O619  1  0.58699319  0.51811311  0.82790350  1
  O  O620  1  0.58880655  0.85204540  0.07851923  1
  O  O621  1  0.58900420  0.85208486  0.32756836  1
  O  O622  1  0.58576051  0.85209027  0.57801283  1
  O  O623  1  0.58508047  0.85141013  0.82764035  1
  O  O624  1  0.33456684  0.18423544  0.04777969  1
  O  O625  1  0.33620176  0.18372633  0.29849526  1
  O  O626  1  0.33640344  0.18514344  0.54807236  1
  O  O627  1  0.33597617  0.18474056  0.79717897  1
  O  O628  1  0.33931304  0.51775617  0.04785439  1
  O  O629  1  0.33856817  0.51808293  0.29720715  1
  O  O630  1  0.33687593  0.51847068  0.54838147  1
  O  O631  1  0.33969059  0.51921702  0.79819322  1
  O  O632  1  0.33708922  0.85295028  0.04776039  1
  O  O633  1  0.33821704  0.85313334  0.29704192  1
  O  O634  1  0.33897275  0.85089305  0.54719440  1
  O  O635  1  0.33801964  0.85095816  0.79756622  1
  O  O636  1  0.83993091  0.18527842  0.04788650  1
  O  O637  1  0.83968577  0.18387136  0.29734383  1
  O  O638  1  0.83831523  0.18590136  0.54779847  1
  O  O639  1  0.83912302  0.18337390  0.79704837  1
  O  O640  1  0.83655405  0.51950052  0.04685175  1
  O  O641  1  0.83560438  0.51808929  0.29763587  1
  O  O642  1  0.83619727  0.51756096  0.54797889  1
  O  O643  1  0.83826901  0.51854847  0.79792243  1
  O  O644  1  0.83731341  0.85001444  0.04691817  1
  O  O645  1  0.83634601  0.85288649  0.29867143  1
  O  O646  1  0.83690759  0.85162852  0.54734690  1
  O  O647  1  0.83796377  0.85276474  0.79844882  1
  O  O648  1  0.16165434  0.14932051  0.20304414  1
  O  O649  1  0.16148062  0.14906516  0.45231162  1
  O  O650  1  0.16175977  0.14782989  0.70287744  1
  O  O651  1  0.16201288  0.14854887  0.95307167  1
  O  O652  1  0.16146880  0.48036109  0.20285481  1
  O  O653  1  0.16112172  0.48225606  0.45251568  1
  O  O654  1  0.16134430  0.48167001  0.70285579  1
  O  O655  1  0.16143489  0.48104439  0.95147845  1
  O  O656  1  0.16291027  0.81540356  0.20239079  1
  O  O657  1  0.16508543  0.81393581  0.45219024  1
  O  O658  1  0.16520528  0.81586098  0.70240056  1
  O  O659  1  0.16318849  0.81585630  0.95238902  1
  O  O660  1  0.66293903  0.14770436  0.20176033  1
  O  O661  1  0.66115896  0.15013641  0.45246903  1
  O  O662  1  0.66371089  0.14822275  0.70128828  1
  O  O663  1  0.66285239  0.14873553  0.95243429  1
  O  O664  1  0.66489496  0.48167592  0.20257694  1
  O  O665  1  0.66381295  0.48086186  0.45338085  1
  O  O666  1  0.66248536  0.48132166  0.70254959  1
  O  O667  1  0.66212730  0.48234567  0.95174676  1
  O  O668  1  0.66078356  0.81563019  0.20294936  1
  O  O669  1  0.65974631  0.81392324  0.45286903  1
  O  O670  1  0.66022355  0.81575281  0.70251289  1
  O  O671  1  0.66137159  0.81405482  0.95145822  1
