# generated using pymatgen
data_Na2MnFe(PO4)2
_symmetry_space_group_name_H-M   'P 1'
_cell_length_a   21.08809515
_cell_length_b   18.94099553
_cell_length_c   20.04694118
_cell_angle_alpha   89.99982392
_cell_angle_beta   89.99935272
_cell_angle_gamma   89.99984883
_symmetry_Int_Tables_number   1
_chemical_formula_structural   Na2MnFe(PO4)2
_chemical_formula_sum   'Na96 Mn48 Fe48 P96 O384'
_cell_volume   8007.34000979
_cell_formula_units_Z   48
loop_
 _symmetry_equiv_pos_site_id
 _symmetry_equiv_pos_as_xyz
  1  'x, y, z'
loop_
 _atom_site_type_symbol
 _atom_site_label
 _atom_site_symmetry_multiplicity
 _atom_site_fract_x
 _atom_site_fract_y
 _atom_site_fract_z
 _atom_site_occupancy
  Na  Na0  1  -0.00106176  -0.00014873  0.00036642  1
  Na  Na1  1  -0.00198679  -0.00020978  0.24960825  1
  Na  Na2  1  0.00055988  0.00049778  0.49981755  1
  Na  Na3  1  0.00115666  0.00036374  0.75007783  1
  Na  Na4  1  0.00032156  0.33346782  0.00049381  1
  Na  Na5  1  -0.00021978  0.33387978  0.24965587  1
  Na  Na6  1  -0.00285957  0.33271699  0.49875215  1
  Na  Na7  1  0.00062099  0.33428028  0.75036032  1
  Na  Na8  1  0.00040791  0.66646512  0.00116988  1
  Na  Na9  1  -0.00091012  0.66611710  0.25031756  1
  Na  Na10  1  0.00164859  0.66744540  0.49955264  1
  Na  Na11  1  0.00171688  0.66697878  0.74940267  1
  Na  Na12  1  0.49933263  0.00055790  -0.00034464  1
  Na  Na13  1  0.49977532  0.00054549  0.24952923  1
  Na  Na14  1  0.50012705  0.00046659  0.49959322  1
  Na  Na15  1  0.49772345  -0.00069545  0.75111100  1
  Na  Na16  1  0.49685253  0.33224385  0.00069842  1
  Na  Na17  1  0.49937461  0.33341278  0.24959102  1
  Na  Na18  1  0.49825667  0.33245828  0.49979660  1
  Na  Na19  1  0.49782317  0.33318510  0.75020562  1
  Na  Na20  1  0.49871168  0.66591185  0.00052488  1
  Na  Na21  1  0.50139642  0.66648672  0.25089605  1
  Na  Na22  1  0.50232874  0.66752843  0.49887751  1
  Na  Na23  1  0.49832463  0.66602331  0.74984650  1
  Na  Na24  1  0.25267557  0.00151433  0.12635762  1
  Na  Na25  1  0.24953014  -0.00014189  0.37372498  1
  Na  Na26  1  0.25107271  0.00046729  0.62530993  1
  Na  Na27  1  0.25051136  -0.00010605  0.87443832  1
  Na  Na28  1  0.25083219  0.33352140  0.12417884  1
  Na  Na29  1  0.24954958  0.33346156  0.37511993  1
  Na  Na30  1  0.25109407  0.33408995  0.62564228  1
  Na  Na31  1  0.25161677  0.33379165  0.87502821  1
  Na  Na32  1  0.25061023  0.66627455  0.12540248  1
  Na  Na33  1  0.24773689  0.66597275  0.37445729  1
  Na  Na34  1  0.24792213  0.66616929  0.62457277  1
  Na  Na35  1  0.25256201  0.66762022  0.87537514  1
  Na  Na36  1  0.75027871  0.00094598  0.12572009  1
  Na  Na37  1  0.74934160  -0.00035734  0.37444137  1
  Na  Na38  1  0.75145865  0.00055663  0.62550684  1
  Na  Na39  1  0.74961865  -0.00017316  0.87470607  1
  Na  Na40  1  0.75133664  0.33375245  0.12485594  1
  Na  Na41  1  0.75276504  0.33382029  0.37573987  1
  Na  Na42  1  0.75241055  0.33385822  0.62426792  1
  Na  Na43  1  0.75057276  0.33322868  0.87452803  1
  Na  Na44  1  0.74971961  0.66651869  0.12435632  1
  Na  Na45  1  0.75044859  0.66681120  0.37588657  1
  Na  Na46  1  0.74837367  0.66601796  0.62437082  1
  Na  Na47  1  0.74958357  0.66694130  0.87559683  1
  Na  Na48  1  0.00017273  0.16644631  0.00171075  1
  Na  Na49  1  -0.00071537  0.16666441  0.24877822  1
  Na  Na50  1  -0.00029290  0.16697887  0.49939755  1
  Na  Na51  1  0.00021178  0.16695031  0.75032027  1
  Na  Na52  1  0.00051616  0.49928155  0.00070185  1
  Na  Na53  1  -0.00030929  0.50010484  0.25012206  1
  Na  Na54  1  0.00005101  0.49937853  0.49925441  1
  Na  Na55  1  0.00050267  0.49916063  0.74965151  1
  Na  Na56  1  -0.00098805  0.83411903  -0.00023478  1
  Na  Na57  1  -0.00180961  0.83317726  0.25074189  1
  Na  Na58  1  -0.00058213  0.83340941  0.49982395  1
  Na  Na59  1  0.00200419  0.83297113  0.74971332  1
  Na  Na60  1  0.49790960  0.16754022  0.00042160  1
  Na  Na61  1  0.50198949  0.16593627  0.24906840  1
  Na  Na62  1  0.50064790  0.16651516  0.50010549  1
  Na  Na63  1  0.49748432  0.16772540  0.75006151  1
  Na  Na64  1  0.49650174  0.50065369  0.00132048  1
  Na  Na65  1  0.49920174  0.50043748  0.25020490  1
  Na  Na66  1  0.50188792  0.49923261  0.49882833  1
  Na  Na67  1  0.49702882  0.50057955  0.74978458  1
  Na  Na68  1  0.50094887  0.83274782  -0.00066495  1
  Na  Na69  1  0.49934453  0.83366313  0.25070081  1
  Na  Na70  1  0.49881552  0.83336861  0.49927036  1
  Na  Na71  1  0.49928760  0.83315390  0.75126180  1
  Na  Na72  1  0.25134565  0.16635447  0.12481311  1
  Na  Na73  1  0.24877565  0.16767015  0.37418147  1
  Na  Na74  1  0.25192817  0.16582383  0.62574440  1
  Na  Na75  1  0.25267694  0.16609442  0.87459810  1
  Na  Na76  1  0.25069219  0.49957408  0.12461516  1
  Na  Na77  1  0.24832093  0.50008161  0.37466826  1
  Na  Na78  1  0.24892698  0.49962348  0.62549419  1
  Na  Na79  1  0.25157340  0.49903985  0.87554680  1
  Na  Na80  1  0.25232643  0.83243742  0.12649439  1
  Na  Na81  1  0.24935767  0.83335480  0.37454488  1
  Na  Na82  1  0.24994367  0.83293896  0.62405503  1
  Na  Na83  1  0.24982270  0.83407743  0.87496283  1
  Na  Na84  1  0.75005268  0.16612174  0.12516889  1
  Na  Na85  1  0.74943790  0.16701937  0.37537808  1
  Na  Na86  1  0.75001932  0.16751356  0.62420150  1
  Na  Na87  1  0.74997631  0.16659258  0.87507946  1
  Na  Na88  1  0.75104052  0.49969573  0.12513096  1
  Na  Na89  1  0.75185042  0.49975860  0.37531238  1
  Na  Na90  1  0.75036963  0.50017567  0.62469292  1
  Na  Na91  1  0.75148587  0.49867364  0.87468576  1
  Na  Na92  1  0.74988069  0.83300805  0.12473288  1
  Na  Na93  1  0.75198215  0.83240259  0.37528290  1
  Na  Na94  1  0.75109910  0.83282037  0.62551389  1
  Na  Na95  1  0.74871644  0.83385283  0.87489280  1
  Mn  Mn96  1  0.10755430  0.08304731  0.12284692  1
  Mn  Mn97  1  0.60885619  0.41586448  0.37239684  1
  Mn  Mn98  1  0.39224508  0.58321573  0.37728218  1
  Mn  Mn99  1  0.89281127  0.58342113  0.62744327  1
  Mn  Mn100  1  0.60709887  0.08420421  0.87302313  1
  Mn  Mn101  1  0.14284857  0.58379499  0.74815567  1
  Mn  Mn102  1  0.64150013  0.58270714  0.99787035  1
  Mn  Mn103  1  0.14322400  0.58341939  0.99766536  1
  Mn  Mn104  1  0.35864628  0.75046489  0.00363152  1
  Mn  Mn105  1  0.85809787  0.74932448  0.75195445  1
  Mn  Mn106  1  0.89216431  0.91667371  0.37753006  1
  Mn  Mn107  1  0.89276869  0.91687257  0.87717149  1
  Mn  Mn108  1  0.85825882  0.08386678  0.75257088  1
  Mn  Mn109  1  0.35688067  0.74949042  0.50220928  1
  Mn  Mn110  1  0.35793686  0.08346213  0.50141927  1
  Mn  Mn111  1  0.39181609  0.58369966  0.62610950  1
  Mn  Mn112  1  0.60686758  0.08260461  0.62337513  1
  Mn  Mn113  1  0.10880393  0.75022125  0.87279729  1
  Mn  Mn114  1  0.14307844  0.24955226  0.74780655  1
  Mn  Mn115  1  0.60745117  0.41705639  0.62312822  1
  Mn  Mn116  1  0.64168500  0.91713819  0.74696800  1
  Mn  Mn117  1  0.64241238  0.91642913  0.49882932  1
  Mn  Mn118  1  0.85743953  0.75023487  0.00218933  1
  Mn  Mn119  1  0.14351309  0.24943045  0.99774706  1
  Mn  Mn120  1  0.89259412  0.58337705  0.87698100  1
  Mn  Mn121  1  0.60735017  0.41665100  0.12299569  1
  Mn  Mn122  1  0.64193577  0.25013539  0.99792169  1
  Mn  Mn123  1  0.64126294  0.58227154  0.74788442  1
  Mn  Mn124  1  0.64248931  0.91641625  0.24689413  1
  Mn  Mn125  1  0.39156967  0.91664473  0.87800277  1
  Mn  Mn126  1  0.39230827  0.91703548  0.37706885  1
  Mn  Mn127  1  0.64257173  0.25061977  0.49807122  1
  Mn  Mn128  1  0.89203177  0.24973651  0.12752996  1
  Mn  Mn129  1  0.10671238  0.41635188  0.37206177  1
  Mn  Mn130  1  0.39224440  0.24985489  0.37651704  1
  Mn  Mn131  1  0.14256075  0.91707888  0.99900478  1
  Mn  Mn132  1  0.35719825  0.41710327  0.50198922  1
  Mn  Mn133  1  0.60874911  0.75071873  0.37253176  1
  Mn  Mn134  1  0.89257196  0.24964072  0.87722005  1
  Mn  Mn135  1  0.14196190  0.91662343  0.49758116  1
  Mn  Mn136  1  0.60688836  0.41647540  0.87327467  1
  Mn  Mn137  1  0.14246308  0.91677134  0.24703864  1
  Mn  Mn138  1  0.85816572  0.08309176  0.50208413  1
  Mn  Mn139  1  0.60711732  0.74909574  0.87260096  1
  Mn  Mn140  1  0.10762290  0.75037892  0.12337687  1
  Mn  Mn141  1  0.14161839  0.25008253  0.49805287  1
  Mn  Mn142  1  0.10820869  0.08410885  0.62258621  1
  Mn  Mn143  1  0.89214942  0.58383332  0.12752025  1
  Fe  Fe144  1  0.39221237  0.24963880  0.62703822  1
  Fe  Fe145  1  0.39173887  0.58285410  0.87699236  1
  Fe  Fe146  1  0.35765488  0.08342392  0.00245097  1
  Fe  Fe147  1  0.64222372  0.25042877  0.74805151  1
  Fe  Fe148  1  0.10781858  0.74988925  0.62293665  1
  Fe  Fe149  1  0.64361017  0.58329144  0.49848426  1
  Fe  Fe150  1  0.35772750  0.08400265  0.25207779  1
  Fe  Fe151  1  0.35736510  0.08287138  0.75190224  1
  Fe  Fe152  1  0.64372476  0.58259351  0.24861351  1
  Fe  Fe153  1  0.85693484  0.74955267  0.25170268  1
  Fe  Fe154  1  0.39275856  0.58387574  0.12833179  1
  Fe  Fe155  1  0.85733136  0.08327076  0.00170254  1
  Fe  Fe156  1  0.14139357  0.58296244  0.49785277  1
  Fe  Fe157  1  0.10749870  0.41669183  0.12341676  1
  Fe  Fe158  1  0.14250637  0.25054014  0.24828029  1
  Fe  Fe159  1  0.39198393  0.91645587  0.62674955  1
  Fe  Fe160  1  0.10718244  0.08340663  0.37258764  1
  Fe  Fe161  1  0.89271636  0.24960813  0.62724935  1
  Fe  Fe162  1  0.35712940  0.41621006  0.00251684  1
  Fe  Fe163  1  0.89264368  0.24983325  0.37582399  1
  Fe  Fe164  1  0.35719958  0.74982332  0.75061958  1
  Fe  Fe165  1  0.60715866  0.75025377  0.12429539  1
  Fe  Fe166  1  0.35758888  0.74931975  0.25205107  1
  Fe  Fe167  1  0.35715150  0.41714843  0.75200199  1
  Fe  Fe168  1  0.35644926  0.41665668  0.25140339  1
  Fe  Fe169  1  0.39274875  0.24974889  0.12802444  1
  Fe  Fe170  1  0.39240524  0.25069443  0.87688354  1
  Fe  Fe171  1  0.10786442  0.41609745  0.87348455  1
  Fe  Fe172  1  0.89263419  0.58349347  0.37676139  1
  Fe  Fe173  1  0.64250121  0.91714564  0.99931290  1
  Fe  Fe174  1  0.85768353  0.41676465  0.25120590  1
  Fe  Fe175  1  0.89348827  0.91692862  0.62699274  1
  Fe  Fe176  1  0.85777019  0.74965953  0.50264801  1
  Fe  Fe177  1  0.10625641  0.75036127  0.37263469  1
  Fe  Fe178  1  0.10709440  0.41663285  0.62343480  1
  Fe  Fe179  1  0.64344704  0.25081644  0.24862197  1
  Fe  Fe180  1  0.39353170  0.91653729  0.12661351  1
  Fe  Fe181  1  0.14339549  0.91662539  0.74811746  1
  Fe  Fe182  1  0.10824492  0.08370452  0.87393197  1
  Fe  Fe183  1  0.85641112  0.08381582  0.25211966  1
  Fe  Fe184  1  0.85776632  0.41662721  0.75171137  1
  Fe  Fe185  1  0.60801561  0.08356268  0.37302451  1
  Fe  Fe186  1  0.85770566  0.41740938  0.50230535  1
  Fe  Fe187  1  0.89116382  0.91649401  0.12633367  1
  Fe  Fe188  1  0.85821697  0.41627635  0.00150160  1
  Fe  Fe189  1  0.14255557  0.58265923  0.24833533  1
  Fe  Fe190  1  0.60693077  0.08287050  0.12313427  1
  Fe  Fe191  1  0.60679045  0.75025387  0.62374017  1
  P  P192  1  0.05491503  0.25088283  0.11127539  1
  P  P193  1  0.05256641  0.24953932  0.35894660  1
  P  P194  1  0.05196950  0.25115781  0.61009698  1
  P  P195  1  0.05419596  0.24973591  0.86059598  1
  P  P196  1  0.05497202  0.58247950  0.11146135  1
  P  P197  1  0.05359849  0.58387707  0.36037307  1
  P  P198  1  0.05433323  0.58293448  0.60949127  1
  P  P199  1  0.05382423  0.58228141  0.86015779  1
  P  P200  1  0.05130150  0.91660637  0.11024573  1
  P  P201  1  0.05348478  0.91666682  0.35977089  1
  P  P202  1  0.05393206  0.91636903  0.61107772  1
  P  P203  1  0.05490576  0.91803676  0.85965013  1
  P  P204  1  0.55345358  0.24958183  0.11147395  1
  P  P205  1  0.55436515  0.24949219  0.35902715  1
  P  P206  1  0.55278806  0.25022078  0.61122686  1
  P  P207  1  0.55210308  0.25038483  0.85963490  1
  P  P208  1  0.55339407  0.58376198  0.11192693  1
  P  P209  1  0.55603408  0.58303287  0.36027736  1
  P  P210  1  0.55368743  0.58406902  0.60895441  1
  P  P211  1  0.55094811  0.58241307  0.86015971  1
  P  P212  1  0.55275179  0.91673540  0.10978988  1
  P  P213  1  0.55398753  0.91760668  0.35981845  1
  P  P214  1  0.55116135  0.91574545  0.61018193  1
  P  P215  1  0.55427279  0.91711860  0.86138942  1
  P  P216  1  0.44589565  0.08330875  0.13929310  1
  P  P217  1  0.44719747  0.08401321  0.38864037  1
  P  P218  1  0.44540561  0.08303368  0.64047588  1
  P  P219  1  0.44425953  0.08437368  0.88972383  1
  P  P220  1  0.44441079  0.41656829  0.13988960  1
  P  P221  1  0.44564528  0.41654867  0.38865811  1
  P  P222  1  0.44552604  0.41638689  0.64018059  1
  P  P223  1  0.44422911  0.41668855  0.88983242  1
  P  P224  1  0.44750939  0.75023239  0.14106106  1
  P  P225  1  0.44559962  0.74962204  0.38904535  1
  P  P226  1  0.44689831  0.75043638  0.64005515  1
  P  P227  1  0.44471244  0.74906457  0.88898743  1
  P  P228  1  0.94408193  0.08247570  0.13961109  1
  P  P229  1  0.94662928  0.08420573  0.38827453  1
  P  P230  1  0.94689709  0.08346855  0.63995950  1
  P  P231  1  0.94794313  0.08356596  0.89099580  1
  P  P232  1  0.94604229  0.41666798  0.13969964  1
  P  P233  1  0.94405236  0.41688436  0.38872459  1
  P  P234  1  0.94609062  0.41613029  0.63927617  1
  P  P235  1  0.94679222  0.41646512  0.88963075  1
  P  P236  1  0.94562450  0.75076239  0.14087844  1
  P  P237  1  0.94531991  0.74891887  0.38941243  1
  P  P238  1  0.94736266  0.75048485  0.63883053  1
  P  P239  1  0.94748078  0.74990552  0.89013410  1
  P  P240  1  0.19658016  0.08441239  0.23597657  1
  P  P241  1  0.19607346  0.08354535  0.48374603  1
  P  P242  1  0.19708407  0.08269734  0.73640381  1
  P  P243  1  0.19813933  0.08322185  0.98473874  1
  P  P244  1  0.19657351  0.41646202  0.23472347  1
  P  P245  1  0.19450986  0.41698494  0.48576638  1
  P  P246  1  0.19618157  0.41647413  0.73599762  1
  P  P247  1  0.19665899  0.41635680  0.98570477  1
  P  P248  1  0.19657657  0.74912270  0.23636056  1
  P  P249  1  0.19404056  0.74919773  0.48485435  1
  P  P250  1  0.19740012  0.75087702  0.73440817  1
  P  P251  1  0.19758643  0.75035240  0.98556646  1
  P  P252  1  0.69568035  0.08450654  0.23565257  1
  P  P253  1  0.69607257  0.08315271  0.48467450  1
  P  P254  1  0.69650353  0.08481335  0.73496197  1
  P  P255  1  0.69625261  0.08262934  0.98637428  1
  P  P256  1  0.69836069  0.41650945  0.23519642  1
  P  P257  1  0.69814578  0.41727042  0.48537659  1
  P  P258  1  0.69765104  0.41544719  0.73487369  1
  P  P259  1  0.69797678  0.41641429  0.98506403  1
  P  P260  1  0.69757755  0.74890880  0.23460587  1
  P  P261  1  0.69678848  0.74985412  0.48660598  1
  P  P262  1  0.69574279  0.74959058  0.73418416  1
  P  P263  1  0.69456804  0.75091354  0.98647874  1
  P  P264  1  0.30594728  0.24983517  0.01450960  1
  P  P265  1  0.30333772  0.25042709  0.26356088  1
  P  P266  1  0.30355805  0.25001403  0.51553235  1
  P  P267  1  0.30555770  0.25025445  0.76435442  1
  P  P268  1  0.30572795  0.58240480  0.01517967  1
  P  P269  1  0.30344393  0.58284759  0.26396115  1
  P  P270  1  0.30088768  0.58322961  0.51461278  1
  P  P271  1  0.30402898  0.58355417  0.76509935  1
  P  P272  1  0.30408149  0.91774171  0.01652503  1
  P  P273  1  0.30548107  0.91664649  0.26359995  1
  P  P274  1  0.30362648  0.91677366  0.51527594  1
  P  P275  1  0.30386592  0.91598701  0.76355521  1
  P  P276  1  0.80368653  0.24979244  0.01495638  1
  P  P277  1  0.80302888  0.24983727  0.26504537  1
  P  P278  1  0.80583864  0.25057793  0.51422472  1
  P  P279  1  0.80361727  0.25083478  0.76388026  1
  P  P280  1  0.80348132  0.58243554  0.01491632  1
  P  P281  1  0.80323392  0.58352508  0.26515761  1
  P  P282  1  0.80431809  0.58363034  0.51386811  1
  P  P283  1  0.80308638  0.58254791  0.76487906  1
  P  P284  1  0.80251416  0.91751414  0.01537956  1
  P  P285  1  0.80442786  0.91660658  0.26366568  1
  P  P286  1  0.80451291  0.91589636  0.51594294  1
  P  P287  1  0.80454442  0.91650811  0.76413972  1
  O  O288  1  0.05914422  0.25041543  0.18805757  1
  O  O289  1  0.05595464  0.25007146  0.43569648  1
  O  O290  1  0.05645168  0.25069460  0.68674158  1
  O  O291  1  0.05714386  0.24968171  0.93736340  1
  O  O292  1  0.05917654  0.58289996  0.18830271  1
  O  O293  1  0.05786750  0.58305576  0.43707260  1
  O  O294  1  0.05739746  0.58291226  0.68628170  1
  O  O295  1  0.05666891  0.58277281  0.93696415  1
  O  O296  1  0.05570000  0.91669361  0.18690664  1
  O  O297  1  0.05625491  0.91684669  0.43652110  1
  O  O298  1  0.05903928  0.91675738  0.68771790  1
  O  O299  1  0.05744863  0.91723840  0.93645213  1
  O  O300  1  0.55918510  0.25059211  0.18800831  1
  O  O301  1  0.55718302  0.25049218  0.43583279  1
  O  O302  1  0.55770355  0.25077020  0.68786811  1
  O  O303  1  0.55617827  0.25030453  0.93639175  1
  O  O304  1  0.55923327  0.58272037  0.18851511  1
  O  O305  1  0.56089059  0.58292432  0.43700154  1
  O  O306  1  0.55599207  0.58290904  0.68578646  1
  O  O307  1  0.55504818  0.58225064  0.93688585  1
  O  O308  1  0.55628632  0.91698525  0.18655760  1
  O  O309  1  0.55698934  0.91670664  0.43654304  1
  O  O310  1  0.55482479  0.91637599  0.68691162  1
  O  O311  1  0.55881332  0.91748958  0.93807432  1
  O  O312  1  0.44158994  0.08357717  0.06260228  1
  O  O313  1  0.44192468  0.08429360  0.31197156  1
  O  O314  1  0.44338554  0.08319553  0.56365540  1
  O  O315  1  0.44013689  0.08315769  0.81295802  1
  O  O316  1  0.44072212  0.41640086  0.06309691  1
  O  O317  1  0.44067264  0.41693842  0.31200152  1
  O  O318  1  0.44298095  0.41695458  0.56334489  1
  O  O319  1  0.44068857  0.41687724  0.81303682  1
  O  O320  1  0.44435193  0.74989612  0.06430152  1
  O  O321  1  0.44086047  0.74902283  0.31233540  1
  O  O322  1  0.44334855  0.74976332  0.56330745  1
  O  O323  1  0.44056025  0.74989015  0.81228321  1
  O  O324  1  0.94007415  0.08326949  0.06282112  1
  O  O325  1  0.94136200  0.08376978  0.31167916  1
  O  O326  1  0.94401420  0.08335301  0.56315617  1
  O  O327  1  0.94403653  0.08378088  0.81428325  1
  O  O328  1  0.94142714  0.41649455  0.06295416  1
  O  O329  1  0.94018437  0.41715864  0.31170600  1
  O  O330  1  0.94146572  0.41703700  0.56254416  1
  O  O331  1  0.94175877  0.41651165  0.81295108  1
  O  O332  1  0.94281059  0.74999652  0.06403976  1
  O  O333  1  0.94031080  0.74921196  0.31277812  1
  O  O334  1  0.94238978  0.74980478  0.56214481  1
  O  O335  1  0.94437596  0.74968889  0.81335111  1
  O  O336  1  0.19375304  0.08348424  0.06147158  1
  O  O337  1  0.19111194  0.08377143  0.31255485  1
  O  O338  1  0.19329362  0.08353562  0.56062458  1
  O  O339  1  0.19245084  0.08360528  0.81299305  1
  O  O340  1  0.19166923  0.41641045  0.06240526  1
  O  O341  1  0.19283670  0.41633719  0.31102053  1
  O  O342  1  0.19059061  0.41619096  0.56274329  1
  O  O343  1  0.19146732  0.41621142  0.81268262  1
  O  O344  1  0.19398191  0.75008933  0.06233985  1
  O  O345  1  0.19114943  0.74997458  0.31294877  1
  O  O346  1  0.19023873  0.75013402  0.56170849  1
  O  O347  1  0.19429230  0.75036127  0.81116035  1
  O  O348  1  0.69105029  0.08327434  0.06304467  1
  O  O349  1  0.69133812  0.08346505  0.31238104  1
  O  O350  1  0.69262039  0.08321151  0.56141545  1
  O  O351  1  0.69320315  0.08399787  0.81176054  1
  O  O352  1  0.69349711  0.41657277  0.06163950  1
  O  O353  1  0.69515057  0.41634265  0.31200737  1
  O  O354  1  0.69393561  0.41665374  0.56193782  1
  O  O355  1  0.69340049  0.41592935  0.81155820  1
  O  O356  1  0.69023218  0.75005228  0.06320562  1
  O  O357  1  0.69442716  0.75005437  0.31142051  1
  O  O358  1  0.69135238  0.75067124  0.56312664  1
  O  O359  1  0.69247355  0.74977776  0.81103880  1
  O  O360  1  0.30807862  0.24978225  0.18683811  1
  O  O361  1  0.30652289  0.25006978  0.43874689  1
  O  O362  1  0.30894182  0.25017328  0.68751882  1
  O  O363  1  0.30922802  0.25010150  0.93772947  1
  O  O364  1  0.30844705  0.58354190  0.18724412  1
  O  O365  1  0.30515788  0.58321123  0.43798318  1
  O  O366  1  0.30619607  0.58339057  0.68829429  1
  O  O367  1  0.30913575  0.58322213  0.93838365  1
  O  O368  1  0.31003020  0.91665921  0.18690581  1
  O  O369  1  0.30674352  0.91675829  0.43847081  1
  O  O370  1  0.30814784  0.91612324  0.68686585  1
  O  O371  1  0.30631557  0.91679573  0.93965973  1
  O  O372  1  0.80620909  0.24968907  0.18869174  1
  O  O373  1  0.80984263  0.24942121  0.43740373  1
  O  O374  1  0.80853293  0.24996041  0.68722401  1
  O  O375  1  0.80657889  0.24964399  0.93807780  1
  O  O376  1  0.80640063  0.58360303  0.18883769  1
  O  O377  1  0.80875793  0.58388139  0.43709861  1
  O  O378  1  0.80647286  0.58344545  0.68812307  1
  O  O379  1  0.80659644  0.58304172  0.93807468  1
  O  O380  1  0.80769439  0.91663111  0.18697992  1
  O  O381  1  0.80722069  0.91660074  0.43902822  1
  O  O382  1  0.80974623  0.91656295  0.68744532  1
  O  O383  1  0.80607036  0.91697649  0.93862990  1
  O  O384  1  0.23596704  0.24973815  0.03900758  1
  O  O385  1  0.23307305  0.25071803  0.28752566  1
  O  O386  1  0.23391049  0.24991145  0.54082228  1
  O  O387  1  0.23566032  0.25013949  0.78907992  1
  O  O388  1  0.23574522  0.58304009  0.03954201  1
  O  O389  1  0.23300198  0.58264424  0.28745476  1
  O  O390  1  0.23091657  0.58304938  0.53906538  1
  O  O391  1  0.23454172  0.58339879  0.79105287  1
  O  O392  1  0.23466418  0.91713628  0.04246276  1
  O  O393  1  0.23535157  0.91671658  0.28754765  1
  O  O394  1  0.23386991  0.91687666  0.54005476  1
  O  O395  1  0.23373110  0.91655186  0.78796086  1
  O  O396  1  0.73407212  0.25005459  0.04034243  1
  O  O397  1  0.73304452  0.25020529  0.29021241  1
  O  O398  1  0.73571636  0.25039435  0.53818208  1
  O  O399  1  0.73346387  0.25041799  0.78804839  1
  O  O400  1  0.73377131  0.58274188  0.04003339  1
  O  O401  1  0.73319873  0.58323123  0.29031160  1
  O  O402  1  0.73407456  0.58342376  0.53786536  1
  O  O403  1  0.73343982  0.58264199  0.79014813  1
  O  O404  1  0.73255046  0.91709978  0.04026109  1
  O  O405  1  0.73459176  0.91629046  0.28866089  1
  O  O406  1  0.73486592  0.91657555  0.54113990  1
  O  O407  1  0.73435061  0.91666263  0.78760176  1
  O  O408  1  0.26713889  0.08404754  0.21287202  1
  O  O409  1  0.26571609  0.08355624  0.45857623  1
  O  O410  1  0.26744599  0.08302042  0.71267370  1
  O  O411  1  0.26833413  0.08337926  0.96090564  1
  O  O412  1  0.26673673  0.41656534  0.21002162  1
  O  O413  1  0.26442063  0.41685845  0.46129172  1
  O  O414  1  0.26667119  0.41683733  0.71270878  1
  O  O415  1  0.26717715  0.41611341  0.96269385  1
  O  O416  1  0.26709189  0.74919319  0.21305454  1
  O  O417  1  0.26407142  0.74987304  0.46065256  1
  O  O418  1  0.26733428  0.74974476  0.70944106  1
  O  O419  1  0.26733141  0.75065659  0.96092108  1
  O  O420  1  0.76612635  0.08386614  0.21220333  1
  O  O421  1  0.76598273  0.08315730  0.46008459  1
  O  O422  1  0.76619395  0.08447526  0.70993960  1
  O  O423  1  0.76660559  0.08310566  0.96260590  1
  O  O424  1  0.76843312  0.41663337  0.21054165  1
  O  O425  1  0.76832968  0.41690784  0.46122236  1
  O  O426  1  0.76768243  0.41633335  0.71033336  1
  O  O427  1  0.76814447  0.41608834  0.96094003  1
  O  O428  1  0.76761381  0.74950059  0.21007127  1
  O  O429  1  0.76721739  0.74984824  0.46308496  1
  O  O430  1  0.76557811  0.74932551  0.70955891  1
  O  O431  1  0.76457891  0.75051247  0.96214044  1
  O  O432  1  0.01431661  0.08323746  0.16339663  1
  O  O433  1  0.01695259  0.08371348  0.41200655  1
  O  O434  1  0.01654433  0.08371872  0.66526439  1
  O  O435  1  0.01797922  0.08340256  0.91551896  1
  O  O436  1  0.01640566  0.41677702  0.16341994  1
  O  O437  1  0.01395966  0.41644520  0.41261162  1
  O  O438  1  0.01651400  0.41687622  0.66288466  1
  O  O439  1  0.01721643  0.41600540  0.91313849  1
  O  O440  1  0.01533954  0.74989819  0.16610209  1
  O  O441  1  0.01583563  0.75011403  0.41255320  1
  O  O442  1  0.01778939  0.74979819  0.66237253  1
  O  O443  1  0.01709777  0.75036103  0.91542065  1
  O  O444  1  0.51641585  0.08321459  0.16282671  1
  O  O445  1  0.51744910  0.08389233  0.41230869  1
  O  O446  1  0.51485499  0.08321741  0.66653067  1
  O  O447  1  0.51429644  0.08413440  0.91386463  1
  O  O448  1  0.51446311  0.41682414  0.16414841  1
  O  O449  1  0.51580422  0.41599330  0.41237885  1
  O  O450  1  0.51514548  0.41714803  0.66564300  1
  O  O451  1  0.51405281  0.41635541  0.91494646  1
  O  O452  1  0.51761666  0.75016456  0.16581700  1
  O  O453  1  0.51579064  0.75017306  0.41250485  1
  O  O454  1  0.51680719  0.74960684  0.66503320  1
  O  O455  1  0.51461450  0.74929321  0.91349281  1
  O  O456  1  0.48283252  0.24967294  0.08862501  1
  O  O457  1  0.48471535  0.24977664  0.33381093  1
  O  O458  1  0.48242854  0.24962653  0.58753951  1
  O  O459  1  0.48181926  0.25044766  0.83597752  1
  O  O460  1  0.48272852  0.58351626  0.08916795  1
  O  O461  1  0.48575003  0.58329657  0.33701275  1
  O  O462  1  0.48411568  0.58342387  0.58323999  1
  O  O463  1  0.48092850  0.58273032  0.83583397  1
  O  O464  1  0.48264665  0.91683634  0.08519332  1
  O  O465  1  0.48433832  0.91726930  0.33467017  1
  O  O466  1  0.48128117  0.91654158  0.58518629  1
  O  O467  1  0.48405038  0.91672171  0.83781000  1
  O  O468  1  0.98499575  0.25006064  0.08729102  1
  O  O469  1  0.98237963  0.25037760  0.33446793  1
  O  O470  1  0.98194582  0.25026422  0.58568309  1
  O  O471  1  0.98460544  0.25026707  0.83517667  1
  O  O472  1  0.98509058  0.58302472  0.08736955  1
  O  O473  1  0.98311094  0.58317599  0.33677252  1
  O  O474  1  0.98460260  0.58323176  0.58441155  1
  O  O475  1  0.98441760  0.58285273  0.83425982  1
  O  O476  1  0.98128402  0.91686202  0.08593100  1
  O  O477  1  0.98371569  0.91652169  0.33480495  1
  O  O478  1  0.98366119  0.91684613  0.58709662  1
  O  O479  1  0.98524777  0.91688654  0.83429965  1
  O  O480  1  0.08807832  0.31623002  0.07837918  1
  O  O481  1  0.08682238  0.31433335  0.32619805  1
  O  O482  1  0.08512915  0.31639123  0.57711092  1
  O  O483  1  0.08863861  0.31463763  0.82824331  1
  O  O484  1  0.08884394  0.64738885  0.07844037  1
  O  O485  1  0.08674974  0.64917545  0.32740003  1
  O  O486  1  0.08870279  0.64788349  0.57713742  1
  O  O487  1  0.08835764  0.64730004  0.82796434  1
  O  O488  1  0.08530740  0.98156834  0.07748945  1
  O  O489  1  0.08742335  0.98168919  0.32713769  1
  O  O490  1  0.08735782  0.98140481  0.57774908  1
  O  O491  1  0.08856665  0.98365948  0.82771387  1
  O  O492  1  0.58619020  0.31459433  0.07738998  1
  O  O493  1  0.58881360  0.31432459  0.32614045  1
  O  O494  1  0.58573938  0.31529800  0.57744405  1
  O  O495  1  0.58581385  0.31535812  0.82667609  1
  O  O496  1  0.58607909  0.64906970  0.07865612  1
  O  O497  1  0.58969235  0.64796072  0.32707926  1
  O  O498  1  0.58782030  0.64949689  0.57731213  1
  O  O499  1  0.58489908  0.64726914  0.82740004  1
  O  O500  1  0.58672391  0.98173989  0.07700743  1
  O  O501  1  0.58793015  0.98272630  0.32752482  1
  O  O502  1  0.58551092  0.98061474  0.57762857  1
  O  O503  1  0.58721470  0.98226011  0.82785544  1
  O  O504  1  0.41263304  0.01824902  0.17253411  1
  O  O505  1  0.41379455  0.01901893  0.42187349  1
  O  O506  1  0.41105010  0.01788063  0.67259832  1
  O  O507  1  0.41047769  0.01956108  0.92320128  1
  O  O508  1  0.41080247  0.35139152  0.17282770  1
  O  O509  1  0.41194061  0.35157648  0.42157048  1
  O  O510  1  0.41151110  0.35123397  0.67238990  1
  O  O511  1  0.41025453  0.35153983  0.92247905  1
  O  O512  1  0.41327019  0.68541752  0.17399571  1
  O  O513  1  0.41257854  0.68460627  0.42270800  1
  O  O514  1  0.41232134  0.68559049  0.67258246  1
  O  O515  1  0.41128819  0.68388827  0.92177563  1
  O  O516  1  0.91071161  0.01729052  0.17241039  1
  O  O517  1  0.91327208  0.01928349  0.42192388  1
  O  O518  1  0.91298372  0.01835228  0.67240081  1
  O  O519  1  0.91365043  0.01858269  0.92341183  1
  O  O520  1  0.91255459  0.35176301  0.17301085  1
  O  O521  1  0.91018717  0.35181635  0.42125339  1
  O  O522  1  0.91303319  0.35089762  0.67243955  1
  O  O523  1  0.91317771  0.35160002  0.92307883  1
  O  O524  1  0.91109666  0.68603252  0.17350836  1
  O  O525  1  0.91277069  0.68353022  0.42295703  1
  O  O526  1  0.91405587  0.68547931  0.67232315  1
  O  O527  1  0.91351833  0.68487120  0.92266428  1
  O  O528  1  0.16352026  0.01937874  0.20212959  1
  O  O529  1  0.16169147  0.01859922  0.45139610  1
  O  O530  1  0.16393722  0.01761471  0.70314817  1
  O  O531  1  0.16440540  0.01816917  0.95209878  1
  O  O532  1  0.16275783  0.35145279  0.20152280  1
  O  O533  1  0.16100153  0.35201288  0.45262335  1
  O  O534  1  0.16301879  0.35152833  0.70226645  1
  O  O535  1  0.16342534  0.35142637  0.95216130  1
  O  O536  1  0.16346597  0.68397992  0.20322853  1
  O  O537  1  0.16052352  0.68391585  0.45231634  1
  O  O538  1  0.16263595  0.68617064  0.70190368  1
  O  O539  1  0.16397694  0.68524403  0.95273102  1
  O  O540  1  0.66201345  0.01976140  0.20187246  1
  O  O541  1  0.66209230  0.01811616  0.45209089  1
  O  O542  1  0.66239838  0.01977120  0.70228170  1
  O  O543  1  0.66310487  0.01748200  0.95326972  1
  O  O544  1  0.66453649  0.35148425  0.20253962  1
  O  O545  1  0.66451821  0.35221830  0.45227938  1
  O  O546  1  0.66421993  0.35021624  0.70202719  1
  O  O547  1  0.66412374  0.35140131  0.95223922  1
  O  O548  1  0.66378749  0.68364318  0.20248004  1
  O  O549  1  0.66357588  0.68477820  0.45329733  1
  O  O550  1  0.66136517  0.68464219  0.70194230  1
  O  O551  1  0.66096829  0.68584139  0.95319753  1
  O  O552  1  0.33964697  0.31481050  0.04761794  1
  O  O553  1  0.33662215  0.31566648  0.29646009  1
  O  O554  1  0.33789852  0.31494494  0.54793476  1
  O  O555  1  0.33914933  0.31549731  0.79712268  1
  O  O556  1  0.33985353  0.64707260  0.04859311  1
  O  O557  1  0.33663605  0.64773879  0.29763391  1
  O  O558  1  0.33457177  0.64832127  0.54742959  1
  O  O559  1  0.33828457  0.64876482  0.79702785  1
  O  O560  1  0.33835899  0.98308289  0.04807728  1
  O  O561  1  0.33871960  0.98202396  0.29660757  1
  O  O562  1  0.33787060  0.98171029  0.54765037  1
  O  O563  1  0.33764337  0.98078651  0.79690572  1
  O  O564  1  0.83812451  0.31480933  0.04702835  1
  O  O565  1  0.83747667  0.31479139  0.29754609  1
  O  O566  1  0.83935772  0.31583686  0.54680001  1
  O  O567  1  0.83706575  0.31612738  0.79664368  1
  O  O568  1  0.83760736  0.64745679  0.04738677  1
  O  O569  1  0.83709329  0.64863232  0.29818966  1
  O  O570  1  0.83758042  0.64859960  0.54731966  1
  O  O571  1  0.83719245  0.64751398  0.79756648  1
  O  O572  1  0.83646062  0.98253111  0.04794740  1
  O  O573  1  0.83788201  0.98191741  0.29654407  1
  O  O574  1  0.83918706  0.98077100  0.54818869  1
  O  O575  1  0.83781825  0.98164349  0.79745282  1
  O  O576  1  0.41249575  0.14828235  0.17297179  1
  O  O577  1  0.41395035  0.14894594  0.42212433  1
  O  O578  1  0.41076222  0.14798448  0.67255913  1
  O  O579  1  0.41089315  0.14968449  0.92229655  1
  O  O580  1  0.41052993  0.48153611  0.17284007  1
  O  O581  1  0.41257731  0.48162165  0.42225749  1
  O  O582  1  0.41073952  0.48123643  0.67242218  1
  O  O583  1  0.41033986  0.48168349  0.92268287  1
  O  O584  1  0.41362511  0.81549720  0.17318349  1
  O  O585  1  0.41194214  0.81463621  0.42184962  1
  O  O586  1  0.41309246  0.81555821  0.67270075  1
  O  O587  1  0.41129585  0.81414514  0.92237311  1
  O  O588  1  0.91029977  0.14726958  0.17298883  1
  O  O589  1  0.91358505  0.14941851  0.42143989  1
  O  O590  1  0.91279023  0.14866634  0.67222113  1
  O  O591  1  0.91394566  0.14850727  0.92379828  1
  O  O592  1  0.91246187  0.48149854  0.17299646  1
  O  O593  1  0.91077410  0.48212157  0.42192725  1
  O  O594  1  0.91241327  0.48087547  0.67290898  1
  O  O595  1  0.91361220  0.48149057  0.92313033  1
  O  O596  1  0.91171493  0.81609349  0.17286354  1
  O  O597  1  0.91149332  0.81361456  0.42296981  1
  O  O598  1  0.91442661  0.81561421  0.67210289  1
  O  O599  1  0.91301161  0.81492140  0.92223687  1
  O  O600  1  0.08884956  0.18598474  0.07823069  1
  O  O601  1  0.08630770  0.18446973  0.32624776  1
  O  O602  1  0.08607564  0.18624285  0.57726231  1
  O  O603  1  0.08797803  0.18436522  0.82822241  1
  O  O604  1  0.08831011  0.51713689  0.07862139  1
  O  O605  1  0.08734671  0.51921168  0.32682313  1
  O  O606  1  0.08815073  0.51768776  0.57697389  1
  O  O607  1  0.08782891  0.51702830  0.82813068  1
  O  O608  1  0.08504649  0.85154606  0.07755838  1
  O  O609  1  0.08742222  0.85137901  0.32750535  1
  O  O610  1  0.08697599  0.85120822  0.57778039  1
  O  O611  1  0.08998133  0.85352877  0.82697319  1
  O  O612  1  0.58627811  0.18432613  0.07807177  1
  O  O613  1  0.58864395  0.18440569  0.32700817  1
  O  O614  1  0.58644275  0.18527739  0.57818433  1
  O  O615  1  0.58577843  0.18545597  0.82662482  1
  O  O616  1  0.58615609  0.51878711  0.07770564  1
  O  O617  1  0.58927295  0.51797585  0.32671184  1
  O  O618  1  0.58864856  0.51937262  0.57651083  1
  O  O619  1  0.58445695  0.51730002  0.82722175  1
  O  O620  1  0.58662657  0.85156152  0.07753011  1
  O  O621  1  0.58813437  0.85260886  0.32709416  1
  O  O622  1  0.58483906  0.85048829  0.57769759  1
  O  O623  1  0.58774378  0.85214037  0.82825856  1
  O  O624  1  0.33968457  0.18474843  0.04743260  1
  O  O625  1  0.33666687  0.18542999  0.29704941  1
  O  O626  1  0.33793080  0.18496993  0.54773064  1
  O  O627  1  0.33947343  0.18529383  0.79713377  1
  O  O628  1  0.33908646  0.51704261  0.04771822  1
  O  O629  1  0.33645897  0.51744738  0.29692066  1
  O  O630  1  0.33490502  0.51844388  0.54749434  1
  O  O631  1  0.33845007  0.51851546  0.79738779  1
  O  O632  1  0.33915747  0.85314414  0.04891341  1
  O  O633  1  0.33867356  0.85140766  0.29667428  1
  O  O634  1  0.33769631  0.85172416  0.54778811  1
  O  O635  1  0.33691949  0.85062561  0.79658752  1
  O  O636  1  0.83761443  0.18465874  0.04726675  1
  O  O637  1  0.83688492  0.18468231  0.29805827  1
  O  O638  1  0.83944244  0.18571128  0.54771377  1
  O  O639  1  0.83729433  0.18606430  0.79755037  1
  O  O640  1  0.83757584  0.51731824  0.04704142  1
  O  O641  1  0.83752737  0.51849868  0.29781628  1
  O  O642  1  0.83770302  0.51845864  0.54680382  1
  O  O643  1  0.83728232  0.51719320  0.79663681  1
  O  O644  1  0.83680991  0.85266480  0.04817343  1
  O  O645  1  0.83830788  0.85153180  0.29636347  1
  O  O646  1  0.83867722  0.85070589  0.54793149  1
  O  O647  1  0.83769314  0.85136221  0.79742531  1
  O  O648  1  0.16366071  0.14952286  0.20257500  1
  O  O649  1  0.16163467  0.14855103  0.45156014  1
  O  O650  1  0.16389255  0.14766757  0.70259793  1
  O  O651  1  0.16443469  0.14810944  0.95148528  1
  O  O652  1  0.16267352  0.48157351  0.20178547  1
  O  O653  1  0.16080616  0.48203124  0.45310842  1
  O  O654  1  0.16261700  0.48135883  0.70272935  1
  O  O655  1  0.16359380  0.48135467  0.95216157  1
  O  O656  1  0.16364064  0.81418009  0.20247218  1
  O  O657  1  0.16003408  0.81399077  0.45163084  1
  O  O658  1  0.16374456  0.81609271  0.70183107  1
  O  O659  1  0.16354603  0.81543742  0.95331781  1
  O  O660  1  0.66263406  0.14980326  0.20267866  1
  O  O661  1  0.66198968  0.14816935  0.45209813  1
  O  O662  1  0.66252513  0.15006422  0.70291371  1
  O  O663  1  0.66287038  0.14767549  0.95289967  1
  O  O664  1  0.66450324  0.48161810  0.20272799  1
  O  O665  1  0.66466577  0.48231308  0.45250145  1
  O  O666  1  0.66348580  0.48036554  0.70212848  1
  O  O667  1  0.66431374  0.48144203  0.95201132  1
  O  O668  1  0.66315180  0.81360653  0.20166612  1
  O  O669  1  0.66384153  0.81492444  0.45268279  1
  O  O670  1  0.66165829  0.81460559  0.70148571  1
  O  O671  1  0.66132151  0.81633078  0.95395624  1
