# generated using pymatgen
data_Na2MnFe(PO4)2
_symmetry_space_group_name_H-M   'P 1'
_cell_length_a   21.08872526
_cell_length_b   18.94209657
_cell_length_c   20.04724229
_cell_angle_alpha   90.00089107
_cell_angle_beta   89.99727792
_cell_angle_gamma   89.99958375
_symmetry_Int_Tables_number   1
_chemical_formula_structural   Na2MnFe(PO4)2
_chemical_formula_sum   'Na96 Mn48 Fe48 P96 O384'
_cell_volume   8008.16502150
_cell_formula_units_Z   48
loop_
 _symmetry_equiv_pos_site_id
 _symmetry_equiv_pos_as_xyz
  1  'x, y, z'
loop_
 _atom_site_type_symbol
 _atom_site_label
 _atom_site_symmetry_multiplicity
 _atom_site_fract_x
 _atom_site_fract_y
 _atom_site_fract_z
 _atom_site_occupancy
  Na  Na0  1  0.00119504  -0.00050271  0.00066901  1
  Na  Na1  1  0.00313983  0.00007376  0.24866499  1
  Na  Na2  1  0.00057848  -0.00068802  0.49991752  1
  Na  Na3  1  -0.00152691  -0.00115011  0.75084340  1
  Na  Na4  1  -0.00217933  0.33237363  -0.00053259  1
  Na  Na5  1  0.00046066  0.33333545  0.25045519  1
  Na  Na6  1  0.00146508  0.33440782  0.49954569  1
  Na  Na7  1  -0.00186506  0.33264575  0.75107245  1
  Na  Na8  1  0.00155439  0.66777397  -0.00000277  1
  Na  Na9  1  0.00219192  0.66760298  0.24912233  1
  Na  Na10  1  0.00021169  0.66667519  0.50027925  1
  Na  Na11  1  -0.00050609  0.66689366  0.75055580  1
  Na  Na12  1  0.49926285  -0.00083429  -0.00031661  1
  Na  Na13  1  0.49868885  -0.00058621  0.24979937  1
  Na  Na14  1  0.49796178  -0.00128479  0.49998359  1
  Na  Na15  1  0.49847785  -0.00188856  0.75096104  1
  Na  Na16  1  0.50167502  0.33459085  -0.00160887  1
  Na  Na17  1  0.49874203  0.33323143  0.25039968  1
  Na  Na18  1  0.49750802  0.33255027  0.50143679  1
  Na  Na19  1  0.49969949  0.33371732  0.74905650  1
  Na  Na20  1  0.49995244  0.66696268  0.00149174  1
  Na  Na21  1  0.50050436  0.66701089  0.24961477  1
  Na  Na22  1  0.50309996  0.66811903  0.49874964  1
  Na  Na23  1  0.50077749  0.66689307  0.75031772  1
  Na  Na24  1  0.24812315  -0.00123091  0.12447883  1
  Na  Na25  1  0.24898047  -0.00125547  0.37468846  1
  Na  Na26  1  0.25140129  -0.00004163  0.62576252  1
  Na  Na27  1  0.24975920  -0.00033499  0.87509753  1
  Na  Na28  1  0.24878903  0.33322265  0.12612050  1
  Na  Na29  1  0.24989518  0.33411139  0.37563864  1
  Na  Na30  1  0.24942962  0.33387474  0.62408369  1
  Na  Na31  1  0.25021383  0.33415334  0.87500645  1
  Na  Na32  1  0.24872878  0.66723176  0.12450132  1
  Na  Na33  1  0.24723488  0.66693210  0.37564410  1
  Na  Na34  1  0.24685947  0.66604861  0.62536914  1
  Na  Na35  1  0.24938763  0.66728943  0.87484544  1
  Na  Na36  1  0.75131232  -0.00086479  0.12495110  1
  Na  Na37  1  0.75048177  -0.00077429  0.37416777  1
  Na  Na38  1  0.75245530  0.00001983  0.62518335  1
  Na  Na39  1  0.75255652  -0.00039775  0.87441888  1
  Na  Na40  1  0.75030036  0.33308066  0.12445228  1
  Na  Na41  1  0.75078059  0.33353185  0.37445792  1
  Na  Na42  1  0.75223038  0.33359062  0.62498804  1
  Na  Na43  1  0.75137308  0.33324656  0.87594512  1
  Na  Na44  1  0.74791297  0.66651233  0.12598773  1
  Na  Na45  1  0.74899950  0.66636408  0.37570669  1
  Na  Na46  1  0.75078098  0.66736492  0.62481024  1
  Na  Na47  1  0.74947691  0.66716333  0.87362192  1
  Na  Na48  1  0.00006767  0.16610207  0.00014432  1
  Na  Na49  1  0.00239002  0.16606542  0.24955058  1
  Na  Na50  1  0.00173318  0.16650875  0.49976551  1
  Na  Na51  1  -0.00096134  0.16716584  0.75041465  1
  Na  Na52  1  0.00207366  0.49961239  -0.00017549  1
  Na  Na53  1  0.00138395  0.50094373  0.24950083  1
  Na  Na54  1  0.00117363  0.50025861  0.49995802  1
  Na  Na55  1  -0.00096411  0.50103566  0.75130095  1
  Na  Na56  1  -0.00071954  0.83344347  0.00028893  1
  Na  Na57  1  0.00159923  0.83227296  0.24908110  1
  Na  Na58  1  -0.00048006  0.83252959  0.49995487  1
  Na  Na59  1  -0.00193935  0.83306375  0.75076029  1
  Na  Na60  1  0.50037489  0.16668314  -0.00046296  1
  Na  Na61  1  0.49805384  0.16713893  0.24965578  1
  Na  Na62  1  0.49999476  0.16658323  0.50096992  1
  Na  Na63  1  0.50210119  0.16606010  0.74940378  1
  Na  Na64  1  0.50099903  0.50039331  -0.00043733  1
  Na  Na65  1  0.50261238  0.49950591  0.25097353  1
  Na  Na66  1  0.50024917  0.50005754  0.50021006  1
  Na  Na67  1  0.49785727  0.50127703  0.74998220  1
  Na  Na68  1  0.49847931  0.83371567  0.00014930  1
  Na  Na69  1  0.49747996  0.83359469  0.24910827  1
  Na  Na70  1  0.49914757  0.83301768  0.49915783  1
  Na  Na71  1  0.50009882  0.83293251  0.75113476  1
  Na  Na72  1  0.24782484  0.16633358  0.12548048  1
  Na  Na73  1  0.24837612  0.16690846  0.37472794  1
  Na  Na74  1  0.24801913  0.16731044  0.62506077  1
  Na  Na75  1  0.24714474  0.16703261  0.87550534  1
  Na  Na76  1  0.24799658  0.50144102  0.12461907  1
  Na  Na77  1  0.24816340  0.50083382  0.37560363  1
  Na  Na78  1  0.25001419  0.49981266  0.62487966  1
  Na  Na79  1  0.25087857  0.50007641  0.87499898  1
  Na  Na80  1  0.25013805  0.83314835  0.12484238  1
  Na  Na81  1  0.24899393  0.83304367  0.37561142  1
  Na  Na82  1  0.24984630  0.83278946  0.62503551  1
  Na  Na83  1  0.25026642  0.83319585  0.87459337  1
  Na  Na84  1  0.75159818  0.16650024  0.12472311  1
  Na  Na85  1  0.75047513  0.16715685  0.37423093  1
  Na  Na86  1  0.75112413  0.16727722  0.62512744  1
  Na  Na87  1  0.75165098  0.16666547  0.87475011  1
  Na  Na88  1  0.74743985  0.50156564  0.12506298  1
  Na  Na89  1  0.74922010  0.50087635  0.37513826  1
  Na  Na90  1  0.75098139  0.50065064  0.62430751  1
  Na  Na91  1  0.75113425  0.49995855  0.87482137  1
  Na  Na92  1  0.75112355  0.83265627  0.12533787  1
  Na  Na93  1  0.75090327  0.83267984  0.37487752  1
  Na  Na94  1  0.75188412  0.83222601  0.62552907  1
  Na  Na95  1  0.75032508  0.83355717  0.87442163  1
  Mn  Mn96  1  0.60787230  0.08342648  0.12234877  1
  Mn  Mn97  1  0.60801630  0.41717935  0.87180633  1
  Mn  Mn98  1  0.89212826  0.58390830  0.87818607  1
  Mn  Mn99  1  0.10784703  0.41636067  0.12232140  1
  Mn  Mn100  1  0.60696299  0.75041705  0.12238489  1
  Mn  Mn101  1  0.64173004  0.91675250  0.24745895  1
  Mn  Mn102  1  0.64155501  0.25027967  0.24774003  1
  Mn  Mn103  1  0.89355594  0.25043919  0.37722296  1
  Mn  Mn104  1  0.35754189  0.41663358  0.00266779  1
  Mn  Mn105  1  0.14165515  0.91653980  0.49814458  1
  Mn  Mn106  1  0.60842198  0.08212378  0.62238364  1
  Mn  Mn107  1  0.10743485  0.41635707  0.87252919  1
  Mn  Mn108  1  0.60799228  0.41712915  0.62285819  1
  Mn  Mn109  1  0.10738684  0.08315610  0.62274541  1
  Mn  Mn110  1  0.64247256  0.91652837  0.49781741  1
  Mn  Mn111  1  0.35770358  0.41786387  0.25236592  1
  Mn  Mn112  1  0.39204179  0.58328330  0.37738411  1
  Mn  Mn113  1  0.89343728  0.91608144  0.37683148  1
  Mn  Mn114  1  0.64259834  0.25028392  0.49756154  1
  Mn  Mn115  1  0.39205478  0.58336800  0.12752055  1
  Mn  Mn116  1  0.39217117  0.24979809  0.87728814  1
  Mn  Mn117  1  0.35649487  0.08346498  0.00196780  1
  Mn  Mn118  1  0.35782964  0.08424399  0.75280369  1
  Mn  Mn119  1  0.60732137  0.41621346  0.37342839  1
  Mn  Mn120  1  0.60869812  0.08280065  0.87310590  1
  Mn  Mn121  1  0.85735700  0.41771855  0.00315957  1
  Mn  Mn122  1  0.85918226  0.08282561  0.50162842  1
  Mn  Mn123  1  0.39161694  0.25004266  0.12644540  1
  Mn  Mn124  1  0.35798021  0.74920010  0.75216716  1
  Mn  Mn125  1  0.60727610  0.08295783  0.37283127  1
  Mn  Mn126  1  0.64298049  0.91715299  0.74763496  1
  Mn  Mn127  1  0.85812302  0.74916272  0.25197769  1
  Mn  Mn128  1  0.35714336  0.08375820  0.50228249  1
  Mn  Mn129  1  0.14212130  0.58298912  0.74796060  1
  Mn  Mn130  1  0.35720757  0.74897140  0.50222035  1
  Mn  Mn131  1  0.64263654  0.58261796  0.74745451  1
  Mn  Mn132  1  0.14229272  0.25009494  0.24747149  1
  Mn  Mn133  1  0.39206510  0.58449210  0.62627064  1
  Mn  Mn134  1  0.35666100  0.08280187  0.25219152  1
  Mn  Mn135  1  0.85903408  0.08324816  0.25225041  1
  Mn  Mn136  1  0.85871285  0.08357861  0.75257520  1
  Mn  Mn137  1  0.39163337  0.24922128  0.62783144  1
  Mn  Mn138  1  0.85916526  0.41720690  0.50225237  1
  Mn  Mn139  1  0.14191400  0.91659609  0.74806644  1
  Mn  Mn140  1  0.14123551  0.25078250  0.74781115  1
  Mn  Mn141  1  0.89259011  0.58358475  0.12691491  1
  Mn  Mn142  1  0.64319794  0.24927629  0.99750375  1
  Mn  Mn143  1  0.85766056  0.41756529  0.25178530  1
  Fe  Fe144  1  0.85752383  0.74941027  0.75203917  1
  Fe  Fe145  1  0.64417308  0.25037255  0.74857811  1
  Fe  Fe146  1  0.39172023  0.91703757  0.12643310  1
  Fe  Fe147  1  0.85692933  0.75010221  0.00151525  1
  Fe  Fe148  1  0.39151236  0.24960472  0.37719374  1
  Fe  Fe149  1  0.60721667  0.75072640  0.37330730  1
  Fe  Fe150  1  0.35589711  0.74971581  0.25186181  1
  Fe  Fe151  1  0.89340739  0.24951757  0.12673779  1
  Fe  Fe152  1  0.14112171  0.58293838  0.49841792  1
  Fe  Fe153  1  0.89331335  0.58365038  0.37639948  1
  Fe  Fe154  1  0.10704248  0.75000794  0.37312679  1
  Fe  Fe155  1  0.60819579  0.75032689  0.62333050  1
  Fe  Fe156  1  0.39266523  0.91593698  0.62660961  1
  Fe  Fe157  1  0.10705474  0.08307493  0.12234148  1
  Fe  Fe158  1  0.10788044  0.75067930  0.12216586  1
  Fe  Fe159  1  0.39273949  0.58415927  0.87714202  1
  Fe  Fe160  1  0.35583442  0.41715175  0.50149982  1
  Fe  Fe161  1  0.64261568  0.58323430  0.24874098  1
  Fe  Fe162  1  0.89270306  0.24913993  0.87737523  1
  Fe  Fe163  1  0.10824680  0.08274163  0.37298280  1
  Fe  Fe164  1  0.89388812  0.91660441  0.12636579  1
  Fe  Fe165  1  0.64341497  0.91615805  0.99851041  1
  Fe  Fe166  1  0.89332893  0.25032863  0.62627651  1
  Fe  Fe167  1  0.89303892  0.58304082  0.62630198  1
  Fe  Fe168  1  0.14223483  0.58412672  0.24826562  1
  Fe  Fe169  1  0.10619395  0.08255579  0.87366385  1
  Fe  Fe170  1  0.85837778  0.08221052  0.00216563  1
  Fe  Fe171  1  0.64230561  0.58441099  0.99803196  1
  Fe  Fe172  1  0.89298306  0.91658743  0.87796167  1
  Fe  Fe173  1  0.10711914  0.41723240  0.62397321  1
  Fe  Fe174  1  0.10772947  0.41733387  0.37312524  1
  Fe  Fe175  1  0.64366641  0.58339130  0.49838701  1
  Fe  Fe176  1  0.39178419  0.91675833  0.37651729  1
  Fe  Fe177  1  0.85832936  0.41699197  0.75100887  1
  Fe  Fe178  1  0.60755819  0.41621287  0.12336056  1
  Fe  Fe179  1  0.14260879  0.91606344  0.99758336  1
  Fe  Fe180  1  0.10676711  0.75092884  0.87347911  1
  Fe  Fe181  1  0.14212799  0.25056362  0.49836163  1
  Fe  Fe182  1  0.10595610  0.74960979  0.62388166  1
  Fe  Fe183  1  0.14285307  0.91543355  0.24780535  1
  Fe  Fe184  1  0.60705395  0.75025688  0.87410152  1
  Fe  Fe185  1  0.35655491  0.75005364  0.00126319  1
  Fe  Fe186  1  0.35706439  0.41673814  0.75120368  1
  Fe  Fe187  1  0.39273419  0.91590878  0.87734932  1
  Fe  Fe188  1  0.14130229  0.25020480  0.99806212  1
  Fe  Fe189  1  0.89271314  0.91621459  0.62649403  1
  Fe  Fe190  1  0.14306775  0.58377104  0.99781635  1
  Fe  Fe191  1  0.85777446  0.74973741  0.50151870  1
  P  P192  1  0.05286391  0.24952044  0.10943210  1
  P  P193  1  0.05554951  0.25036298  0.36114920  1
  P  P194  1  0.05269709  0.25122689  0.60990638  1
  P  P195  1  0.05285194  0.24885872  0.86147107  1
  P  P196  1  0.05557805  0.58457995  0.11014594  1
  P  P197  1  0.05421010  0.58385597  0.36058632  1
  P  P198  1  0.05256702  0.58330964  0.61034995  1
  P  P199  1  0.05471293  0.58465873  0.86150070  1
  P  P200  1  0.05488750  0.91593504  0.11040330  1
  P  P201  1  0.05447552  0.91580607  0.35913790  1
  P  P202  1  0.05173049  0.91542793  0.61067398  1
  P  P203  1  0.05327825  0.91627588  0.86173478  1
  P  P204  1  0.55305851  0.25080478  0.10935735  1
  P  P205  1  0.55127198  0.24991684  0.36037570  1
  P  P206  1  0.55471669  0.25014721  0.61119533  1
  P  P207  1  0.55454131  0.24997593  0.85870638  1
  P  P208  1  0.55510139  0.58272853  0.11079003  1
  P  P209  1  0.55533174  0.58429560  0.36099070  1
  P  P210  1  0.55436614  0.58438699  0.60919864  1
  P  P211  1  0.55360170  0.58490408  0.86126742  1
  P  P212  1  0.55233359  0.91649896  0.10909555  1
  P  P213  1  0.55173264  0.91574956  0.35988056  1
  P  P214  1  0.55245739  0.91533896  0.61005666  1
  P  P215  1  0.55401720  0.91544822  0.86183254  1
  P  P216  1  0.44585172  0.08243120  0.13955859  1
  P  P217  1  0.44574444  0.08313838  0.39004540  1
  P  P218  1  0.44654173  0.08207207  0.64027909  1
  P  P219  1  0.44678748  0.08266350  0.89023391  1
  P  P220  1  0.44790821  0.41710272  0.14005826  1
  P  P221  1  0.44532834  0.41627549  0.39119738  1
  P  P222  1  0.44432090  0.41728515  0.63926763  1
  P  P223  1  0.44523424  0.41784428  0.88858398  1
  P  P224  1  0.44373692  0.75077235  0.13927893  1
  P  P225  1  0.44581550  0.75029266  0.38835706  1
  P  P226  1  0.44812500  0.75026020  0.63977558  1
  P  P227  1  0.44668791  0.74956294  0.89093707  1
  P  P228  1  0.94705609  0.08260158  0.13846823  1
  P  P229  1  0.94941429  0.08293835  0.38937491  1
  P  P230  1  0.94685147  0.08335518  0.63991747  1
  P  P231  1  0.94683294  0.08268099  0.89066794  1
  P  P232  1  0.94691606  0.41647050  0.13997309  1
  P  P233  1  0.94842654  0.41828339  0.38928025  1
  P  P234  1  0.94785930  0.41709363  0.64047602  1
  P  P235  1  0.94507360  0.41637709  0.88921585  1
  P  P236  1  0.94685434  0.75054980  0.13828957  1
  P  P237  1  0.94740076  0.74880013  0.38996604  1
  P  P238  1  0.94556601  0.74931904  0.63927584  1
  P  P239  1  0.94579029  0.75062442  0.88987128  1
  P  P240  1  0.19412285  0.08174324  0.23524086  1
  P  P241  1  0.19571047  0.08362711  0.48464194  1
  P  P242  1  0.19508753  0.08304850  0.73624118  1
  P  P243  1  0.19362838  0.08274630  0.98555888  1
  P  P244  1  0.19533747  0.41806266  0.23625304  1
  P  P245  1  0.19467475  0.41712081  0.48612671  1
  P  P246  1  0.19701537  0.41699657  0.73422819  1
  P  P247  1  0.19617246  0.41682506  0.98489582  1
  P  P248  1  0.19522068  0.75007613  0.23557373  1
  P  P249  1  0.19375010  0.74921761  0.48613481  1
  P  P250  1  0.19461720  0.75024962  0.73551194  1
  P  P251  1  0.19571614  0.75055588  0.98525952  1
  P  P252  1  0.69713088  0.08332728  0.23446786  1
  P  P253  1  0.69783216  0.08302317  0.48440660  1
  P  P254  1  0.69762258  0.08407899  0.73495836  1
  P  P255  1  0.69906237  0.08182185  0.98505107  1
  P  P256  1  0.69579799  0.41737917  0.23455420  1
  P  P257  1  0.69747349  0.41752369  0.48510748  1
  P  P258  1  0.69876562  0.41597808  0.73490938  1
  P  P259  1  0.69533500  0.41766658  0.98595594  1
  P  P260  1  0.69503066  0.74955028  0.23616884  1
  P  P261  1  0.69629016  0.74958528  0.48575266  1
  P  P262  1  0.69627674  0.75009362  0.73563687  1
  P  P263  1  0.69696217  0.75054434  0.98487880  1
  P  P264  1  0.30068244  0.24982283  0.01506875  1
  P  P265  1  0.30354148  0.25013687  0.26568452  1
  P  P266  1  0.30258244  0.25077112  0.51395736  1
  P  P267  1  0.30254257  0.25098138  0.76521721  1
  P  P268  1  0.30326872  0.58455534  0.01375791  1
  P  P269  1  0.30147971  0.58476498  0.26508443  1
  P  P270  1  0.30101790  0.58301642  0.51484070  1
  P  P271  1  0.30400990  0.58295196  0.76542702  1
  P  P272  1  0.30356280  0.91585202  0.01396861  1
  P  P273  1  0.30319547  0.91537175  0.26409127  1
  P  P274  1  0.30461126  0.91615891  0.51476868  1
  P  P275  1  0.30524065  0.91618497  0.76481476  1
  P  P276  1  0.80605452  0.24877796  0.01457645  1
  P  P277  1  0.80496642  0.25029475  0.26384066  1
  P  P278  1  0.80484946  0.25008096  0.51539921  1
  P  P279  1  0.80539417  0.25112209  0.76442844  1
  P  P280  1  0.80167807  0.58518198  0.01515263  1
  P  P281  1  0.80284882  0.58355016  0.26574430  1
  P  P282  1  0.80485655  0.58451460  0.51407239  1
  P  P283  1  0.80540044  0.58334245  0.76337031  1
  P  P284  1  0.80469553  0.91590778  0.01440660  1
  P  P285  1  0.80500120  0.91614092  0.26378603  1
  P  P286  1  0.80457242  0.91526584  0.51527519  1
  P  P287  1  0.80628641  0.91549097  0.76450245  1
  O  O288  1  0.05681155  0.25041431  0.18609845  1
  O  O289  1  0.05896741  0.25046751  0.43806071  1
  O  O290  1  0.05564800  0.25065469  0.68664636  1
  O  O291  1  0.05756824  0.25012456  0.93809675  1
  O  O292  1  0.05926290  0.58416504  0.18696340  1
  O  O293  1  0.05796550  0.58351150  0.43735242  1
  O  O294  1  0.05588411  0.58329161  0.68703186  1
  O  O295  1  0.05922589  0.58394013  0.93822658  1
  O  O296  1  0.05920482  0.91536143  0.18707083  1
  O  O297  1  0.05647173  0.91598276  0.43608929  1
  O  O298  1  0.05525786  0.91583071  0.68734765  1
  O  O299  1  0.05795138  0.91577207  0.93836152  1
  O  O300  1  0.55565534  0.25014170  0.18617065  1
  O  O301  1  0.55559166  0.25001769  0.43703650  1
  O  O302  1  0.56005419  0.25064338  0.68794502  1
  O  O303  1  0.55797446  0.25003734  0.93549537  1
  O  O304  1  0.55902176  0.58352803  0.18759233  1
  O  O305  1  0.55968218  0.58361277  0.43770481  1
  O  O306  1  0.55706662  0.58332457  0.68619130  1
  O  O307  1  0.55843931  0.58422034  0.93787938  1
  O  O308  1  0.55611696  0.91630324  0.18587646  1
  O  O309  1  0.55593317  0.91603680  0.43650969  1
  O  O310  1  0.55647377  0.91593304  0.68685171  1
  O  O311  1  0.55935259  0.91639757  0.93832732  1
  O  O312  1  0.44257510  0.08296999  0.06286353  1
  O  O313  1  0.44274425  0.08326457  0.31317919  1
  O  O314  1  0.44306382  0.08326626  0.56352625  1
  O  O315  1  0.44380720  0.08333713  0.81348701  1
  O  O316  1  0.44387810  0.41749099  0.06331333  1
  O  O317  1  0.44272112  0.41748360  0.31434319  1
  O  O318  1  0.43942661  0.41719877  0.56255364  1
  O  O319  1  0.44086679  0.41706636  0.81184182  1
  O  O320  1  0.43951872  0.74981380  0.06249710  1
  O  O321  1  0.44074435  0.74925788  0.31175553  1
  O  O322  1  0.44395696  0.74932065  0.56313948  1
  O  O323  1  0.44363859  0.74936391  0.81407355  1
  O  O324  1  0.94240589  0.08225016  0.06179819  1
  O  O325  1  0.94576977  0.08300810  0.31264155  1
  O  O326  1  0.94474626  0.08329157  0.56307035  1
  O  O327  1  0.94375308  0.08303673  0.81429312  1
  O  O328  1  0.94362857  0.41752488  0.06317568  1
  O  O329  1  0.94447201  0.41786591  0.31269414  1
  O  O330  1  0.94491526  0.41727758  0.56359499  1
  O  O331  1  0.94132480  0.41726200  0.81246484  1
  O  O332  1  0.94154968  0.74968360  0.06170168  1
  O  O333  1  0.94402018  0.74918501  0.31323220  1
  O  O334  1  0.94160120  0.74939881  0.56256178  1
  O  O335  1  0.94126667  0.74950575  0.81320509  1
  O  O336  1  0.18994578  0.08282299  0.06246637  1
  O  O337  1  0.19064626  0.08247149  0.31206948  1
  O  O338  1  0.19297881  0.08275735  0.56149487  1
  O  O339  1  0.19018380  0.08253045  0.81295963  1
  O  O340  1  0.19340376  0.41658481  0.06169417  1
  O  O341  1  0.19148196  0.41744551  0.31302585  1
  O  O342  1  0.19024758  0.41715758  0.56281338  1
  O  O343  1  0.19287628  0.41701385  0.81090361  1
  O  O344  1  0.19166851  0.75089336  0.06203451  1
  O  O345  1  0.19096962  0.75030985  0.31227864  1
  O  O346  1  0.18927340  0.75002357  0.56287189  1
  O  O347  1  0.19037769  0.75079167  0.81223503  1
  O  O348  1  0.69491882  0.08238699  0.06168131  1
  O  O349  1  0.69329352  0.08321910  0.31124746  1
  O  O350  1  0.69459058  0.08274080  0.56122109  1
  O  O351  1  0.69449665  0.08295145  0.81179674  1
  O  O352  1  0.69131787  0.41686572  0.06266759  1
  O  O353  1  0.69298990  0.41623587  0.31134777  1
  O  O354  1  0.69429905  0.41682892  0.56182050  1
  O  O355  1  0.69479889  0.41671947  0.81160573  1
  O  O356  1  0.69329613  0.75065103  0.06117659  1
  O  O357  1  0.69106801  0.75077885  0.31308966  1
  O  O358  1  0.69192508  0.75055288  0.56246978  1
  O  O359  1  0.69104264  0.75031174  0.81226244  1
  O  O360  1  0.30650601  0.24985657  0.18887427  1
  O  O361  1  0.30731169  0.24981157  0.43724289  1
  O  O362  1  0.30552434  0.24992424  0.68855166  1
  O  O363  1  0.30514556  0.24977060  0.93842144  1
  O  O364  1  0.30539781  0.58397282  0.18838700  1
  O  O365  1  0.30523101  0.58408494  0.43822973  1
  O  O366  1  0.30670011  0.58436523  0.68865933  1
  O  O367  1  0.30826182  0.58423430  0.93716081  1
  O  O368  1  0.30758787  0.91653332  0.18740306  1
  O  O369  1  0.30863035  0.91593072  0.43795331  1
  O  O370  1  0.30952455  0.91576754  0.68803460  1
  O  O371  1  0.30870575  0.91640478  0.93730088  1
  O  O372  1  0.80988649  0.24993758  0.18709669  1
  O  O373  1  0.80811534  0.25023844  0.43857962  1
  O  O374  1  0.81017729  0.25038590  0.68769189  1
  O  O375  1  0.81000218  0.24922929  0.93770290  1
  O  O376  1  0.80702627  0.58384164  0.18909672  1
  O  O377  1  0.80951156  0.58368581  0.43742681  1
  O  O378  1  0.80940810  0.58341962  0.68667672  1
  O  O379  1  0.80574540  0.58453897  0.93841016  1
  O  O380  1  0.81000459  0.91609365  0.18710591  1
  O  O381  1  0.80758644  0.91587672  0.43842755  1
  O  O382  1  0.81039524  0.91608671  0.68771688  1
  O  O383  1  0.80909639  0.91623324  0.93759573  1
  O  O384  1  0.23054354  0.24972050  0.03931582  1
  O  O385  1  0.23372654  0.25043357  0.29031261  1
  O  O386  1  0.23216616  0.25076803  0.53770554  1
  O  O387  1  0.23284293  0.25095319  0.79044707  1
  O  O388  1  0.23284343  0.58428573  0.03727666  1
  O  O389  1  0.23145392  0.58457706  0.28960967  1
  O  O390  1  0.23090828  0.58290023  0.53918774  1
  O  O391  1  0.23428237  0.58362757  0.79050738  1
  O  O392  1  0.23299063  0.91611313  0.03704021  1
  O  O393  1  0.23285187  0.91550331  0.28789052  1
  O  O394  1  0.23446417  0.91625883  0.53882714  1
  O  O395  1  0.23507354  0.91630150  0.78858534  1
  O  O396  1  0.73592249  0.24965537  0.03840965  1
  O  O397  1  0.73484945  0.25050178  0.28761082  1
  O  O398  1  0.73514292  0.25043449  0.54027079  1
  O  O399  1  0.73505932  0.25026042  0.78833968  1
  O  O400  1  0.73163312  0.58487934  0.03939606  1
  O  O401  1  0.73266758  0.58356525  0.28968830  1
  O  O402  1  0.73453922  0.58416484  0.53788714  1
  O  O403  1  0.73536744  0.58339291  0.78783686  1
  O  O404  1  0.73437986  0.91558295  0.03831124  1
  O  O405  1  0.73489520  0.91606932  0.28756010  1
  O  O406  1  0.73495839  0.91590981  0.54062877  1
  O  O407  1  0.73607183  0.91646349  0.78827752  1
  O  O408  1  0.26410874  0.08262277  0.21078876  1
  O  O409  1  0.26523611  0.08291274  0.45919831  1
  O  O410  1  0.26507688  0.08335082  0.71228780  1
  O  O411  1  0.26361290  0.08277184  0.96119985  1
  O  O412  1  0.26515005  0.41754973  0.21144315  1
  O  O413  1  0.26501457  0.41737008  0.46216637  1
  O  O414  1  0.26705340  0.41702253  0.71001250  1
  O  O415  1  0.26577421  0.41710618  0.95957813  1
  O  O416  1  0.26543616  0.75010706  0.21140346  1
  O  O417  1  0.26385215  0.74979040  0.46218992  1
  O  O418  1  0.26475875  0.74947284  0.71162359  1
  O  O419  1  0.26602524  0.75049558  0.96127022  1
  O  O420  1  0.76696306  0.08304346  0.20989813  1
  O  O421  1  0.76749269  0.08301191  0.45920789  1
  O  O422  1  0.76729243  0.08364882  0.71012266  1
  O  O423  1  0.76918015  0.08230254  0.96063560  1
  O  O424  1  0.76543306  0.41737078  0.20913851  1
  O  O425  1  0.76721273  0.41742887  0.45992964  1
  O  O426  1  0.76874618  0.41694769  0.71029233  1
  O  O427  1  0.76539653  0.41711548  0.96175857  1
  O  O428  1  0.76503557  0.74938039  0.21189686  1
  O  O429  1  0.76666443  0.74953375  0.46191305  1
  O  O430  1  0.76681589  0.74982005  0.71260272  1
  O  O431  1  0.76710721  0.75054458  0.95998145  1
  O  O432  1  0.01752796  0.08278187  0.16199810  1
  O  O433  1  0.01939584  0.08262569  0.41404502  1
  O  O434  1  0.01625646  0.08315932  0.66609275  1
  O  O435  1  0.01685393  0.08243533  0.91565891  1
  O  O436  1  0.01659343  0.41687462  0.16496292  1
  O  O437  1  0.01844926  0.41789020  0.41383005  1
  O  O438  1  0.01775517  0.41719030  0.66570762  1
  O  O439  1  0.01502106  0.41634750  0.91359618  1
  O  O440  1  0.01733394  0.75048420  0.16153393  1
  O  O441  1  0.01744672  0.74947468  0.41444466  1
  O  O442  1  0.01586812  0.74941150  0.66360259  1
  O  O443  1  0.01616213  0.75058228  0.91345310  1
  O  O444  1  0.51544531  0.08281840  0.16489647  1
  O  O445  1  0.51526621  0.08274130  0.41565188  1
  O  O446  1  0.51628118  0.08198160  0.66530369  1
  O  O447  1  0.51649781  0.08275847  0.91537174  1
  O  O448  1  0.51781846  0.41668926  0.16468986  1
  O  O449  1  0.51502718  0.41644090  0.41638064  1
  O  O450  1  0.51460489  0.41770194  0.66283955  1
  O  O451  1  0.51536316  0.41774274  0.91239732  1
  O  O452  1  0.51380857  0.75022376  0.16290896  1
  O  O453  1  0.51619560  0.75049413  0.41200445  1
  O  O454  1  0.51808499  0.74994760  0.66452847  1
  O  O455  1  0.51662015  0.75016917  0.91587644  1
  O  O456  1  0.48356860  0.25054020  0.08350846  1
  O  O457  1  0.48114069  0.25020472  0.33616032  1
  O  O458  1  0.48445807  0.24980469  0.58805738  1
  O  O459  1  0.48469507  0.24981072  0.83411183  1
  O  O460  1  0.48493745  0.58377130  0.08675921  1
  O  O461  1  0.48520106  0.58340123  0.33691150  1
  O  O462  1  0.48472740  0.58419253  0.58393458  1
  O  O463  1  0.48336607  0.58441172  0.83737887  1
  O  O464  1  0.48204340  0.91639497  0.08518500  1
  O  O465  1  0.48157733  0.91623774  0.33558138  1
  O  O466  1  0.48245173  0.91563011  0.58555647  1
  O  O467  1  0.48352093  0.91536759  0.83856004  1
  O  O468  1  0.98269134  0.24933399  0.08529416  1
  O  O469  1  0.98581481  0.25005787  0.33611111  1
  O  O470  1  0.98277519  0.25053254  0.58485246  1
  O  O471  1  0.98250417  0.24914275  0.83781403  1
  O  O472  1  0.98558892  0.58386851  0.08574251  1
  O  O473  1  0.98408351  0.58418829  0.33595797  1
  O  O474  1  0.98251375  0.58339975  0.58558390  1
  O  O475  1  0.98464890  0.58440659  0.83766887  1
  O  O476  1  0.98449299  0.91613807  0.08663973  1
  O  O477  1  0.98504461  0.91581822  0.33323206  1
  O  O478  1  0.98181535  0.91573100  0.58575758  1
  O  O479  1  0.98297162  0.91628705  0.83797039  1
  O  O480  1  0.08634353  0.31453909  0.07611798  1
  O  O481  1  0.08892508  0.31571345  0.32852859  1
  O  O482  1  0.08650407  0.31649656  0.57768196  1
  O  O483  1  0.08606151  0.31372762  0.82758837  1
  O  O484  1  0.08912447  0.64983362  0.07744895  1
  O  O485  1  0.08796662  0.64904785  0.32780313  1
  O  O486  1  0.08654299  0.64823774  0.57756754  1
  O  O487  1  0.08792547  0.64991496  0.82870543  1
  O  O488  1  0.08831780  0.98101020  0.07737766  1
  O  O489  1  0.08917032  0.98055987  0.32703684  1
  O  O490  1  0.08579318  0.98038072  0.57797116  1
  O  O491  1  0.08641760  0.98154397  0.82863688  1
  O  O492  1  0.58735778  0.31593390  0.07747898  1
  O  O493  1  0.58515090  0.31495624  0.32760602  1
  O  O494  1  0.58754378  0.31534701  0.57758134  1
  O  O495  1  0.58861733  0.31501717  0.82602284  1
  O  O496  1  0.58908428  0.64746445  0.07745430  1
  O  O497  1  0.58846730  0.64962411  0.32800546  1
  O  O498  1  0.58871739  0.64960416  0.57759234  1
  O  O499  1  0.58679698  0.65030290  0.82848868  1
  O  O500  1  0.58632705  0.98146515  0.07640207  1
  O  O501  1  0.58560625  0.98075188  0.32700209  1
  O  O502  1  0.58630615  0.98026244  0.57705563  1
  O  O503  1  0.58714697  0.98027640  0.82769700  1
  O  O504  1  0.41184538  0.01705145  0.17172325  1
  O  O505  1  0.41134800  0.01791113  0.42178253  1
  O  O506  1  0.41244182  0.01682554  0.67210222  1
  O  O507  1  0.41254920  0.01751580  0.92221465  1
  O  O508  1  0.41351865  0.35219640  0.17224449  1
  O  O509  1  0.41087768  0.35118586  0.42300629  1
  O  O510  1  0.41097344  0.35231865  0.67270856  1
  O  O511  1  0.41191852  0.35274366  0.92206021  1
  O  O512  1  0.40989718  0.68610566  0.17302014  1
  O  O513  1  0.41294455  0.68526571  0.42246637  1
  O  O514  1  0.41418906  0.68528044  0.67278026  1
  O  O515  1  0.41276490  0.68451907  0.92361715  1
  O  O516  1  0.91421289  0.01736683  0.17182376  1
  O  O517  1  0.91544213  0.01791538  0.42183730  1
  O  O518  1  0.91240339  0.01835037  0.67188127  1
  O  O519  1  0.91283182  0.01753515  0.92343206  1
  O  O520  1  0.91319966  0.35111939  0.17190379  1
  O  O521  1  0.91464889  0.35334953  0.42231659  1
  O  O522  1  0.91373274  0.35198244  0.67266150  1
  O  O523  1  0.91134777  0.35123366  0.92152067  1
  O  O524  1  0.91390962  0.68555296  0.17221587  1
  O  O525  1  0.91364823  0.68375253  0.42270153  1
  O  O526  1  0.91231718  0.68414123  0.67248232  1
  O  O527  1  0.91229033  0.68595040  0.92386397  1
  O  O528  1  0.16089320  0.01639830  0.20258250  1
  O  O529  1  0.16106506  0.01873969  0.45219255  1
  O  O530  1  0.16189002  0.01799876  0.70272561  1
  O  O531  1  0.16010029  0.01746767  0.95273056  1
  O  O532  1  0.16143364  0.35314060  0.20321781  1
  O  O533  1  0.16146874  0.35205957  0.45271913  1
  O  O534  1  0.16291041  0.35219847  0.70138075  1
  O  O535  1  0.16211528  0.35164947  0.95254562  1
  O  O536  1  0.16163555  0.68509160  0.20244669  1
  O  O537  1  0.16042633  0.68396205  0.45326986  1
  O  O538  1  0.16047741  0.68541234  0.70269699  1
  O  O539  1  0.16208993  0.68558442  0.95228358  1
  O  O540  1  0.66309511  0.01831657  0.20187337  1
  O  O541  1  0.66371564  0.01785513  0.45214571  1
  O  O542  1  0.66357083  0.01898497  0.70229936  1
  O  O543  1  0.66555226  0.01659580  0.95233579  1
  O  O544  1  0.66144867  0.35263006  0.20159937  1
  O  O545  1  0.66340971  0.35261163  0.45228106  1
  O  O546  1  0.66532380  0.35075578  0.70234497  1
  O  O547  1  0.66175247  0.35275478  0.95263142  1
  O  O548  1  0.66134725  0.68427471  0.20402004  1
  O  O549  1  0.66258596  0.68450931  0.45302576  1
  O  O550  1  0.66295548  0.68518291  0.70207241  1
  O  O551  1  0.66287341  0.68558539  0.95179696  1
  O  O552  1  0.33440701  0.31489734  0.04790475  1
  O  O553  1  0.33780667  0.31504163  0.29807097  1
  O  O554  1  0.33588590  0.31589844  0.54676273  1
  O  O555  1  0.33669624  0.31628114  0.79704422  1
  O  O556  1  0.33618360  0.64970015  0.04713138  1
  O  O557  1  0.33510055  0.64988961  0.29776009  1
  O  O558  1  0.33455707  0.64803444  0.54820173  1
  O  O559  1  0.33856138  0.64762553  0.79842903  1
  O  O560  1  0.33666529  0.98076982  0.04788127  1
  O  O561  1  0.33663658  0.98022062  0.29783608  1
  O  O562  1  0.33828868  0.98109843  0.54772555  1
  O  O563  1  0.33892132  0.98101029  0.79806865  1
  O  O564  1  0.84002461  0.31358597  0.04769663  1
  O  O565  1  0.83844304  0.31543356  0.29686483  1
  O  O566  1  0.83932987  0.31504385  0.54782939  1
  O  O567  1  0.83836841  0.31643966  0.79740128  1
  O  O568  1  0.83538066  0.65028708  0.04775455  1
  O  O569  1  0.83672671  0.64840234  0.29889229  1
  O  O570  1  0.83810482  0.64965145  0.54723453  1
  O  O571  1  0.83876757  0.64857448  0.79651431  1
  O  O572  1  0.83827363  0.98086582  0.04771903  1
  O  O573  1  0.83844459  0.98115138  0.29704532  1
  O  O574  1  0.83943163  0.97993237  0.54772187  1
  O  O575  1  0.84036276  0.98011147  0.79781623  1
  O  O576  1  0.41137495  0.14727569  0.17201677  1
  O  O577  1  0.41180853  0.14834863  0.42249679  1
  O  O578  1  0.41256574  0.14712132  0.67305790  1
  O  O579  1  0.41261942  0.14770497  0.92274815  1
  O  O580  1  0.41432834  0.48222341  0.17314335  1
  O  O581  1  0.41091868  0.48125858  0.42373200  1
  O  O582  1  0.41076076  0.48233608  0.67233997  1
  O  O583  1  0.41191502  0.48309247  0.92157513  1
  O  O584  1  0.41031305  0.81618454  0.17181855  1
  O  O585  1  0.41223413  0.81528332  0.42132225  1
  O  O586  1  0.41418985  0.81521023  0.67242695  1
  O  O587  1  0.41205217  0.81439312  0.92321709  1
  O  O588  1  0.91399290  0.14773616  0.17172332  1
  O  O589  1  0.91568685  0.14791243  0.42209924  1
  O  O590  1  0.91285164  0.14870176  0.67187135  1
  O  O591  1  0.91283993  0.14759162  0.92359735  1
  O  O592  1  0.91286234  0.48155928  0.17250645  1
  O  O593  1  0.91485754  0.48341643  0.42209408  1
  O  O594  1  0.91358641  0.48205573  0.67283761  1
  O  O595  1  0.91167099  0.48142663  0.92265439  1
  O  O596  1  0.91375061  0.81563782  0.17154056  1
  O  O597  1  0.91309698  0.81354822  0.42281159  1
  O  O598  1  0.91200391  0.81423069  0.67255127  1
  O  O599  1  0.91233149  0.81573442  0.92281877  1
  O  O600  1  0.08683694  0.18453688  0.07694629  1
  O  O601  1  0.08936658  0.18525821  0.32862848  1
  O  O602  1  0.08735646  0.18650131  0.57733754  1
  O  O603  1  0.08584738  0.18348793  0.82872506  1
  O  O604  1  0.08974227  0.51979226  0.07719169  1
  O  O605  1  0.08796654  0.51898889  0.32740474  1
  O  O606  1  0.08645832  0.51830268  0.57756787  1
  O  O607  1  0.08805030  0.51962597  0.82808055  1
  O  O608  1  0.08820374  0.85107035  0.07660797  1
  O  O609  1  0.08869749  0.85045332  0.32727102  1
  O  O610  1  0.08547640  0.85046445  0.57798126  1
  O  O611  1  0.08653151  0.85136235  0.82811037  1
  O  O612  1  0.58749463  0.18571311  0.07707630  1
  O  O613  1  0.58491933  0.18490568  0.32736305  1
  O  O614  1  0.58804797  0.18503946  0.57805622  1
  O  O615  1  0.58905692  0.18497438  0.82659829  1
  O  O616  1  0.58819062  0.51739696  0.07790825  1
  O  O617  1  0.58940518  0.51950337  0.32784547  1
  O  O618  1  0.58895554  0.51960038  0.57675491  1
  O  O619  1  0.58725299  0.52022317  0.82734092  1
  O  O620  1  0.58618632  0.85163349  0.07627502  1
  O  O621  1  0.58525266  0.85064175  0.32696509  1
  O  O622  1  0.58615662  0.85021732  0.57749560  1
  O  O623  1  0.58708699  0.85017818  0.82861159  1
  O  O624  1  0.33429154  0.18473516  0.04788490  1
  O  O625  1  0.33729056  0.18490774  0.29827462  1
  O  O626  1  0.33563291  0.18578895  0.54771232  1
  O  O627  1  0.33649758  0.18605934  0.79822616  1
  O  O628  1  0.33643800  0.51956855  0.04750416  1
  O  O629  1  0.33535997  0.51984200  0.29801399  1
  O  O630  1  0.33501858  0.51805078  0.54717528  1
  O  O631  1  0.33783453  0.51755994  0.79726643  1
  O  O632  1  0.33668322  0.85077959  0.04726859  1
  O  O633  1  0.33652517  0.85020267  0.29710804  1
  O  O634  1  0.33820165  0.85114644  0.54793374  1
  O  O635  1  0.33870037  0.85103441  0.79801633  1
  O  O636  1  0.83918951  0.18338940  0.04737391  1
  O  O637  1  0.83841848  0.18529381  0.29715486  1
  O  O638  1  0.83899095  0.18507194  0.54781841  1
  O  O639  1  0.83916004  0.18630590  0.79796431  1
  O  O640  1  0.83551936  0.52023444  0.04811900  1
  O  O641  1  0.83670637  0.51856151  0.29861174  1
  O  O642  1  0.83859892  0.51973214  0.54773608  1
  O  O643  1  0.83893141  0.51835481  0.79642089  1
  O  O644  1  0.83835549  0.85081470  0.04735318  1
  O  O645  1  0.83836429  0.85104972  0.29699636  1
  O  O646  1  0.83843548  0.84985006  0.54734896  1
  O  O647  1  0.83920992  0.85008956  0.79751409  1
  O  O648  1  0.15984219  0.14647725  0.20220805  1
  O  O649  1  0.16172104  0.14895808  0.45281712  1
  O  O650  1  0.16143946  0.14815786  0.70343720  1
  O  O651  1  0.15974003  0.14768597  0.95274542  1
  O  O652  1  0.16181956  0.48331243  0.20374159  1
  O  O653  1  0.16108021  0.48212547  0.45285896  1
  O  O654  1  0.16311782  0.48200182  0.70141485  1
  O  O655  1  0.16200692  0.48196966  0.95272781  1
  O  O656  1  0.16180277  0.81503070  0.20193936  1
  O  O657  1  0.16005264  0.81401938  0.45252351  1
  O  O658  1  0.16131349  0.81520460  0.70202075  1
  O  O659  1  0.16220472  0.81550790  0.95182256  1
  O  O660  1  0.66338480  0.14853823  0.20193761  1
  O  O661  1  0.66368733  0.14816281  0.45224436  1
  O  O662  1  0.66382452  0.14935824  0.70301183  1
  O  O663  1  0.66511979  0.14678205  0.95219005  1
  O  O664  1  0.66160306  0.48277280  0.20295263  1
  O  O665  1  0.66339922  0.48279263  0.45323166  1
  O  O666  1  0.66445057  0.48083509  0.70215108  1
  O  O667  1  0.66225066  0.48315698  0.95314281  1
  O  O668  1  0.66157304  0.81425469  0.20249966  1
  O  O669  1  0.66282830  0.81443606  0.45194912  1
  O  O670  1  0.66326193  0.81513232  0.70189986  1
  O  O671  1  0.66313832  0.81562512  0.95175588  1
