# generated using pymatgen
data_Na2MnFe(PO4)2
_symmetry_space_group_name_H-M   'P 1'
_cell_length_a   21.08945892
_cell_length_b   18.94173760
_cell_length_c   20.04779988
_cell_angle_alpha   90.00091732
_cell_angle_beta   90.00111089
_cell_angle_gamma   89.99894833
_symmetry_Int_Tables_number   1
_chemical_formula_structural   Na2MnFe(PO4)2
_chemical_formula_sum   'Na96 Mn48 Fe48 P96 O384'
_cell_volume   8008.51459975
_cell_formula_units_Z   48
loop_
 _symmetry_equiv_pos_site_id
 _symmetry_equiv_pos_as_xyz
  1  'x, y, z'
loop_
 _atom_site_type_symbol
 _atom_site_label
 _atom_site_symmetry_multiplicity
 _atom_site_fract_x
 _atom_site_fract_y
 _atom_site_fract_z
 _atom_site_occupancy
  Na  Na0  1  -0.00260299  -0.00051211  -0.00038876  1
  Na  Na1  1  -0.00357221  -0.00070260  0.24996168  1
  Na  Na2  1  -0.00237410  -0.00010240  0.50061390  1
  Na  Na3  1  -0.00065237  0.00028167  0.74868881  1
  Na  Na4  1  0.00015693  0.33383296  0.00024461  1
  Na  Na5  1  0.00194832  0.33391359  0.24965303  1
  Na  Na6  1  0.00156552  0.33382664  0.50003821  1
  Na  Na7  1  -0.00000413  0.33398863  0.74998841  1
  Na  Na8  1  0.00229575  0.66826061  -0.00093337  1
  Na  Na9  1  -0.00144225  0.66603334  0.25142114  1
  Na  Na10  1  -0.00010783  0.66665956  0.49913594  1
  Na  Na11  1  0.00026653  0.66652429  0.75024490  1
  Na  Na12  1  0.50022121  -0.00043797  0.00046887  1
  Na  Na13  1  0.49965844  -0.00077250  0.24930955  1
  Na  Na14  1  0.49839447  -0.00092066  0.50112730  1
  Na  Na15  1  0.49832259  -0.00119460  0.74974204  1
  Na  Na16  1  0.50085269  0.33333475  -0.00029037  1
  Na  Na17  1  0.50181889  0.33381345  0.25073225  1
  Na  Na18  1  0.49932934  0.33258699  0.50083005  1
  Na  Na19  1  0.50055108  0.33355825  0.74896689  1
  Na  Na20  1  0.50011061  0.66604489  -0.00079895  1
  Na  Na21  1  0.49924217  0.66588561  0.25112703  1
  Na  Na22  1  0.50012441  0.66679758  0.49995978  1
  Na  Na23  1  0.50022874  0.66680992  0.75003021  1
  Na  Na24  1  0.25002259  0.00001837  0.12452560  1
  Na  Na25  1  0.25138122  0.00024557  0.37572723  1
  Na  Na26  1  0.25227405  0.00017815  0.62516892  1
  Na  Na27  1  0.24992645  -0.00051299  0.87470355  1
  Na  Na28  1  0.24834713  0.33315218  0.12536023  1
  Na  Na29  1  0.24828740  0.33303422  0.37414559  1
  Na  Na30  1  0.25139123  0.33427298  0.62593144  1
  Na  Na31  1  0.24978367  0.33316074  0.87511238  1
  Na  Na32  1  0.24970168  0.66657532  0.12417778  1
  Na  Na33  1  0.25124213  0.66733686  0.37446796  1
  Na  Na34  1  0.24867618  0.66607674  0.62545860  1
  Na  Na35  1  0.25019349  0.66715471  0.87586330  1
  Na  Na36  1  0.75270144  -0.00027154  0.12472115  1
  Na  Na37  1  0.75220729  0.00048604  0.37465350  1
  Na  Na38  1  0.75172503  0.00035885  0.62456512  1
  Na  Na39  1  0.75339610  0.00048722  0.87544208  1
  Na  Na40  1  0.74956222  0.33398284  0.12588295  1
  Na  Na41  1  0.74699477  0.33236033  0.37516541  1
  Na  Na42  1  0.74926723  0.33354732  0.62442154  1
  Na  Na43  1  0.74860270  0.33331021  0.87462294  1
  Na  Na44  1  0.74937759  0.66589676  0.12549500  1
  Na  Na45  1  0.75172763  0.66752445  0.37593408  1
  Na  Na46  1  0.74932905  0.66624913  0.62430045  1
  Na  Na47  1  0.75008143  0.66671233  0.87429228  1
  Na  Na48  1  0.00000427  0.16606498  -0.00000642  1
  Na  Na49  1  -0.00119604  0.16678559  0.25045673  1
  Na  Na50  1  -0.00080875  0.16723954  0.49908360  1
  Na  Na51  1  -0.00017695  0.16631074  0.74920760  1
  Na  Na52  1  0.00049253  0.49917325  -0.00024920  1
  Na  Na53  1  0.00073459  0.49963809  0.25018590  1
  Na  Na54  1  0.00004327  0.50011017  0.50030608  1
  Na  Na55  1  -0.00185682  0.50070079  0.75017575  1
  Na  Na56  1  -0.00087792  0.83352897  -0.00093789  1
  Na  Na57  1  -0.00192321  0.83364822  0.25080390  1
  Na  Na58  1  -0.00034264  0.83312707  0.50002231  1
  Na  Na59  1  0.00158427  0.83251499  0.74942745  1
  Na  Na60  1  0.49934125  0.16731766  -0.00052407  1
  Na  Na61  1  0.50079014  0.16722496  0.25079578  1
  Na  Na62  1  0.50014215  0.16700526  0.50036811  1
  Na  Na63  1  0.49959349  0.16687602  0.75020005  1
  Na  Na64  1  0.50059306  0.49953802  -0.00035758  1
  Na  Na65  1  0.49801968  0.50101607  0.25060143  1
  Na  Na66  1  0.49991125  0.49933449  0.50088474  1
  Na  Na67  1  0.49835863  0.50054392  0.74914786  1
  Na  Na68  1  0.50157246  0.83336209  0.00033541  1
  Na  Na69  1  0.50133806  0.83277981  0.24966070  1
  Na  Na70  1  0.49766199  0.83444068  0.50070710  1
  Na  Na71  1  0.50085898  0.83312705  0.74919690  1
  Na  Na72  1  0.24928984  0.16675255  0.12479543  1
  Na  Na73  1  0.24816457  0.16792373  0.37453178  1
  Na  Na74  1  0.25071747  0.16646051  0.62599068  1
  Na  Na75  1  0.25015456  0.16659674  0.87441058  1
  Na  Na76  1  0.25021375  0.49983713  0.12525284  1
  Na  Na77  1  0.24957254  0.50043938  0.37379149  1
  Na  Na78  1  0.25194055  0.49919515  0.62540243  1
  Na  Na79  1  0.25066669  0.49969281  0.87618292  1
  Na  Na80  1  0.24834656  0.83406547  0.12401861  1
  Na  Na81  1  0.25186922  0.83254169  0.37623832  1
  Na  Na82  1  0.24944346  0.83359621  0.62515638  1
  Na  Na83  1  0.24899862  0.83369604  0.87507850  1
  Na  Na84  1  0.75267488  0.16618788  0.12533866  1
  Na  Na85  1  0.75135587  0.16659779  0.37542527  1
  Na  Na86  1  0.74962922  0.16721459  0.62441236  1
  Na  Na87  1  0.75091686  0.16654456  0.87487209  1
  Na  Na88  1  0.74950324  0.49956885  0.12651104  1
  Na  Na89  1  0.74940821  0.50056064  0.37522800  1
  Na  Na90  1  0.75071238  0.49995005  0.62523423  1
  Na  Na91  1  0.75028263  0.50003276  0.87341635  1
  Na  Na92  1  0.75044027  0.83318965  0.12386830  1
  Na  Na93  1  0.74990316  0.83315037  0.37541715  1
  Na  Na94  1  0.74919102  0.83390314  0.62382946  1
  Na  Na95  1  0.75089535  0.83301904  0.87616538  1
  Mn  Mn96  1  0.35785604  0.75026578  0.00236159  1
  Mn  Mn97  1  0.14291528  0.91688966  0.49752253  1
  Mn  Mn98  1  0.89191643  0.24981478  0.87690238  1
  Mn  Mn99  1  0.35810857  0.41617013  0.00220952  1
  Mn  Mn100  1  0.14266401  0.24965377  0.74770131  1
  Mn  Mn101  1  0.39302530  0.24991425  0.87721445  1
  Mn  Mn102  1  0.60771084  0.08274325  0.62354178  1
  Mn  Mn103  1  0.60861538  0.08316646  0.87249663  1
  Mn  Mn104  1  0.35747316  0.74995023  0.75246305  1
  Mn  Mn105  1  0.35777345  0.08360181  0.00204437  1
  Mn  Mn106  1  0.64184653  0.91719029  0.49747743  1
  Mn  Mn107  1  0.85823735  0.74876927  0.00261043  1
  Mn  Mn108  1  0.85759035  0.74991851  0.50284397  1
  Mn  Mn109  1  0.10670505  0.08331268  0.37302264  1
  Mn  Mn110  1  0.35823276  0.75056991  0.25131647  1
  Mn  Mn111  1  0.39189476  0.58342007  0.62710805  1
  Mn  Mn112  1  0.35723465  0.41623727  0.25218671  1
  Mn  Mn113  1  0.64356987  0.91668738  0.99743165  1
  Mn  Mn114  1  0.89186378  0.25112426  0.62706162  1
  Mn  Mn115  1  0.85790936  0.41662068  0.25322368  1
  Mn  Mn116  1  0.89218353  0.91553506  0.62793483  1
  Mn  Mn117  1  0.35789850  0.08332031  0.25220748  1
  Mn  Mn118  1  0.60703029  0.74976031  0.37273615  1
  Mn  Mn119  1  0.60817040  0.75001200  0.87220282  1
  Mn  Mn120  1  0.85753520  0.41628547  0.50148563  1
  Mn  Mn121  1  0.39263311  0.91629602  0.12759516  1
  Mn  Mn122  1  0.89231320  0.25043179  0.12767028  1
  Mn  Mn123  1  0.10753438  0.75025642  0.37272125  1
  Mn  Mn124  1  0.10821907  0.41748249  0.62294060  1
  Mn  Mn125  1  0.89209936  0.58364794  0.87771204  1
  Mn  Mn126  1  0.60731992  0.41703137  0.62271146  1
  Mn  Mn127  1  0.14128440  0.91702669  0.24834955  1
  Mn  Mn128  1  0.35794106  0.08405427  0.50240651  1
  Mn  Mn129  1  0.60823589  0.08326827  0.37249269  1
  Mn  Mn130  1  0.64195014  0.58373879  0.24842039  1
  Mn  Mn131  1  0.64266002  0.58386653  0.74733780  1
  Mn  Mn132  1  0.14204712  0.58370996  0.24760392  1
  Mn  Mn133  1  0.10655527  0.08239236  0.12282573  1
  Mn  Mn134  1  0.60777361  0.41729800  0.12282221  1
  Mn  Mn135  1  0.64266040  0.25027428  0.99809239  1
  Mn  Mn136  1  0.10782024  0.08316569  0.62244592  1
  Mn  Mn137  1  0.14250194  0.58348169  0.74792690  1
  Mn  Mn138  1  0.14235166  0.58329248  0.99804536  1
  Mn  Mn139  1  0.89204468  0.58382465  0.12677411  1
  Mn  Mn140  1  0.14085644  0.91721161  0.99746335  1
  Mn  Mn141  1  0.60876809  0.08321687  0.12290151  1
  Mn  Mn142  1  0.14186426  0.24957231  0.99754745  1
  Mn  Mn143  1  0.39209066  0.24993770  0.37747250  1
  Fe  Fe144  1  0.10723189  0.74952879  0.62321643  1
  Fe  Fe145  1  0.35774560  0.41641532  0.75280016  1
  Fe  Fe146  1  0.39284197  0.91607066  0.87650946  1
  Fe  Fe147  1  0.39273042  0.91624203  0.37610989  1
  Fe  Fe148  1  0.60822107  0.74942735  0.12384138  1
  Fe  Fe149  1  0.14284053  0.25055682  0.49864869  1
  Fe  Fe150  1  0.14271820  0.58272911  0.49835021  1
  Fe  Fe151  1  0.64216532  0.58277587  0.99827254  1
  Fe  Fe152  1  0.39264583  0.91671653  0.62777412  1
  Fe  Fe153  1  0.10674645  0.08310186  0.87272351  1
  Fe  Fe154  1  0.85738449  0.08334569  0.75139375  1
  Fe  Fe155  1  0.85837550  0.08432326  0.00152934  1
  Fe  Fe156  1  0.89151615  0.91643217  0.37686688  1
  Fe  Fe157  1  0.10697339  0.41739909  0.12291171  1
  Fe  Fe158  1  0.39223605  0.58340927  0.37772942  1
  Fe  Fe159  1  0.10713369  0.75048562  0.87265163  1
  Fe  Fe160  1  0.60767951  0.41690425  0.87291353  1
  Fe  Fe161  1  0.39333831  0.58313941  0.12628112  1
  Fe  Fe162  1  0.85717655  0.08333847  0.25218222  1
  Fe  Fe163  1  0.64222491  0.25033107  0.49808379  1
  Fe  Fe164  1  0.35712132  0.74923352  0.50231681  1
  Fe  Fe165  1  0.35679942  0.41674772  0.50082203  1
  Fe  Fe166  1  0.89282010  0.58261860  0.37727115  1
  Fe  Fe167  1  0.85690060  0.08416298  0.50151697  1
  Fe  Fe168  1  0.85703984  0.41645252  0.75191525  1
  Fe  Fe169  1  0.85699519  0.41677553  0.00118581  1
  Fe  Fe170  1  0.10764483  0.41661146  0.37409160  1
  Fe  Fe171  1  0.39329296  0.58369173  0.87690522  1
  Fe  Fe172  1  0.64347360  0.91688568  0.24871452  1
  Fe  Fe173  1  0.64302609  0.24931176  0.74824370  1
  Fe  Fe174  1  0.89324083  0.91637206  0.87510562  1
  Fe  Fe175  1  0.39241334  0.24937256  0.62655123  1
  Fe  Fe176  1  0.14283064  0.91702134  0.74842592  1
  Fe  Fe177  1  0.60738643  0.75023702  0.62365538  1
  Fe  Fe178  1  0.64330530  0.91716909  0.74898046  1
  Fe  Fe179  1  0.85723841  0.75003294  0.25129493  1
  Fe  Fe180  1  0.85747671  0.75040484  0.75101366  1
  Fe  Fe181  1  0.39272592  0.25035750  0.12717098  1
  Fe  Fe182  1  0.14187416  0.24942982  0.24798894  1
  Fe  Fe183  1  0.89274762  0.58355820  0.62598530  1
  Fe  Fe184  1  0.89280266  0.25080050  0.37691994  1
  Fe  Fe185  1  0.89227735  0.91561189  0.12716269  1
  Fe  Fe186  1  0.64266046  0.58291620  0.49805937  1
  Fe  Fe187  1  0.10656777  0.75010444  0.12402909  1
  Fe  Fe188  1  0.35735519  0.08315895  0.75235883  1
  Fe  Fe189  1  0.10693726  0.41657364  0.87315073  1
  Fe  Fe190  1  0.64325462  0.24906556  0.24849830  1
  Fe  Fe191  1  0.60647097  0.41710541  0.37426861  1
  P  P192  1  0.05419186  0.25032300  0.11105348  1
  P  P193  1  0.05400825  0.25066777  0.36084900  1
  P  P194  1  0.05397656  0.25021439  0.60921137  1
  P  P195  1  0.05321767  0.24988248  0.85980147  1
  P  P196  1  0.05315627  0.58390883  0.11003274  1
  P  P197  1  0.05371659  0.58255997  0.36164654  1
  P  P198  1  0.05302407  0.58416945  0.60953440  1
  P  P199  1  0.05360176  0.58303362  0.86017604  1
  P  P200  1  0.05118611  0.91566216  0.11012194  1
  P  P201  1  0.05111367  0.91714382  0.36049910  1
  P  P202  1  0.05461236  0.91583053  0.61081647  1
  P  P203  1  0.05274236  0.91723058  0.85918346  1
  P  P204  1  0.55358219  0.24982900  0.11119802  1
  P  P205  1  0.55525800  0.25099932  0.36097547  1
  P  P206  1  0.55412339  0.24951548  0.61091265  1
  P  P207  1  0.55480573  0.25082390  0.85920333  1
  P  P208  1  0.55314791  0.58400315  0.10979886  1
  P  P209  1  0.55273672  0.58235834  0.36180414  1
  P  P210  1  0.55397006  0.58412963  0.60950430  1
  P  P211  1  0.55360260  0.58240825  0.86061717  1
  P  P212  1  0.55575813  0.91589214  0.11124809  1
  P  P213  1  0.55270686  0.91657016  0.35947363  1
  P  P214  1  0.55368940  0.91621182  0.61163609  1
  P  P215  1  0.55321140  0.91670591  0.85915477  1
  P  P216  1  0.44706510  0.08434245  0.14008804  1
  P  P217  1  0.44712477  0.08253666  0.39018303  1
  P  P218  1  0.44560503  0.08356722  0.64076208  1
  P  P219  1  0.44603833  0.08206827  0.88888112  1
  P  P220  1  0.44661416  0.41653583  0.14011003  1
  P  P221  1  0.44654361  0.41696887  0.39075848  1
  P  P222  1  0.44407125  0.41572321  0.63914258  1
  P  P223  1  0.44709936  0.41715538  0.88872791  1
  P  P224  1  0.44857492  0.74893146  0.13974859  1
  P  P225  1  0.44547187  0.75011066  0.39059374  1
  P  P226  1  0.44640828  0.75012440  0.63907005  1
  P  P227  1  0.44666685  0.75042805  0.88964911  1
  P  P228  1  0.94413631  0.08263987  0.13957455  1
  P  P229  1  0.94373190  0.08375574  0.38934789  1
  P  P230  1  0.94449417  0.08381968  0.63914483  1
  P  P231  1  0.94587470  0.08254866  0.88846947  1
  P  P232  1  0.94650032  0.41714053  0.13907900  1
  P  P233  1  0.94806037  0.41628930  0.39003675  1
  P  P234  1  0.94598186  0.41771370  0.64030842  1
  P  P235  1  0.94579276  0.41643145  0.88946145  1
  P  P236  1  0.94703420  0.75017793  0.14047500  1
  P  P237  1  0.94471344  0.74988850  0.38903375  1
  P  P238  1  0.94730906  0.74881967  0.64033919  1
  P  P239  1  0.94652296  0.75094923  0.88824538  1
  P  P240  1  0.19605141  0.08362885  0.23495911  1
  P  P241  1  0.19681905  0.08429989  0.48509274  1
  P  P242  1  0.19655156  0.08225084  0.73618562  1
  P  P243  1  0.19547356  0.08312626  0.98372458  1
  P  P244  1  0.19403819  0.41607615  0.23555330  1
  P  P245  1  0.19724717  0.41680577  0.48474356  1
  P  P246  1  0.19708638  0.41684640  0.73647403  1
  P  P247  1  0.19482761  0.41661801  0.98540901  1
  P  P248  1  0.19619566  0.75045559  0.23409237  1
  P  P249  1  0.19648065  0.74893143  0.48629866  1
  P  P250  1  0.19466657  0.75096696  0.73561194  1
  P  P251  1  0.19428256  0.75035203  0.98537925  1
  P  P252  1  0.69838305  0.08316269  0.23534719  1
  P  P253  1  0.69749936  0.08388523  0.48509631  1
  P  P254  1  0.69827681  0.08278052  0.73523455  1
  P  P255  1  0.69896464  0.08337636  0.98513025  1
  P  P256  1  0.69507095  0.41614201  0.23705316  1
  P  P257  1  0.69550455  0.41710843  0.48471358  1
  P  P258  1  0.69648354  0.41624353  0.73584241  1
  P  P259  1  0.69687919  0.41776338  0.98436880  1
  P  P260  1  0.69736641  0.75069902  0.23498980  1
  P  P261  1  0.69490999  0.74926939  0.48621872  1
  P  P262  1  0.69753742  0.75130133  0.73431064  1
  P  P263  1  0.69583220  0.74853534  0.98606410  1
  P  P264  1  0.30399926  0.25010201  0.01588430  1
  P  P265  1  0.30284196  0.25006787  0.26396327  1
  P  P266  1  0.30255989  0.25124076  0.51544674  1
  P  P267  1  0.30513302  0.24985225  0.76397389  1
  P  P268  1  0.30543839  0.58323366  0.01476328  1
  P  P269  1  0.30532040  0.58357354  0.26418753  1
  P  P270  1  0.30320640  0.58304882  0.51380258  1
  P  P271  1  0.30427669  0.58283005  0.76605012  1
  P  P272  1  0.30393208  0.91671297  0.01404125  1
  P  P273  1  0.30335820  0.91649771  0.26583769  1
  P  P274  1  0.30582963  0.91569097  0.51474977  1
  P  P275  1  0.30407991  0.91697525  0.76463027  1
  P  P276  1  0.80368857  0.25111528  0.01490348  1
  P  P277  1  0.80317203  0.24986214  0.26581584  1
  P  P278  1  0.80305692  0.25015538  0.51355225  1
  P  P279  1  0.80228154  0.25019727  0.76449280  1
  P  P280  1  0.80172778  0.58194007  0.01499372  1
  P  P281  1  0.80402853  0.58421638  0.26588972  1
  P  P282  1  0.80396846  0.58279026  0.51452482  1
  P  P283  1  0.80510234  0.58399269  0.76318528  1
  P  P284  1  0.80656607  0.91696647  0.01391615  1
  P  P285  1  0.80406917  0.91585540  0.26406764  1
  P  P286  1  0.80461947  0.91741602  0.51394321  1
  P  P287  1  0.80300828  0.91603946  0.76496690  1
  O  O288  1  0.05788986  0.24945879  0.18785932  1
  O  O289  1  0.05889488  0.25010733  0.43752901  1
  O  O290  1  0.05733746  0.25000104  0.68599204  1
  O  O291  1  0.05575496  0.24979662  0.93655629  1
  O  O292  1  0.05553815  0.58366688  0.18702078  1
  O  O293  1  0.05877690  0.58310773  0.43816527  1
  O  O294  1  0.05674906  0.58326331  0.68626418  1
  O  O295  1  0.05661728  0.58294953  0.93677903  1
  O  O296  1  0.05471630  0.91663529  0.18694836  1
  O  O297  1  0.05581241  0.91727757  0.43710957  1
  O  O298  1  0.05896637  0.91697981  0.68768761  1
  O  O299  1  0.05533955  0.91743609  0.93549687  1
  O  O300  1  0.55899788  0.24937635  0.18784047  1
  O  O301  1  0.55921059  0.24970790  0.43782096  1
  O  O302  1  0.55958765  0.24949422  0.68755678  1
  O  O303  1  0.55768335  0.25005528  0.93606135  1
  O  O304  1  0.55656502  0.58342347  0.18640604  1
  O  O305  1  0.55780490  0.58282123  0.43845541  1
  O  O306  1  0.55718875  0.58350297  0.68635466  1
  O  O307  1  0.55825490  0.58258317  0.93730103  1
  O  O308  1  0.56030577  0.91678853  0.18795839  1
  O  O309  1  0.55616975  0.91687023  0.43626254  1
  O  O310  1  0.55928848  0.91683408  0.68817091  1
  O  O311  1  0.55758554  0.91706274  0.93588575  1
  O  O312  1  0.44395428  0.08392087  0.06328756  1
  O  O313  1  0.44417741  0.08344109  0.31343148  1
  O  O314  1  0.44303445  0.08388985  0.56396251  1
  O  O315  1  0.44162713  0.08272435  0.81217852  1
  O  O316  1  0.44410522  0.41601023  0.06326812  1
  O  O317  1  0.44299076  0.41633631  0.31409554  1
  O  O318  1  0.43995694  0.41632000  0.56239731  1
  O  O319  1  0.44239202  0.41664348  0.81206623  1
  O  O320  1  0.44481161  0.74985088  0.06304903  1
  O  O321  1  0.44324600  0.75000189  0.31386007  1
  O  O322  1  0.44147195  0.74938671  0.56240138  1
  O  O323  1  0.44366940  0.75041656  0.81296808  1
  O  O324  1  0.94082463  0.08407271  0.06271734  1
  O  O325  1  0.93992018  0.08364328  0.31244897  1
  O  O326  1  0.94009327  0.08429289  0.56238468  1
  O  O327  1  0.94090540  0.08367741  0.81171191  1
  O  O328  1  0.94133133  0.41691854  0.06250715  1
  O  O329  1  0.94459296  0.41622094  0.31326062  1
  O  O330  1  0.94289036  0.41648526  0.56359756  1
  O  O331  1  0.94042295  0.41637590  0.81278215  1
  O  O332  1  0.94397733  0.74932256  0.06397509  1
  O  O333  1  0.94075989  0.75004680  0.31222094  1
  O  O334  1  0.94346725  0.74973499  0.56366767  1
  O  O335  1  0.94163562  0.75009411  0.81151197  1
  O  O336  1  0.19190029  0.08282345  0.06052356  1
  O  O337  1  0.19279637  0.08303038  0.31172100  1
  O  O338  1  0.19402572  0.08320353  0.56188391  1
  O  O339  1  0.19121476  0.08276612  0.81276312  1
  O  O340  1  0.19041058  0.41700247  0.06218169  1
  O  O341  1  0.19011711  0.41698325  0.31234173  1
  O  O342  1  0.19427409  0.41719656  0.56147158  1
  O  O343  1  0.19152458  0.41681490  0.81308319  1
  O  O344  1  0.18975803  0.75045281  0.06209737  1
  O  O345  1  0.19310353  0.75032572  0.31094091  1
  O  O346  1  0.19155697  0.74933783  0.56294064  1
  O  O347  1  0.19043027  0.75028884  0.81242631  1
  O  O348  1  0.69504820  0.08307564  0.06178278  1
  O  O349  1  0.69467451  0.08312980  0.31201608  1
  O  O350  1  0.69368286  0.08313242  0.56174404  1
  O  O351  1  0.69495931  0.08269463  0.81193473  1
  O  O352  1  0.69338132  0.41733648  0.06115898  1
  O  O353  1  0.69060409  0.41724649  0.31366413  1
  O  O354  1  0.69308557  0.41726475  0.56160047  1
  O  O355  1  0.69170934  0.41710415  0.81244700  1
  O  O356  1  0.69171858  0.74896518  0.06289163  1
  O  O357  1  0.69355504  0.75008009  0.31173868  1
  O  O358  1  0.69059203  0.74999181  0.56294562  1
  O  O359  1  0.69409707  0.75042256  0.81108578  1
  O  O360  1  0.30820475  0.25021096  0.18738516  1
  O  O361  1  0.30591408  0.25045819  0.43868633  1
  O  O362  1  0.30876265  0.24993011  0.68725711  1
  O  O363  1  0.30772673  0.25032583  0.93910047  1
  O  O364  1  0.30976826  0.58350690  0.18748483  1
  O  O365  1  0.30768231  0.58340017  0.43698589  1
  O  O366  1  0.30689778  0.58370799  0.68939341  1
  O  O367  1  0.30998484  0.58337918  0.93798569  1
  O  O368  1  0.30656768  0.91637143  0.18902597  1
  O  O369  1  0.30983880  0.91645099  0.43800246  1
  O  O370  1  0.30889579  0.91610350  0.68789018  1
  O  O371  1  0.30870291  0.91621667  0.93723761  1
  O  O372  1  0.80694826  0.25117289  0.18911635  1
  O  O373  1  0.80814976  0.25117742  0.43698259  1
  O  O374  1  0.80560758  0.25060740  0.68781928  1
  O  O375  1  0.80623136  0.25095001  0.93811954  1
  O  O376  1  0.80705860  0.58305366  0.18908313  1
  O  O377  1  0.80920102  0.58284222  0.43786854  1
  O  O378  1  0.80890937  0.58398956  0.68645982  1
  O  O379  1  0.80567177  0.58304157  0.93824079  1
  O  O380  1  0.80818627  0.91539779  0.18734549  1
  O  O381  1  0.80843655  0.91626969  0.43707861  1
  O  O382  1  0.80604053  0.91584446  0.68847719  1
  O  O383  1  0.81053226  0.91601449  0.93710990  1
  O  O384  1  0.23406209  0.24999415  0.04000509  1
  O  O385  1  0.23242129  0.25026084  0.28726536  1
  O  O386  1  0.23261148  0.25059341  0.54039162  1
  O  O387  1  0.23524501  0.24987719  0.78868196  1
  O  O388  1  0.23531491  0.58313734  0.03836107  1
  O  O389  1  0.23502328  0.58374069  0.28783346  1
  O  O390  1  0.23304326  0.58265340  0.53812865  1
  O  O391  1  0.23456459  0.58335746  0.79134018  1
  O  O392  1  0.23391797  0.91697386  0.03768867  1
  O  O393  1  0.23371718  0.91641320  0.29109348  1
  O  O394  1  0.23569373  0.91667044  0.53876315  1
  O  O395  1  0.23364376  0.91655080  0.78808655  1
  O  O396  1  0.73425019  0.25046106  0.04083423  1
  O  O397  1  0.73299604  0.24970171  0.28994115  1
  O  O398  1  0.73269129  0.25063071  0.53726378  1
  O  O399  1  0.73235564  0.24962468  0.78952560  1
  O  O400  1  0.73188097  0.58230402  0.03995082  1
  O  O401  1  0.73427349  0.58405893  0.29070635  1
  O  O402  1  0.73351191  0.58274572  0.53773744  1
  O  O403  1  0.73511237  0.58385991  0.78766513  1
  O  O404  1  0.73643105  0.91644090  0.03792109  1
  O  O405  1  0.73383987  0.91655131  0.28849965  1
  O  O406  1  0.73461901  0.91720493  0.53814662  1
  O  O407  1  0.73314208  0.91655591  0.79050641  1
  O  O408  1  0.26564665  0.08345971  0.20963502  1
  O  O409  1  0.26645892  0.08434149  0.45983427  1
  O  O410  1  0.26695451  0.08289534  0.71277922  1
  O  O411  1  0.26537573  0.08339945  0.95928337  1
  O  O412  1  0.26411984  0.41647833  0.21154616  1
  O  O413  1  0.26712940  0.41672924  0.45942722  1
  O  O414  1  0.26750728  0.41679814  0.71329931  1
  O  O415  1  0.26505262  0.41625164  0.96182307  1
  O  O416  1  0.26581866  0.75039314  0.20899126  1
  O  O417  1  0.26683822  0.74952413  0.46266664  1
  O  O418  1  0.26473709  0.75005311  0.71172788  1
  O  O419  1  0.26455329  0.75028996  0.96176171  1
  O  O420  1  0.76852037  0.08313494  0.21089779  1
  O  O421  1  0.76749915  0.08358817  0.46048875  1
  O  O422  1  0.76822562  0.08320623  0.71024183  1
  O  O423  1  0.76909461  0.08379765  0.96082935  1
  O  O424  1  0.76521582  0.41653893  0.21300317  1
  O  O425  1  0.76508258  0.41666983  0.45928702  1
  O  O426  1  0.76680981  0.41681417  0.71199845  1
  O  O427  1  0.76680508  0.41691455  0.95953491  1
  O  O428  1  0.76745639  0.74976688  0.21045067  1
  O  O429  1  0.76496590  0.74987003  0.46236112  1
  O  O430  1  0.76752436  0.75042358  0.70952737  1
  O  O431  1  0.76573005  0.74929380  0.96182077  1
  O  O432  1  0.01397789  0.08297702  0.16429553  1
  O  O433  1  0.01372987  0.08363084  0.41370419  1
  O  O434  1  0.01472254  0.08354996  0.66271130  1
  O  O435  1  0.01620648  0.08295427  0.91214266  1
  O  O436  1  0.01685572  0.41723532  0.16262316  1
  O  O437  1  0.01796512  0.41666793  0.41495881  1
  O  O438  1  0.01580197  0.41734772  0.66515704  1
  O  O439  1  0.01629952  0.41658788  0.91247735  1
  O  O440  1  0.01683077  0.74978787  0.16595571  1
  O  O441  1  0.01468229  0.74990220  0.41344170  1
  O  O442  1  0.01744371  0.74928258  0.66456805  1
  O  O443  1  0.01691167  0.75080670  0.91176246  1
  O  O444  1  0.51673040  0.08344733  0.16529342  1
  O  O445  1  0.51665749  0.08299089  0.41582931  1
  O  O446  1  0.51530920  0.08305024  0.66598995  1
  O  O447  1  0.51601807  0.08308269  0.91325932  1
  O  O448  1  0.51610648  0.41727407  0.16575374  1
  O  O449  1  0.51652863  0.41628182  0.41550809  1
  O  O450  1  0.51435667  0.41701273  0.66292734  1
  O  O451  1  0.51732164  0.41647731  0.91275749  1
  O  O452  1  0.51843993  0.74921861  0.16484848  1
  O  O453  1  0.51513758  0.75027840  0.41606122  1
  O  O454  1  0.51677765  0.74981164  0.66282015  1
  O  O455  1  0.51634925  0.75025791  0.91480686  1
  O  O456  1  0.48332977  0.25034581  0.08743099  1
  O  O457  1  0.48514942  0.25047081  0.33700837  1
  O  O458  1  0.48353573  0.24949992  0.58799927  1
  O  O459  1  0.48504013  0.25037914  0.83439837  1
  O  O460  1  0.48315032  0.58293079  0.08499113  1
  O  O461  1  0.48234755  0.58325369  0.33830431  1
  O  O462  1  0.48418195  0.58323133  0.58505435  1
  O  O463  1  0.48336478  0.58349345  0.83660344  1
  O  O464  1  0.48567978  0.91636152  0.08723421  1
  O  O465  1  0.48266303  0.91587567  0.33500534  1
  O  O466  1  0.48313633  0.91686611  0.58861955  1
  O  O467  1  0.48305413  0.91592252  0.83517900  1
  O  O468  1  0.98432107  0.25009588  0.08642387  1
  O  O469  1  0.98356050  0.25015653  0.33721932  1
  O  O470  1  0.98412362  0.25054835  0.58467312  1
  O  O471  1  0.98364937  0.24994560  0.83413767  1
  O  O472  1  0.98381946  0.58389199  0.08398854  1
  O  O473  1  0.98331076  0.58276347  0.33801516  1
  O  O474  1  0.98289853  0.58360363  0.58516878  1
  O  O475  1  0.98384799  0.58334173  0.83512258  1
  O  O476  1  0.98124782  0.91606336  0.08530481  1
  O  O477  1  0.98088601  0.91684306  0.33667656  1
  O  O478  1  0.98464655  0.91600837  0.58699276  1
  O  O479  1  0.98278587  0.91673266  0.83363854  1
  O  O480  1  0.08776049  0.31559616  0.07860809  1
  O  O481  1  0.08729305  0.31583864  0.32788015  1
  O  O482  1  0.08830016  0.31526300  0.57698079  1
  O  O483  1  0.08749498  0.31504188  0.82768105  1
  O  O484  1  0.08748815  0.64913423  0.07840133  1
  O  O485  1  0.08689814  0.64759985  0.32796087  1
  O  O486  1  0.08675238  0.64931495  0.57696891  1
  O  O487  1  0.08767482  0.64818087  0.82783038  1
  O  O488  1  0.08506021  0.98050515  0.07707239  1
  O  O489  1  0.08428396  0.98219775  0.32717886  1
  O  O490  1  0.08807367  0.98073686  0.57734757  1
  O  O491  1  0.08667752  0.98230370  0.82614112  1
  O  O492  1  0.58705186  0.31498265  0.07816256  1
  O  O493  1  0.58852631  0.31640240  0.32858481  1
  O  O494  1  0.58717621  0.31463583  0.57738437  1
  O  O495  1  0.58872552  0.31602050  0.82701076  1
  O  O496  1  0.58683291  0.64919972  0.07716790  1
  O  O497  1  0.58625660  0.64720571  0.32824230  1
  O  O498  1  0.58782915  0.64927402  0.57724716  1
  O  O499  1  0.58742090  0.64736323  0.82753260  1
  O  O500  1  0.58936920  0.98074710  0.07765700  1
  O  O501  1  0.58651248  0.98160772  0.32667313  1
  O  O502  1  0.58679021  0.98119648  0.57778782  1
  O  O503  1  0.58669624  0.98178118  0.82599346  1
  O  O504  1  0.41253299  0.01933892  0.17223586  1
  O  O505  1  0.41312675  0.01721488  0.42193919  1
  O  O506  1  0.41099799  0.01859113  0.67288161  1
  O  O507  1  0.41297681  0.01657098  0.92161568  1
  O  O508  1  0.41272147  0.35142897  0.17277387  1
  O  O509  1  0.41221138  0.35219031  0.42363711  1
  O  O510  1  0.41143677  0.35022385  0.67219231  1
  O  O511  1  0.41349113  0.35226658  0.92218354  1
  O  O512  1  0.41471014  0.68377102  0.17198484  1
  O  O513  1  0.41116301  0.68502336  0.42307222  1
  O  O514  1  0.41303340  0.68523890  0.67248975  1
  O  O515  1  0.41253189  0.68530031  0.92195235  1
  O  O516  1  0.91043341  0.01717780  0.17156237  1
  O  O517  1  0.90985417  0.01883679  0.42219872  1
  O  O518  1  0.91091824  0.01886424  0.67220921  1
  O  O519  1  0.91270538  0.01720647  0.92106495  1
  O  O520  1  0.91343283  0.35218123  0.17290925  1
  O  O521  1  0.91436283  0.35109851  0.42264897  1
  O  O522  1  0.91162493  0.35295110  0.67334356  1
  O  O523  1  0.91267294  0.35142255  0.92301083  1
  O  O524  1  0.91247865  0.68546018  0.17336125  1
  O  O525  1  0.91130210  0.68461018  0.42182395  1
  O  O526  1  0.91355242  0.68363091  0.67270734  1
  O  O527  1  0.91337246  0.68611133  0.92224312  1
  O  O528  1  0.16198679  0.01851170  0.20237206  1
  O  O529  1  0.16274733  0.01933871  0.45232441  1
  O  O530  1  0.16372826  0.01701688  0.70265414  1
  O  O531  1  0.16144120  0.01831200  0.95093716  1
  O  O532  1  0.16039160  0.35097136  0.20292276  1
  O  O533  1  0.16306046  0.35161594  0.45251260  1
  O  O534  1  0.16387409  0.35198309  0.70281056  1
  O  O535  1  0.16110155  0.35173926  0.95221898  1
  O  O536  1  0.16189939  0.68540314  0.20172197  1
  O  O537  1  0.16347879  0.68381732  0.45289242  1
  O  O538  1  0.16069355  0.68616771  0.70231007  1
  O  O539  1  0.16089965  0.68524944  0.95214643  1
  O  O540  1  0.66485005  0.01806982  0.20255215  1
  O  O541  1  0.66379371  0.01891749  0.45199249  1
  O  O542  1  0.66470357  0.01750486  0.70259237  1
  O  O543  1  0.66556703  0.01832278  0.95199375  1
  O  O544  1  0.66197249  0.35072978  0.20419433  1
  O  O545  1  0.66074806  0.35223898  0.45287008  1
  O  O546  1  0.66335086  0.35100591  0.70283955  1
  O  O547  1  0.66232936  0.35293057  0.95186305  1
  O  O548  1  0.66290902  0.68590093  0.20229711  1
  O  O549  1  0.66193037  0.68381049  0.45328621  1
  O  O550  1  0.66287794  0.68662507  0.70155914  1
  O  O551  1  0.66258105  0.68325686  0.95315708  1
  O  O552  1  0.33788964  0.31509211  0.04876614  1
  O  O553  1  0.33601963  0.31499008  0.29765500  1
  O  O554  1  0.33640264  0.31646408  0.54764534  1
  O  O555  1  0.33872117  0.31495567  0.79703765  1
  O  O556  1  0.33892070  0.64820521  0.04805398  1
  O  O557  1  0.33881810  0.64851227  0.29742211  1
  O  O558  1  0.33649343  0.64802947  0.54734063  1
  O  O559  1  0.33871321  0.64776024  0.79861500  1
  O  O560  1  0.33757191  0.98173769  0.04697811  1
  O  O561  1  0.33779490  0.98142480  0.29821453  1
  O  O562  1  0.33991301  0.98045072  0.54799847  1
  O  O563  1  0.33742448  0.98208715  0.79766197  1
  O  O564  1  0.83734764  0.31661837  0.04707091  1
  O  O565  1  0.83694155  0.31467642  0.29934831  1
  O  O566  1  0.83640094  0.31500596  0.54727805  1
  O  O567  1  0.83587864  0.31529343  0.79735886  1
  O  O568  1  0.83589291  0.64678020  0.04779163  1
  O  O569  1  0.83809442  0.64948095  0.29774140  1
  O  O570  1  0.83729921  0.64769995  0.54815207  1
  O  O571  1  0.83835537  0.64928980  0.79625134  1
  O  O572  1  0.83980648  0.98234353  0.04645734  1
  O  O573  1  0.83799404  0.98085127  0.29686661  1
  O  O574  1  0.83822486  0.98256833  0.54623176  1
  O  O575  1  0.83769461  0.98095631  0.79725708  1
  O  O576  1  0.41336107  0.14958066  0.17259234  1
  O  O577  1  0.41275423  0.14753050  0.42267630  1
  O  O578  1  0.41155653  0.14869750  0.67310643  1
  O  O579  1  0.41207580  0.14697039  0.92191370  1
  O  O580  1  0.41205643  0.48168051  0.17177388  1
  O  O581  1  0.41269208  0.48211916  0.42332633  1
  O  O582  1  0.40999601  0.48034202  0.67243032  1
  O  O583  1  0.41390060  0.48231827  0.92183038  1
  O  O584  1  0.41451240  0.81386369  0.17261680  1
  O  O585  1  0.41113495  0.81513396  0.42279039  1
  O  O586  1  0.41326023  0.81527712  0.67225253  1
  O  O587  1  0.41272406  0.81563472  0.92216315  1
  O  O588  1  0.91006891  0.14726985  0.17304365  1
  O  O589  1  0.91027510  0.14914246  0.42206148  1
  O  O590  1  0.91111576  0.14878189  0.67258725  1
  O  O591  1  0.91233359  0.14730670  0.92240147  1
  O  O592  1  0.91325667  0.48216070  0.17248971  1
  O  O593  1  0.91381082  0.48114225  0.42250193  1
  O  O594  1  0.91201836  0.48302138  0.67223571  1
  O  O595  1  0.91240477  0.48132851  0.92307896  1
  O  O596  1  0.91281314  0.81533624  0.17280193  1
  O  O597  1  0.91115744  0.81492787  0.42206537  1
  O  O598  1  0.91326132  0.81353141  0.67358526  1
  O  O599  1  0.91341311  0.81610441  0.92104767  1
  O  O600  1  0.08775599  0.18530795  0.07794553  1
  O  O601  1  0.08743455  0.18574153  0.32717055  1
  O  O602  1  0.08795564  0.18530982  0.57643230  1
  O  O603  1  0.08733211  0.18474556  0.82745979  1
  O  O604  1  0.08763272  0.51891748  0.07796632  1
  O  O605  1  0.08695093  0.51751662  0.32839321  1
  O  O606  1  0.08725195  0.51935147  0.57661803  1
  O  O607  1  0.08731538  0.51783715  0.82743057  1
  O  O608  1  0.08489468  0.85043762  0.07793923  1
  O  O609  1  0.08487759  0.85215940  0.32765285  1
  O  O610  1  0.08797786  0.85039562  0.57831773  1
  O  O611  1  0.08737867  0.85231245  0.82674327  1
  O  O612  1  0.58675516  0.18488756  0.07746227  1
  O  O613  1  0.58928438  0.18633735  0.32735298  1
  O  O614  1  0.58741195  0.18460799  0.57739482  1
  O  O615  1  0.58917210  0.18589097  0.82659218  1
  O  O616  1  0.58756322  0.51925489  0.07676986  1
  O  O617  1  0.58548658  0.51718404  0.32839230  1
  O  O618  1  0.58842835  0.51923463  0.57695579  1
  O  O619  1  0.58653820  0.51729386  0.82718505  1
  O  O620  1  0.58895323  0.85044508  0.07858512  1
  O  O621  1  0.58719537  0.85176103  0.32708107  1
  O  O622  1  0.58637099  0.85105022  0.57802619  1
  O  O623  1  0.58751762  0.85195152  0.82640132  1
  O  O624  1  0.33804208  0.18512397  0.04846277  1
  O  O625  1  0.33597397  0.18509718  0.29760970  1
  O  O626  1  0.33714778  0.18654029  0.54829135  1
  O  O627  1  0.33867191  0.18462764  0.79677997  1
  O  O628  1  0.33897759  0.51821893  0.04788151  1
  O  O629  1  0.33857955  0.51853202  0.29765083  1
  O  O630  1  0.33684618  0.51794205  0.54644688  1
  O  O631  1  0.33851169  0.51768885  0.79817853  1
  O  O632  1  0.33732081  0.85174861  0.04755951  1
  O  O633  1  0.33777433  0.85154222  0.29815268  1
  O  O634  1  0.33884110  0.85030231  0.54780745  1
  O  O635  1  0.33750980  0.85210390  0.79826669  1
  O  O636  1  0.83846236  0.18621321  0.04676712  1
  O  O637  1  0.83716775  0.18473738  0.29792692  1
  O  O638  1  0.83611964  0.18495212  0.54663230  1
  O  O639  1  0.83649607  0.18515264  0.79682063  1
  O  O640  1  0.83553936  0.51669379  0.04723241  1
  O  O641  1  0.83836266  0.51936097  0.29884214  1
  O  O642  1  0.83739773  0.51785333  0.54779023  1
  O  O643  1  0.83862131  0.51886808  0.79617280  1
  O  O644  1  0.84018742  0.85216704  0.04746501  1
  O  O645  1  0.83716780  0.85067975  0.29745547  1
  O  O646  1  0.83815405  0.85253415  0.54736075  1
  O  O647  1  0.83696749  0.85079798  0.79759168  1
  O  O648  1  0.16185723  0.14874666  0.20284857  1
  O  O649  1  0.16262102  0.14955759  0.45340163  1
  O  O650  1  0.16310790  0.14713701  0.70259370  1
  O  O651  1  0.16135320  0.14816773  0.95120132  1
  O  O652  1  0.16040783  0.48108370  0.20214224  1
  O  O653  1  0.16303251  0.48165520  0.45193378  1
  O  O654  1  0.16420389  0.48194501  0.70272806  1
  O  O655  1  0.16149480  0.48159761  0.95204167  1
  O  O656  1  0.16169713  0.81535671  0.20183827  1
  O  O657  1  0.16306780  0.81396295  0.45278840  1
  O  O658  1  0.16148546  0.81626629  0.70272408  1
  O  O659  1  0.16071537  0.81515069  0.95194097  1
  O  O660  1  0.66480523  0.14839131  0.20265251  1
  O  O661  1  0.66387573  0.14907208  0.45266953  1
  O  O662  1  0.66404074  0.14766106  0.70271051  1
  O  O663  1  0.66495838  0.14831905  0.95259761  1
  O  O664  1  0.66164291  0.48105199  0.20353104  1
  O  O665  1  0.66136035  0.48226459  0.45239676  1
  O  O666  1  0.66293997  0.48110840  0.70229384  1
  O  O667  1  0.66308124  0.48289957  0.95166942  1
  O  O668  1  0.66394861  0.81591206  0.20231500  1
  O  O669  1  0.66129265  0.81414587  0.45292368  1
  O  O670  1  0.66376269  0.81663681  0.70215114  1
  O  O671  1  0.66204926  0.81351026  0.95300398  1
