# generated using pymatgen
data_Na2MnFe(PO4)2
_symmetry_space_group_name_H-M   'P 1'
_cell_length_a   21.08488668
_cell_length_b   18.93769512
_cell_length_c   20.04375943
_cell_angle_alpha   89.99959087
_cell_angle_beta   89.99359370
_cell_angle_gamma   89.99837968
_symmetry_Int_Tables_number   1
_chemical_formula_structural   Na2MnFe(PO4)2
_chemical_formula_sum   'Na96 Mn48 Fe48 P96 O384'
_cell_volume   8003.45616338
_cell_formula_units_Z   48
loop_
 _symmetry_equiv_pos_site_id
 _symmetry_equiv_pos_as_xyz
  1  'x, y, z'
loop_
 _atom_site_type_symbol
 _atom_site_label
 _atom_site_symmetry_multiplicity
 _atom_site_fract_x
 _atom_site_fract_y
 _atom_site_fract_z
 _atom_site_occupancy
  Na  Na0  1  -0.00132590  -0.00029300  -0.00013214  1
  Na  Na1  1  0.00019579  0.00009048  0.24966466  1
  Na  Na2  1  -0.00045120  -0.00041266  0.49976572  1
  Na  Na3  1  -0.00046312  0.00052323  0.75024268  1
  Na  Na4  1  -0.00205302  0.33258042  0.00128001  1
  Na  Na5  1  -0.00002055  0.33361873  0.24990359  1
  Na  Na6  1  -0.00003290  0.33259801  0.49935699  1
  Na  Na7  1  0.00012422  0.33346955  0.74958878  1
  Na  Na8  1  0.00173644  0.66698821  -0.00127561  1
  Na  Na9  1  0.00008796  0.66684878  0.25010104  1
  Na  Na10  1  -0.00061682  0.66658676  0.50114079  1
  Na  Na11  1  0.00103505  0.66721024  0.75020101  1
  Na  Na12  1  0.49950367  -0.00030279  -0.00152856  1
  Na  Na13  1  0.49899977  0.00028098  0.25042624  1
  Na  Na14  1  0.49787001  -0.00054036  0.50191525  1
  Na  Na15  1  0.50014823  0.00016581  0.74956904  1
  Na  Na16  1  0.49874264  0.33326892  -0.00068526  1
  Na  Na17  1  0.49764419  0.33231884  0.24902038  1
  Na  Na18  1  0.49914453  0.33311009  0.50089739  1
  Na  Na19  1  0.50096402  0.33459964  0.75094828  1
  Na  Na20  1  0.50190536  0.66736380  -0.00059779  1
  Na  Na21  1  0.50036959  0.66696797  0.25013944  1
  Na  Na22  1  0.49905773  0.66671613  0.50014301  1
  Na  Na23  1  0.49960455  0.66653910  0.75044536  1
  Na  Na24  1  0.24961376  -0.00032362  0.12461671  1
  Na  Na25  1  0.25236581  0.00064490  0.37502393  1
  Na  Na26  1  0.25131563  0.00061622  0.62541627  1
  Na  Na27  1  0.24932574  0.00029941  0.87478564  1
  Na  Na28  1  0.25177445  0.33368420  0.12526070  1
  Na  Na29  1  0.24931553  0.33242233  0.37517514  1
  Na  Na30  1  0.24868012  0.33316503  0.62498380  1
  Na  Na31  1  0.25051635  0.33429515  0.87488016  1
  Na  Na32  1  0.24978027  0.66678198  0.12445469  1
  Na  Na33  1  0.25252811  0.66829891  0.37497120  1
  Na  Na34  1  0.24851292  0.66694748  0.62539427  1
  Na  Na35  1  0.24685491  0.66616317  0.87554052  1
  Na  Na36  1  0.75045868  0.00046979  0.12502557  1
  Na  Na37  1  0.74804807  -0.00063179  0.37367206  1
  Na  Na38  1  0.75190919  0.00009154  0.62489493  1
  Na  Na39  1  0.75310591  0.00053758  0.87595484  1
  Na  Na40  1  0.75258895  0.33422695  0.12403555  1
  Na  Na41  1  0.75177040  0.33396119  0.37527757  1
  Na  Na42  1  0.75126507  0.33358147  0.62617642  1
  Na  Na43  1  0.75110623  0.33305614  0.87413209  1
  Na  Na44  1  0.74758419  0.66563882  0.12350734  1
  Na  Na45  1  0.74888141  0.66645413  0.37402137  1
  Na  Na46  1  0.75248250  0.66803905  0.62625314  1
  Na  Na47  1  0.75046682  0.66673891  0.87631671  1
  Na  Na48  1  -0.00045832  0.16649256  0.00043965  1
  Na  Na49  1  0.00142502  0.16632900  0.24986951  1
  Na  Na50  1  0.00109113  0.16630103  0.49944897  1
  Na  Na51  1  -0.00142189  0.16731260  0.75012235  1
  Na  Na52  1  -0.00030168  0.50060396  0.00007377  1
  Na  Na53  1  -0.00078499  0.50021907  0.24929686  1
  Na  Na54  1  0.00018607  0.50021230  0.50098135  1
  Na  Na55  1  0.00187485  0.49947795  0.74978019  1
  Na  Na56  1  0.00025167  0.83256748  -0.00045435  1
  Na  Na57  1  -0.00016326  0.83277833  0.25036719  1
  Na  Na58  1  -0.00160489  0.83362646  0.50022561  1
  Na  Na59  1  -0.00168308  0.83396124  0.74968777  1
  Na  Na60  1  0.49989536  0.16609909  -0.00146505  1
  Na  Na61  1  0.49982951  0.16602771  0.25000247  1
  Na  Na62  1  0.49943818  0.16664628  0.50132371  1
  Na  Na63  1  0.49825982  0.16734770  0.74984819  1
  Na  Na64  1  0.50007804  0.50019300  -0.00008332  1
  Na  Na65  1  0.50046290  0.49960790  0.24887039  1
  Na  Na66  1  0.50056540  0.49949506  0.50025099  1
  Na  Na67  1  0.50107415  0.49969935  0.75146149  1
  Na  Na68  1  0.50113100  0.83254219  -0.00118979  1
  Na  Na69  1  0.49736982  0.83413320  0.25058622  1
  Na  Na70  1  0.49666442  0.83429865  0.50135022  1
  Na  Na71  1  0.49987526  0.83307865  0.74944885  1
  Na  Na72  1  0.24887587  0.16711988  0.12430713  1
  Na  Na73  1  0.24987422  0.16667086  0.37512329  1
  Na  Na74  1  0.24940088  0.16593518  0.62525482  1
  Na  Na75  1  0.24856689  0.16634317  0.87551998  1
  Na  Na76  1  0.25060364  0.49994317  0.12548962  1
  Na  Na77  1  0.25004981  0.50017391  0.37492430  1
  Na  Na78  1  0.24851256  0.49996509  0.62532837  1
  Na  Na79  1  0.24849563  0.50021770  0.87462479  1
  Na  Na80  1  0.25144429  0.83281333  0.12461729  1
  Na  Na81  1  0.25263981  0.83316765  0.37517930  1
  Na  Na82  1  0.25178454  0.83224359  0.62513790  1
  Na  Na83  1  0.24929684  0.83294733  0.87502054  1
  Na  Na84  1  0.74988354  0.16691083  0.12482574  1
  Na  Na85  1  0.74836375  0.16706853  0.37397290  1
  Na  Na86  1  0.75263328  0.16590594  0.62526254  1
  Na  Na87  1  0.75376269  0.16576457  0.87551312  1
  Na  Na88  1  0.74976970  0.50074026  0.12413599  1
  Na  Na89  1  0.74895047  0.50036332  0.37466856  1
  Na  Na90  1  0.75018206  0.49957835  0.62600026  1
  Na  Na91  1  0.75089006  0.49990309  0.87474258  1
  Na  Na92  1  0.74933373  0.83363281  0.12387077  1
  Na  Na93  1  0.75112575  0.83290151  0.37412086  1
  Na  Na94  1  0.75259668  0.83293602  0.62625726  1
  Na  Na95  1  0.75047569  0.83351574  0.87584751  1
  Mn  Mn96  1  0.35810386  0.08299634  0.25181623  1
  Mn  Mn97  1  0.60894553  0.08327347  0.87208006  1
  Mn  Mn98  1  0.14136439  0.25027956  0.74794349  1
  Mn  Mn99  1  0.64061871  0.91613142  0.24727996  1
  Mn  Mn100  1  0.64260131  0.91692916  0.99769001  1
  Mn  Mn101  1  0.10736703  0.41695000  0.12232796  1
  Mn  Mn102  1  0.60799511  0.41551244  0.37296808  1
  Mn  Mn103  1  0.10752992  0.41702535  0.37287772  1
  Mn  Mn104  1  0.35720235  0.08382868  0.00216391  1
  Mn  Mn105  1  0.89174248  0.91660683  0.37699961  1
  Mn  Mn106  1  0.39265229  0.58297284  0.37735593  1
  Mn  Mn107  1  0.64099521  0.25070910  0.24744779  1
  Mn  Mn108  1  0.39189305  0.25024712  0.87684684  1
  Mn  Mn109  1  0.89102606  0.58342644  0.37722436  1
  Mn  Mn110  1  0.85714624  0.08333973  0.25190474  1
  Mn  Mn111  1  0.64220798  0.91631543  0.49848008  1
  Mn  Mn112  1  0.39147789  0.25052088  0.62802668  1
  Mn  Mn113  1  0.35792984  0.41677270  0.25229175  1
  Mn  Mn114  1  0.39186222  0.58360095  0.87725285  1
  Mn  Mn115  1  0.85785734  0.74956568  0.00268991  1
  Mn  Mn116  1  0.85882346  0.41686934  0.75275769  1
  Mn  Mn117  1  0.85784239  0.08331260  0.50186037  1
  Mn  Mn118  1  0.89307713  0.58318329  0.62780607  1
  Mn  Mn119  1  0.64371062  0.24881761  0.74799382  1
  Mn  Mn120  1  0.64314651  0.58401844  0.74799479  1
  Mn  Mn121  1  0.39264925  0.91635540  0.87647863  1
  Mn  Mn122  1  0.14303172  0.91689743  0.49834786  1
  Mn  Mn123  1  0.89252748  0.24979362  0.37707764  1
  Mn  Mn124  1  0.60727830  0.75078229  0.37324231  1
  Mn  Mn125  1  0.14306070  0.91670933  0.24758490  1
  Mn  Mn126  1  0.10884018  0.08271235  0.37261374  1
  Mn  Mn127  1  0.14238031  0.58352770  0.24752279  1
  Mn  Mn128  1  0.85744434  0.41720107  0.25195125  1
  Mn  Mn129  1  0.60731034  0.41610634  0.12168464  1
  Mn  Mn130  1  0.35751113  0.74924878  0.00196681  1
  Mn  Mn131  1  0.14224814  0.58363377  0.49742280  1
  Mn  Mn132  1  0.14168514  0.25114678  0.99789170  1
  Mn  Mn133  1  0.60795961  0.08378116  0.62332355  1
  Mn  Mn134  1  0.64253950  0.24986401  0.49811912  1
  Mn  Mn135  1  0.39173347  0.58302286  0.62813040  1
  Mn  Mn136  1  0.35758417  0.41668250  0.50294524  1
  Mn  Mn137  1  0.10826066  0.74994679  0.37309209  1
  Mn  Mn138  1  0.85729544  0.74971490  0.25088120  1
  Mn  Mn139  1  0.64304942  0.25062011  0.99791743  1
  Mn  Mn140  1  0.64266125  0.58374488  0.49840204  1
  Mn  Mn141  1  0.14168658  0.91622266  0.74745493  1
  Mn  Mn142  1  0.14145154  0.91623661  0.99793564  1
  Mn  Mn143  1  0.60788959  0.74968793  0.62301916  1
  Fe  Fe144  1  0.14224322  0.58334555  0.74895851  1
  Fe  Fe145  1  0.60640008  0.75061990  0.12367894  1
  Fe  Fe146  1  0.89311956  0.24969755  0.12734772  1
  Fe  Fe147  1  0.85824979  0.75023515  0.75252882  1
  Fe  Fe148  1  0.85795512  0.41685573  0.00090489  1
  Fe  Fe149  1  0.39185909  0.24940992  0.37709282  1
  Fe  Fe150  1  0.60791017  0.74999886  0.87243425  1
  Fe  Fe151  1  0.89314095  0.91608436  0.12682127  1
  Fe  Fe152  1  0.35618002  0.74939966  0.75206737  1
  Fe  Fe153  1  0.10787437  0.75035101  0.12395936  1
  Fe  Fe154  1  0.35675559  0.41705369  0.75193777  1
  Fe  Fe155  1  0.10668252  0.08269442  0.12337111  1
  Fe  Fe156  1  0.14257070  0.24955333  0.49845331  1
  Fe  Fe157  1  0.89399246  0.58307348  0.87702871  1
  Fe  Fe158  1  0.35745629  0.08359121  0.50242271  1
  Fe  Fe159  1  0.10714427  0.08307397  0.62351121  1
  Fe  Fe160  1  0.39285310  0.58381605  0.12607750  1
  Fe  Fe161  1  0.89359868  0.24955708  0.62581464  1
  Fe  Fe162  1  0.39231225  0.91665940  0.62802174  1
  Fe  Fe163  1  0.10728802  0.41641500  0.87396445  1
  Fe  Fe164  1  0.35719874  0.41718169  0.00094968  1
  Fe  Fe165  1  0.85834672  0.08381968  0.00280481  1
  Fe  Fe166  1  0.60599443  0.08342187  0.37414308  1
  Fe  Fe167  1  0.14315041  0.24994395  0.24811436  1
  Fe  Fe168  1  0.60759533  0.41676928  0.87344424  1
  Fe  Fe169  1  0.64176963  0.58335103  0.24744046  1
  Fe  Fe170  1  0.60761573  0.41663082  0.62384705  1
  Fe  Fe171  1  0.10589144  0.08331813  0.87352601  1
  Fe  Fe172  1  0.35811352  0.74968518  0.25097446  1
  Fe  Fe173  1  0.64459953  0.91682067  0.74855833  1
  Fe  Fe174  1  0.39265538  0.91658140  0.12585701  1
  Fe  Fe175  1  0.89300381  0.91655504  0.87690623  1
  Fe  Fe176  1  0.60665886  0.08290936  0.12297858  1
  Fe  Fe177  1  0.85789068  0.74958621  0.50175180  1
  Fe  Fe178  1  0.10748906  0.41604321  0.62293464  1
  Fe  Fe179  1  0.35630127  0.08334671  0.75185469  1
  Fe  Fe180  1  0.39241908  0.24937495  0.12643640  1
  Fe  Fe181  1  0.10671162  0.75097027  0.62312910  1
  Fe  Fe182  1  0.85768747  0.41703711  0.50229544  1
  Fe  Fe183  1  0.14217338  0.58280617  0.99883316  1
  Fe  Fe184  1  0.89321281  0.25059594  0.87720347  1
  Fe  Fe185  1  0.85901919  0.08263874  0.75156727  1
  Fe  Fe186  1  0.64276752  0.58272827  0.99816799  1
  Fe  Fe187  1  0.10663289  0.75029465  0.87272818  1
  Fe  Fe188  1  0.89268490  0.58396566  0.12619089  1
  Fe  Fe189  1  0.39244980  0.91752837  0.37758719  1
  Fe  Fe190  1  0.35753586  0.75000490  0.50270244  1
  Fe  Fe191  1  0.89275183  0.91727086  0.62671141  1
  P  P192  1  0.05342695  0.24933864  0.11145221  1
  P  P193  1  0.05547029  0.24989371  0.36006732  1
  P  P194  1  0.05328409  0.24954834  0.60959536  1
  P  P195  1  0.05193938  0.25025729  0.86066423  1
  P  P196  1  0.05281514  0.58426240  0.10942480  1
  P  P197  1  0.05277536  0.58346129  0.35976897  1
  P  P198  1  0.05536254  0.58381121  0.61182512  1
  P  P199  1  0.05450189  0.58295654  0.86100312  1
  P  P200  1  0.05231330  0.91639580  0.11027572  1
  P  P201  1  0.05359497  0.91626965  0.35982845  1
  P  P202  1  0.05216852  0.91675256  0.61029249  1
  P  P203  1  0.05196227  0.91674470  0.86012492  1
  P  P204  1  0.55168531  0.24898095  0.10930265  1
  P  P205  1  0.55147568  0.24900350  0.36043051  1
  P  P206  1  0.55353147  0.25088602  0.61080516  1
  P  P207  1  0.55400660  0.25078390  0.85994079  1
  P  P208  1  0.55379305  0.58415472  0.11017662  1
  P  P209  1  0.55421710  0.58316219  0.35940737  1
  P  P210  1  0.55338842  0.58261202  0.61051494  1
  P  P211  1  0.55512772  0.58318851  0.86142644  1
  P  P212  1  0.55172069  0.91669960  0.10967962  1
  P  P213  1  0.55155267  0.91764092  0.36104794  1
  P  P214  1  0.55353170  0.91661436  0.61188741  1
  P  P215  1  0.55497210  0.91596818  0.85868548  1
  P  P216  1  0.44736117  0.08312030  0.13921133  1
  P  P217  1  0.44634358  0.08367751  0.39103533  1
  P  P218  1  0.44439610  0.08293477  0.64015655  1
  P  P219  1  0.44552733  0.08312787  0.88839767  1
  P  P220  1  0.44482585  0.41690248  0.13786357  1
  P  P221  1  0.44655629  0.41565351  0.39019789  1
  P  P222  1  0.44717629  0.41694988  0.64157871  1
  P  P223  1  0.44574509  0.41719244  0.88948783  1
  P  P224  1  0.44701209  0.74982920  0.13964890  1
  P  P225  1  0.44475102  0.75079876  0.38977507  1
  P  P226  1  0.44454126  0.75028518  0.64028951  1
  P  P227  1  0.44669064  0.74983288  0.88859505  1
  P  P228  1  0.94635800  0.08311871  0.13895437  1
  P  P229  1  0.94713348  0.08333479  0.38974953  1
  P  P230  1  0.94746901  0.08343150  0.63986848  1
  P  P231  1  0.94568197  0.08338938  0.88938426  1
  P  P232  1  0.94501271  0.41730513  0.13840074  1
  P  P233  1  0.94575704  0.41691130  0.39082333  1
  P  P234  1  0.94719712  0.41582372  0.63876609  1
  P  P235  1  0.94781031  0.41701805  0.89034015  1
  P  P236  1  0.94798197  0.74952483  0.13935695  1
  P  P237  1  0.94596880  0.74966370  0.39068676  1
  P  P238  1  0.94591384  0.75074829  0.63968952  1
  P  P239  1  0.94644610  0.74974868  0.88866627  1
  P  P240  1  0.19643531  0.08388239  0.23401161  1
  P  P241  1  0.19680788  0.08347456  0.48649408  1
  P  P242  1  0.19499201  0.08319240  0.73582890  1
  P  P243  1  0.19392257  0.08323317  0.98534062  1
  P  P244  1  0.19653918  0.41586227  0.23496403  1
  P  P245  1  0.19531859  0.41570486  0.48605139  1
  P  P246  1  0.19533143  0.41730454  0.73594814  1
  P  P247  1  0.19707901  0.41752911  0.98471760  1
  P  P248  1  0.19805824  0.75036256  0.23438131  1
  P  P249  1  0.19722130  0.75081728  0.48618745  1
  P  P250  1  0.19505759  0.74947127  0.73571472  1
  P  P251  1  0.19412773  0.74925165  0.98554798  1
  P  P252  1  0.69374861  0.08334417  0.23499178  1
  P  P253  1  0.69614832  0.08310928  0.48415794  1
  P  P254  1  0.69941754  0.08213100  0.73525889  1
  P  P255  1  0.69734694  0.08363104  0.98622509  1
  P  P256  1  0.69617106  0.41711538  0.23418731  1
  P  P257  1  0.69722294  0.41656692  0.48645790  1
  P  P258  1  0.69571050  0.41656480  0.73591203  1
  P  P259  1  0.69770546  0.41714502  0.98422387  1
  P  P260  1  0.69527075  0.74956313  0.23366683  1
  P  P261  1  0.69836742  0.75033192  0.48519912  1
  P  P262  1  0.69761393  0.75108921  0.73667979  1
  P  P263  1  0.69443673  0.74942914  0.98575752  1
  P  P264  1  0.30359389  0.25100615  0.01521687  1
  P  P265  1  0.30409295  0.24940926  0.26448168  1
  P  P266  1  0.30306178  0.24914570  0.51438732  1
  P  P267  1  0.30253744  0.25001850  0.76508353  1
  P  P268  1  0.30238971  0.58260943  0.01515403  1
  P  P269  1  0.30487735  0.58434330  0.26366030  1
  P  P270  1  0.30329003  0.58388068  0.51549048  1
  P  P271  1  0.30164721  0.58359059  0.76514783  1
  P  P272  1  0.30368151  0.91650228  0.01506876  1
  P  P273  1  0.30589202  0.91584622  0.26409797  1
  P  P274  1  0.30572076  0.91711333  0.51500179  1
  P  P275  1  0.30393444  0.91633963  0.76402794  1
  P  P276  1  0.80623190  0.25048024  0.01424277  1
  P  P277  1  0.80399940  0.24995092  0.26383466  1
  P  P278  1  0.80429652  0.25058470  0.51578363  1
  P  P279  1  0.80674300  0.24900400  0.76439827  1
  P  P280  1  0.80444792  0.58247686  0.01387578  1
  P  P281  1  0.80255632  0.58382591  0.26320205  1
  P  P282  1  0.80363566  0.58343080  0.51561318  1
  P  P283  1  0.80508144  0.58417712  0.76624961  1
  P  P284  1  0.80587106  0.91716522  0.01464589  1
  P  P285  1  0.80380235  0.91638234  0.26329742  1
  P  P286  1  0.80406021  0.91589280  0.51562545  1
  P  P287  1  0.80551747  0.91673007  0.76484700  1
  O  O288  1  0.05842945  0.25021249  0.18805966  1
  O  O289  1  0.05961161  0.24960873  0.43687049  1
  O  O290  1  0.05626720  0.24984521  0.68637469  1
  O  O291  1  0.05530115  0.25036390  0.93734354  1
  O  O292  1  0.05639629  0.58340752  0.18614873  1
  O  O293  1  0.05631333  0.58358304  0.43657879  1
  O  O294  1  0.05886994  0.58366951  0.68863205  1
  O  O295  1  0.05866302  0.58275509  0.93769484  1
  O  O296  1  0.05606358  0.91645267  0.18692800  1
  O  O297  1  0.05715151  0.91632261  0.43658363  1
  O  O298  1  0.05565988  0.91672992  0.68698042  1
  O  O299  1  0.05541172  0.91647019  0.93676586  1
  O  O300  1  0.55508127  0.24987301  0.18601896  1
  O  O301  1  0.55563553  0.25010011  0.43708452  1
  O  O302  1  0.55730560  0.24995367  0.68751963  1
  O  O303  1  0.55713866  0.24994946  0.93670390  1
  O  O304  1  0.55809689  0.58317438  0.18690332  1
  O  O305  1  0.55724369  0.58328371  0.43624926  1
  O  O306  1  0.55685888  0.58368864  0.68728890  1
  O  O307  1  0.55904739  0.58306974  0.93819473  1
  O  O308  1  0.55449878  0.91677379  0.18643535  1
  O  O309  1  0.55528990  0.91656753  0.43772063  1
  O  O310  1  0.55964683  0.91654104  0.68839931  1
  O  O311  1  0.55765681  0.91688085  0.93553838  1
  O  O312  1  0.44391310  0.08321677  0.06252307  1
  O  O313  1  0.44330240  0.08379462  0.31427040  1
  O  O314  1  0.44051768  0.08378598  0.56337737  1
  O  O315  1  0.44052052  0.08329188  0.81170892  1
  O  O316  1  0.44101834  0.41724882  0.06110309  1
  O  O317  1  0.44345677  0.41637166  0.31338412  1
  O  O318  1  0.44302193  0.41698163  0.56485757  1
  O  O319  1  0.44040852  0.41750598  0.81284492  1
  O  O320  1  0.44391360  0.74952065  0.06288581  1
  O  O321  1  0.44137345  0.74978295  0.31297658  1
  O  O322  1  0.44048951  0.74944499  0.56347038  1
  O  O323  1  0.44087174  0.74935848  0.81203259  1
  O  O324  1  0.94230265  0.08350233  0.06217134  1
  O  O325  1  0.94350442  0.08354582  0.31300699  1
  O  O326  1  0.94403617  0.08317798  0.56320824  1
  O  O327  1  0.94193723  0.08322643  0.81262737  1
  O  O328  1  0.94146158  0.41733298  0.06165144  1
  O  O329  1  0.94261432  0.41705266  0.31396202  1
  O  O330  1  0.94225801  0.41668360  0.56216930  1
  O  O331  1  0.94489182  0.41715161  0.81357107  1
  O  O332  1  0.94452833  0.74934357  0.06263223  1
  O  O333  1  0.94249811  0.74943747  0.31391530  1
  O  O334  1  0.94144108  0.74981586  0.56301661  1
  O  O335  1  0.94215272  0.74985353  0.81198297  1
  O  O336  1  0.18943800  0.08293330  0.06210353  1
  O  O337  1  0.19415464  0.08287659  0.31086544  1
  O  O338  1  0.19138651  0.08267651  0.56316980  1
  O  O339  1  0.18937259  0.08310067  0.81249374  1
  O  O340  1  0.19339367  0.41661092  0.06140829  1
  O  O341  1  0.19354029  0.41655562  0.31172282  1
  O  O342  1  0.19105051  0.41614029  0.56289274  1
  O  O343  1  0.19045625  0.41624191  0.81266385  1
  O  O344  1  0.19019430  0.75046843  0.06232048  1
  O  O345  1  0.19441526  0.75058329  0.31111504  1
  O  O346  1  0.19145322  0.75099105  0.56280669  1
  O  O347  1  0.19001364  0.75071683  0.81247697  1
  O  O348  1  0.69117565  0.08339726  0.06279827  1
  O  O349  1  0.68904580  0.08328279  0.31172083  1
  O  O350  1  0.69337587  0.08327047  0.56100069  1
  O  O351  1  0.69569392  0.08298971  0.81197607  1
  O  O352  1  0.69365810  0.41650238  0.06093988  1
  O  O353  1  0.69332701  0.41603028  0.31102893  1
  O  O354  1  0.69216737  0.41623870  0.56311126  1
  O  O355  1  0.69135990  0.41651024  0.81263165  1
  O  O356  1  0.68975566  0.75043077  0.06244514  1
  O  O357  1  0.69256518  0.75059656  0.31048399  1
  O  O358  1  0.69449830  0.75061411  0.56194271  1
  O  O359  1  0.69267585  0.75023634  0.81333109  1
  O  O360  1  0.30918541  0.24921105  0.18778541  1
  O  O361  1  0.30773396  0.24960832  0.43767664  1
  O  O362  1  0.30508736  0.25001100  0.68829099  1
  O  O363  1  0.30649980  0.24989330  0.93843889  1
  O  O364  1  0.30908101  0.58380909  0.18691090  1
  O  O365  1  0.30661814  0.58322037  0.43870162  1
  O  O366  1  0.30516831  0.58357301  0.68850396  1
  O  O367  1  0.30585527  0.58353279  0.93842827  1
  O  O368  1  0.30989139  0.91687865  0.18728990  1
  O  O369  1  0.30916030  0.91737681  0.43810134  1
  O  O370  1  0.30764009  0.91638972  0.68725394  1
  O  O371  1  0.30686775  0.91652286  0.93828713  1
  O  O372  1  0.80892029  0.24956353  0.18706933  1
  O  O373  1  0.80682820  0.24985199  0.43895424  1
  O  O374  1  0.81083871  0.24991313  0.68765762  1
  O  O375  1  0.81022193  0.25031397  0.93735866  1
  O  O376  1  0.80795303  0.58407159  0.18656106  1
  O  O377  1  0.80533174  0.58317092  0.43876984  1
  O  O378  1  0.80809206  0.58340513  0.68944126  1
  O  O379  1  0.80994675  0.58332113  0.93726755  1
  O  O380  1  0.80890448  0.91643022  0.18656603  1
  O  O381  1  0.80633619  0.91682749  0.43878934  1
  O  O382  1  0.80981975  0.91685429  0.68810141  1
  O  O383  1  0.81017723  0.91627437  0.93782441  1
  O  O384  1  0.23379904  0.25069010  0.04012385  1
  O  O385  1  0.23368897  0.24947875  0.28785587  1
  O  O386  1  0.23285246  0.24928319  0.53854899  1
  O  O387  1  0.23294386  0.25015237  0.79071247  1
  O  O388  1  0.23229929  0.58314175  0.03971979  1
  O  O389  1  0.23497326  0.58419417  0.28826309  1
  O  O390  1  0.23358922  0.58360432  0.54047581  1
  O  O391  1  0.23160568  0.58358267  0.78987362  1
  O  O392  1  0.23386726  0.91622016  0.03979470  1
  O  O393  1  0.23592435  0.91693406  0.28858056  1
  O  O394  1  0.23578974  0.91659741  0.53974027  1
  O  O395  1  0.23399635  0.91636920  0.78871079  1
  O  O396  1  0.73613083  0.25049781  0.03841420  1
  O  O397  1  0.73392611  0.25029817  0.28764422  1
  O  O398  1  0.73474319  0.24979143  0.54140838  1
  O  O399  1  0.73668867  0.24941147  0.78863650  1
  O  O400  1  0.73375750  0.58304977  0.03662875  1
  O  O401  1  0.73222788  0.58366868  0.28677198  1
  O  O402  1  0.73441486  0.58375251  0.54222527  1
  O  O403  1  0.73529200  0.58367928  0.79096797  1
  O  O404  1  0.73562297  0.91694365  0.03828979  1
  O  O405  1  0.73364780  0.91611846  0.28697457  1
  O  O406  1  0.73456624  0.91659962  0.54145902  1
  O  O407  1  0.73532597  0.91678188  0.78916904  1
  O  O408  1  0.26608061  0.08342430  0.20863507  1
  O  O409  1  0.26716114  0.08343783  0.46289238  1
  O  O410  1  0.26556602  0.08324222  0.71298983  1
  O  O411  1  0.26412677  0.08339528  0.96174375  1
  O  O412  1  0.26623437  0.41634805  0.20995575  1
  O  O413  1  0.26523165  0.41631807  0.46165836  1
  O  O414  1  0.26579150  0.41680438  0.71237072  1
  O  O415  1  0.26713336  0.41725164  0.96016342  1
  O  O416  1  0.26809126  0.74995001  0.20981896  1
  O  O417  1  0.26771901  0.75095786  0.46317581  1
  O  O418  1  0.26555906  0.74967399  0.71252974  1
  O  O419  1  0.26424501  0.74967391  0.96142615  1
  O  O420  1  0.76399069  0.08343391  0.21138117  1
  O  O421  1  0.76578443  0.08317519  0.45883941  1
  O  O422  1  0.76949523  0.08247699  0.71078749  1
  O  O423  1  0.76805540  0.08356999  0.96378617  1
  O  O424  1  0.76578167  0.41732065  0.20891023  1
  O  O425  1  0.76749877  0.41687122  0.46260345  1
  O  O426  1  0.76604895  0.41688071  0.71248975  1
  O  O427  1  0.76793683  0.41672149  0.96007281  1
  O  O428  1  0.76485117  0.74979964  0.20808827  1
  O  O429  1  0.76824420  0.74985522  0.46032938  1
  O  O430  1  0.76806887  0.75052912  0.71333193  1
  O  O431  1  0.76484818  0.74988111  0.96246262  1
  O  O432  1  0.01657941  0.08314585  0.16318093  1
  O  O433  1  0.01688104  0.08303843  0.41454666  1
  O  O434  1  0.01757444  0.08363099  0.66463308  1
  O  O435  1  0.01599593  0.08319108  0.91355257  1
  O  O436  1  0.01489502  0.41716145  0.16319674  1
  O  O437  1  0.01549317  0.41671269  0.41563439  1
  O  O438  1  0.01759676  0.41614704  0.66243779  1
  O  O439  1  0.01777854  0.41678178  0.91541359  1
  O  O440  1  0.01789339  0.74976208  0.16443736  1
  O  O441  1  0.01573947  0.75001692  0.41557239  1
  O  O442  1  0.01630338  0.75054264  0.66346286  1
  O  O443  1  0.01682966  0.74963295  0.91240647  1
  O  O444  1  0.51719373  0.08304716  0.16443822  1
  O  O445  1  0.51621654  0.08323169  0.41629258  1
  O  O446  1  0.51455043  0.08368540  0.66414842  1
  O  O447  1  0.51575351  0.08285955  0.91185414  1
  O  O448  1  0.51476083  0.41645266  0.16247631  1
  O  O449  1  0.51619237  0.41595204  0.41543460  1
  O  O450  1  0.51732311  0.41693100  0.66564835  1
  O  O451  1  0.51622043  0.41682146  0.91275281  1
  O  O452  1  0.51695246  0.75028443  0.16473856  1
  O  O453  1  0.51465817  0.75042428  0.41467354  1
  O  O454  1  0.51473542  0.74986838  0.66406336  1
  O  O455  1  0.51717367  0.75001696  0.91154831  1
  O  O456  1  0.48170757  0.24943274  0.08446322  1
  O  O457  1  0.48143633  0.24908738  0.33582124  1
  O  O458  1  0.48363802  0.25019643  0.58632386  1
  O  O459  1  0.48428118  0.25079915  0.83491969  1
  O  O460  1  0.48341599  0.58373527  0.08625450  1
  O  O461  1  0.48444426  0.58305606  0.33452962  1
  O  O462  1  0.48371433  0.58293142  0.58548049  1
  O  O463  1  0.48513792  0.58336535  0.83701403  1
  O  O464  1  0.48190604  0.91625151  0.08419049  1
  O  O465  1  0.48150273  0.91762594  0.33645644  1
  O  O466  1  0.48289356  0.91660414  0.58930629  1
  O  O467  1  0.48520815  0.91651609  0.83380241  1
  O  O468  1  0.98303164  0.24956312  0.08788436  1
  O  O469  1  0.98538956  0.24997137  0.33610985  1
  O  O470  1  0.98326371  0.24937680  0.58474422  1
  O  O471  1  0.98196797  0.25045804  0.83575012  1
  O  O472  1  0.98278632  0.58391331  0.08474418  1
  O  O473  1  0.98310844  0.58342238  0.33482946  1
  O  O474  1  0.98542226  0.58365585  0.58725251  1
  O  O475  1  0.98417627  0.58328946  0.83689344  1
  O  O476  1  0.98235959  0.91609805  0.08530652  1
  O  O477  1  0.98387426  0.91637340  0.33493812  1
  O  O478  1  0.98214002  0.91680782  0.58564991  1
  O  O479  1  0.98188202  0.91699806  0.83551496  1
  O  O480  1  0.08644361  0.31437803  0.07755213  1
  O  O481  1  0.08903101  0.31494413  0.32699456  1
  O  O482  1  0.08735792  0.31449044  0.57691596  1
  O  O483  1  0.08591497  0.31527689  0.82806902  1
  O  O484  1  0.08689341  0.64929304  0.07712170  1
  O  O485  1  0.08698933  0.64847725  0.32739160  1
  O  O486  1  0.08864969  0.64925235  0.57906610  1
  O  O487  1  0.08817464  0.64796339  0.82784309  1
  O  O488  1  0.08587625  0.98154990  0.07739966  1
  O  O489  1  0.08772428  0.98126747  0.32729290  1
  O  O490  1  0.08610898  0.98182537  0.57774522  1
  O  O491  1  0.08580339  0.98179604  0.82754810  1
  O  O492  1  0.58583454  0.31394087  0.07650886  1
  O  O493  1  0.58527409  0.31385329  0.32694951  1
  O  O494  1  0.58694685  0.31634476  0.57837168  1
  O  O495  1  0.58814481  0.31603812  0.82817900  1
  O  O496  1  0.58714653  0.64939835  0.07745813  1
  O  O497  1  0.58826978  0.64831556  0.32701675  1
  O  O498  1  0.58746961  0.64763758  0.57776506  1
  O  O499  1  0.58881706  0.64825044  0.82832889  1
  O  O500  1  0.58570746  0.98182076  0.07707555  1
  O  O501  1  0.58528649  0.98277081  0.32853435  1
  O  O502  1  0.58631304  0.98178137  0.57825403  1
  O  O503  1  0.58966025  0.98071596  0.82611001  1
  O  O504  1  0.41343364  0.01799849  0.17173439  1
  O  O505  1  0.41191335  0.01876236  0.42343292  1
  O  O506  1  0.41099247  0.01763554  0.67290259  1
  O  O507  1  0.41205976  0.01818167  0.92165661  1
  O  O508  1  0.41107339  0.35168089  0.17051012  1
  O  O509  1  0.41242526  0.35047980  0.42230112  1
  O  O510  1  0.41310292  0.35197899  0.67430080  1
  O  O511  1  0.41203149  0.35233519  0.92269757  1
  O  O512  1  0.41321690  0.68467683  0.17238407  1
  O  O513  1  0.41069567  0.68600606  0.42305099  1
  O  O514  1  0.41074050  0.68546124  0.67378783  1
  O  O515  1  0.41367941  0.68492925  0.92257973  1
  O  O516  1  0.91300547  0.01780163  0.17162022  1
  O  O517  1  0.91294501  0.01837795  0.42215352  1
  O  O518  1  0.91363149  0.01839095  0.67287128  1
  O  O519  1  0.91205821  0.01843163  0.92251606  1
  O  O520  1  0.91134042  0.35220008  0.17125078  1
  O  O521  1  0.91154017  0.35188366  0.42315236  1
  O  O522  1  0.91413859  0.35061977  0.67182613  1
  O  O523  1  0.91340519  0.35215785  0.92273486  1
  O  O524  1  0.91406306  0.68434107  0.17185845  1
  O  O525  1  0.91199495  0.68466189  0.42350232  1
  O  O526  1  0.91248969  0.68592656  0.67352212  1
  O  O527  1  0.91324435  0.68469449  0.92204916  1
  O  O528  1  0.16181650  0.01906674  0.20145851  1
  O  O529  1  0.16396187  0.01837283  0.45266904  1
  O  O530  1  0.16197111  0.01826010  0.70190612  1
  O  O531  1  0.16050528  0.01824601  0.95193684  1
  O  O532  1  0.16279369  0.35060488  0.20258672  1
  O  O533  1  0.16205710  0.35034659  0.45346597  1
  O  O534  1  0.16169319  0.35248676  0.70224652  1
  O  O535  1  0.16297416  0.35273753  0.95148605  1
  O  O536  1  0.16361423  0.68561913  0.20168958  1
  O  O537  1  0.16438442  0.68566546  0.45252941  1
  O  O538  1  0.16180516  0.68427192  0.70295536  1
  O  O539  1  0.16069589  0.68384963  0.95314631  1
  O  O540  1  0.66037693  0.01821989  0.20159803  1
  O  O541  1  0.66176848  0.01805903  0.45197229  1
  O  O542  1  0.66561154  0.01703721  0.70274631  1
  O  O543  1  0.66451738  0.01857034  0.95238521  1
  O  O544  1  0.66223982  0.35205737  0.20136698  1
  O  O545  1  0.66415257  0.35144338  0.45274284  1
  O  O546  1  0.66251994  0.35152670  0.70248337  1
  O  O547  1  0.66372179  0.35226647  0.95124732  1
  O  O548  1  0.66093582  0.68445177  0.20168701  1
  O  O549  1  0.66406016  0.68543772  0.45278650  1
  O  O550  1  0.66422627  0.68623808  0.70294067  1
  O  O551  1  0.66139272  0.68413712  0.95273852  1
  O  O552  1  0.33759494  0.31627861  0.04707617  1
  O  O553  1  0.33751746  0.31430717  0.29800887  1
  O  O554  1  0.33637952  0.31423165  0.54781499  1
  O  O555  1  0.33679872  0.31523960  0.79700783  1
  O  O556  1  0.33670201  0.64741711  0.04804999  1
  O  O557  1  0.33854277  0.64952601  0.29627357  1
  O  O558  1  0.33715093  0.64903727  0.54780565  1
  O  O559  1  0.33539155  0.64868081  0.79805276  1
  O  O560  1  0.33766917  0.98150393  0.04774062  1
  O  O561  1  0.34007449  0.98057998  0.29747385  1
  O  O562  1  0.33921554  0.98230797  0.54789204  1
  O  O563  1  0.33752544  0.98151252  0.79678829  1
  O  O564  1  0.83980797  0.31574579  0.04679358  1
  O  O565  1  0.83768824  0.31499720  0.29667538  1
  O  O566  1  0.83848348  0.31571716  0.54801534  1
  O  O567  1  0.84048880  0.31395948  0.79786156  1
  O  O568  1  0.83758706  0.64738505  0.04797231  1
  O  O569  1  0.83570225  0.64883937  0.29672007  1
  O  O570  1  0.83835669  0.64859786  0.54723898  1
  O  O571  1  0.83906222  0.64926825  0.79854165  1
  O  O572  1  0.83938176  0.98220311  0.04751446  1
  O  O573  1  0.83691882  0.98145703  0.29674326  1
  O  O574  1  0.83897462  0.98067124  0.54808940  1
  O  O575  1  0.83918848  0.98177550  0.79788477  1
  O  O576  1  0.41341509  0.14815133  0.17197611  1
  O  O577  1  0.41230262  0.14877813  0.42365571  1
  O  O578  1  0.41019724  0.14762043  0.67336780  1
  O  O579  1  0.41227227  0.14820184  0.92176571  1
  O  O580  1  0.41160894  0.48220920  0.17092234  1
  O  O581  1  0.41244913  0.48070200  0.42280269  1
  O  O582  1  0.41321719  0.48185790  0.67461240  1
  O  O583  1  0.41257058  0.48218484  0.92316647  1
  O  O584  1  0.41266710  0.81476489  0.17200209  1
  O  O585  1  0.41106869  0.81614166  0.42212266  1
  O  O586  1  0.41092333  0.81543503  0.67304155  1
  O  O587  1  0.41354931  0.81487200  0.92200986  1
  O  O588  1  0.91285980  0.14806551  0.17220710  1
  O  O589  1  0.91340501  0.14840504  0.42248003  1
  O  O590  1  0.91347865  0.14843157  0.67249855  1
  O  O591  1  0.91244795  0.14860443  0.92251569  1
  O  O592  1  0.91157309  0.48277847  0.17101076  1
  O  O593  1  0.91162562  0.48187707  0.42342645  1
  O  O594  1  0.91396785  0.48068050  0.67272568  1
  O  O595  1  0.91373183  0.48207334  0.92288272  1
  O  O596  1  0.91383971  0.81450008  0.17183289  1
  O  O597  1  0.91153009  0.81456948  0.42310795  1
  O  O598  1  0.91250192  0.81599579  0.67249484  1
  O  O599  1  0.91320040  0.81478019  0.92195869  1
  O  O600  1  0.08655441  0.18426643  0.07823357  1
  O  O601  1  0.08933713  0.18502426  0.32695377  1
  O  O602  1  0.08740709  0.18443684  0.57722630  1
  O  O603  1  0.08553638  0.18511217  0.82791141  1
  O  O604  1  0.08696361  0.51936738  0.07638230  1
  O  O605  1  0.08681858  0.51841551  0.32726564  1
  O  O606  1  0.08897892  0.51872385  0.57902147  1
  O  O607  1  0.08782182  0.51782611  0.82780181  1
  O  O608  1  0.08630723  0.85135468  0.07766985  1
  O  O609  1  0.08759173  0.85123575  0.32726283  1
  O  O610  1  0.08601826  0.85162552  0.57766541  1
  O  O611  1  0.08557161  0.85167109  0.82717454  1
  O  O612  1  0.58565199  0.18386553  0.07699540  1
  O  O613  1  0.58521278  0.18370638  0.32815714  1
  O  O614  1  0.58766628  0.18600421  0.57797543  1
  O  O615  1  0.58803323  0.18572667  0.82718046  1
  O  O616  1  0.58761968  0.51939999  0.07649341  1
  O  O617  1  0.58845994  0.51820188  0.32689096  1
  O  O618  1  0.58733062  0.51722685  0.57860486  1
  O  O619  1  0.58864073  0.51794640  0.82871726  1
  O  O620  1  0.58613170  0.85174119  0.07747360  1
  O  O621  1  0.58522580  0.85271420  0.32771923  1
  O  O622  1  0.58624441  0.85153637  0.57786307  1
  O  O623  1  0.58894977  0.85064182  0.82670516  1
  O  O624  1  0.33781806  0.18612524  0.04816937  1
  O  O625  1  0.33729874  0.18432392  0.29798777  1
  O  O626  1  0.33651462  0.18415804  0.54750179  1
  O  O627  1  0.33659313  0.18485679  0.79732285  1
  O  O628  1  0.33632672  0.51750486  0.04746273  1
  O  O629  1  0.33838664  0.51928942  0.29695460  1
  O  O630  1  0.33720828  0.51880525  0.54824573  1
  O  O631  1  0.33549053  0.51848225  0.79772916  1
  O  O632  1  0.33802331  0.85156300  0.04746790  1
  O  O633  1  0.33906271  0.85036823  0.29657982  1
  O  O634  1  0.33989871  0.85217728  0.54766044  1
  O  O635  1  0.33748644  0.85105441  0.79680299  1
  O  O636  1  0.83981890  0.18543791  0.04748837  1
  O  O637  1  0.83724683  0.18493153  0.29727203  1
  O  O638  1  0.83912907  0.18570963  0.54806342  1
  O  O639  1  0.84015502  0.18375619  0.79708788  1
  O  O640  1  0.83730157  0.51729813  0.04717621  1
  O  O641  1  0.83581888  0.51886116  0.29675299  1
  O  O642  1  0.83813907  0.51837131  0.54780296  1
  O  O643  1  0.83953392  0.51919560  0.79871106  1
  O  O644  1  0.83931354  0.85202738  0.04790173  1
  O  O645  1  0.83733283  0.85133787  0.29627691  1
  O  O646  1  0.83820821  0.85062055  0.54757151  1
  O  O647  1  0.83903076  0.85166664  0.79815018  1
  O  O648  1  0.16218997  0.14910533  0.20218936  1
  O  O649  1  0.16350328  0.14853560  0.45335952  1
  O  O650  1  0.16186643  0.14822381  0.70226174  1
  O  O651  1  0.16028657  0.14827767  0.95226969  1
  O  O652  1  0.16232527  0.48083411  0.20238936  1
  O  O653  1  0.16156711  0.48071337  0.45301759  1
  O  O654  1  0.16217696  0.48255903  0.70305393  1
  O  O655  1  0.16310201  0.48264609  0.95237399  1
  O  O656  1  0.16429047  0.81540070  0.20140136  1
  O  O657  1  0.16426915  0.81578696  0.45246072  1
  O  O658  1  0.16183673  0.81429697  0.70162770  1
  O  O659  1  0.16020743  0.81391692  0.95183046  1
  O  O660  1  0.66026277  0.14830257  0.20157032  1
  O  O661  1  0.66168343  0.14806636  0.45179520  1
  O  O662  1  0.66547290  0.14704923  0.70228321  1
  O  O663  1  0.66467281  0.14869813  0.95233183  1
  O  O664  1  0.66185831  0.48222394  0.20223537  1
  O  O665  1  0.66365735  0.48153636  0.45330940  1
  O  O666  1  0.66213851  0.48153375  0.70268205  1
  O  O667  1  0.66387710  0.48227228  0.95171792  1
  O  O668  1  0.66070261  0.81444774  0.20104656  1
  O  O669  1  0.66461427  0.81543451  0.45230456  1
  O  O670  1  0.66475077  0.81632365  0.70334859  1
  O  O671  1  0.66103940  0.81430414  0.95206661  1
