# generated using pymatgen
data_Na2MnFe(PO4)2
_symmetry_space_group_name_H-M   'P 1'
_cell_length_a   21.07983082
_cell_length_b   18.93162549
_cell_length_c   20.03911043
_cell_angle_alpha   89.99972101
_cell_angle_beta   90.00011685
_cell_angle_gamma   90.00104265
_symmetry_Int_Tables_number   1
_chemical_formula_structural   Na2MnFe(PO4)2
_chemical_formula_sum   'Na96 Mn48 Fe48 P96 O384'
_cell_volume   7997.11726588
_cell_formula_units_Z   48
loop_
 _symmetry_equiv_pos_site_id
 _symmetry_equiv_pos_as_xyz
  1  'x, y, z'
loop_
 _atom_site_type_symbol
 _atom_site_label
 _atom_site_symmetry_multiplicity
 _atom_site_fract_x
 _atom_site_fract_y
 _atom_site_fract_z
 _atom_site_occupancy
  Na  Na0  1  0.00076595  0.00097975  -0.00046492  1
  Na  Na1  1  0.00141779  0.00105542  0.24963532  1
  Na  Na2  1  -0.00100944  0.00014976  0.49991806  1
  Na  Na3  1  -0.00082873  0.00090572  0.74965676  1
  Na  Na4  1  0.00110694  0.33384735  -0.00071124  1
  Na  Na5  1  -0.00174335  0.33260250  0.25042915  1
  Na  Na6  1  -0.00122439  0.33310789  0.50077683  1
  Na  Na7  1  -0.00022965  0.33300579  0.75026965  1
  Na  Na8  1  -0.00063524  0.66664617  -0.00066018  1
  Na  Na9  1  0.00061846  0.66759952  0.25006782  1
  Na  Na10  1  -0.00117259  0.66609544  0.50016022  1
  Na  Na11  1  -0.00001265  0.66668881  0.75025966  1
  Na  Na12  1  0.49984320  0.00057233  -0.00009797  1
  Na  Na13  1  0.50048946  -0.00023532  0.24968125  1
  Na  Na14  1  0.49947869  -0.00054168  0.50001189  1
  Na  Na15  1  0.49775113  -0.00076046  0.75070177  1
  Na  Na16  1  0.50082655  0.33386076  -0.00035775  1
  Na  Na17  1  0.49890954  0.33272037  0.24975187  1
  Na  Na18  1  0.49897428  0.33296743  0.50079012  1
  Na  Na19  1  0.49884449  0.33278790  0.74916171  1
  Na  Na20  1  0.49763722  0.66532250  0.00132000  1
  Na  Na21  1  0.49964583  0.66660824  0.24942608  1
  Na  Na22  1  0.50134748  0.66705246  0.49966153  1
  Na  Na23  1  0.50190058  0.66729530  0.75054098  1
  Na  Na24  1  0.24833216  -0.00016212  0.12485969  1
  Na  Na25  1  0.25145842  0.00043582  0.37625062  1
  Na  Na26  1  0.25103585  0.00047822  0.62504804  1
  Na  Na27  1  0.24844360  0.00029674  0.87436836  1
  Na  Na28  1  0.24976486  0.33267831  0.12429771  1
  Na  Na29  1  0.25369954  0.33418507  0.37469714  1
  Na  Na30  1  0.25198524  0.33347050  0.62531410  1
  Na  Na31  1  0.24954806  0.33292345  0.87519215  1
  Na  Na32  1  0.25145477  0.66765346  0.12547224  1
  Na  Na33  1  0.24984439  0.66629788  0.37417232  1
  Na  Na34  1  0.25012515  0.66621217  0.62474294  1
  Na  Na35  1  0.25008400  0.66622619  0.87504418  1
  Na  Na36  1  0.75002955  -0.00027619  0.12444348  1
  Na  Na37  1  0.74871123  -0.00023432  0.37431306  1
  Na  Na38  1  0.75072137  0.00095811  0.62556417  1
  Na  Na39  1  0.75292914  0.00112221  0.87501805  1
  Na  Na40  1  0.75043062  0.33366012  0.12447580  1
  Na  Na41  1  0.74919232  0.33294020  0.37426961  1
  Na  Na42  1  0.75023393  0.33349116  0.62488972  1
  Na  Na43  1  0.75057529  0.33350563  0.87653384  1
  Na  Na44  1  0.75088527  0.66734242  0.12564360  1
  Na  Na45  1  0.74760616  0.66606937  0.37587957  1
  Na  Na46  1  0.74996278  0.66709064  0.62479453  1
  Na  Na47  1  0.75098719  0.66663690  0.87443732  1
  Na  Na48  1  0.00031956  0.16722493  -0.00095788  1
  Na  Na49  1  -0.00014962  0.16692110  0.24970605  1
  Na  Na50  1  -0.00114511  0.16719825  0.50119174  1
  Na  Na51  1  0.00115645  0.16647381  0.74970668  1
  Na  Na52  1  0.00259972  0.49861969  -0.00083498  1
  Na  Na53  1  0.00028712  0.49941104  0.25064426  1
  Na  Na54  1  -0.00211565  0.50041085  0.50004248  1
  Na  Na55  1  -0.00043599  0.50027132  0.75006589  1
  Na  Na56  1  -0.00175308  0.83304673  -0.00013700  1
  Na  Na57  1  -0.00002088  0.83254941  0.24981102  1
  Na  Na58  1  0.00088137  0.83189591  0.49985905  1
  Na  Na59  1  -0.00357047  0.83428432  0.75013099  1
  Na  Na60  1  0.49787074  0.16853854  -0.00012084  1
  Na  Na61  1  0.50004048  0.16721654  0.24960639  1
  Na  Na62  1  0.49807478  0.16796815  0.50083719  1
  Na  Na63  1  0.49891188  0.16700903  0.75041028  1
  Na  Na64  1  0.50053268  0.49926787  -0.00040072  1
  Na  Na65  1  0.50103789  0.49895821  0.25017288  1
  Na  Na66  1  0.49938310  0.50005417  0.50048956  1
  Na  Na67  1  0.49962303  0.49954256  0.74961595  1
  Na  Na68  1  0.49911440  0.83362907  0.00123229  1
  Na  Na69  1  0.49944383  0.83361005  0.24931748  1
  Na  Na70  1  0.50183493  0.83288720  0.49917993  1
  Na  Na71  1  0.50040997  0.83354810  0.75049182  1
  Na  Na72  1  0.24913062  0.16729151  0.12446196  1
  Na  Na73  1  0.25144979  0.16704058  0.37542217  1
  Na  Na74  1  0.25033752  0.16684074  0.62474677  1
  Na  Na75  1  0.24877247  0.16712074  0.87496277  1
  Na  Na76  1  0.25066374  0.49909368  0.12423231  1
  Na  Na77  1  0.25202253  0.49993240  0.37445681  1
  Na  Na78  1  0.25312833  0.49846011  0.62583688  1
  Na  Na79  1  0.24814972  0.50032577  0.87541398  1
  Na  Na80  1  0.25056628  0.83251038  0.12579391  1
  Na  Na81  1  0.25089024  0.83279487  0.37551766  1
  Na  Na82  1  0.25043685  0.83327065  0.62440059  1
  Na  Na83  1  0.25125960  0.83259783  0.87445225  1
  Na  Na84  1  0.75207346  0.16731224  0.12475469  1
  Na  Na85  1  0.75090605  0.16707131  0.37413911  1
  Na  Na86  1  0.75131457  0.16698820  0.62483606  1
  Na  Na87  1  0.75351308  0.16656380  0.87575935  1
  Na  Na88  1  0.74827407  0.49965234  0.12507281  1
  Na  Na89  1  0.74864141  0.49945457  0.37472055  1
  Na  Na90  1  0.74958209  0.49929656  0.62566829  1
  Na  Na91  1  0.74822501  0.50015991  0.87518854  1
  Na  Na92  1  0.75081740  0.83281536  0.12475418  1
  Na  Na93  1  0.74725575  0.83350423  0.37535381  1
  Na  Na94  1  0.74873785  0.83364300  0.62498011  1
  Na  Na95  1  0.75300298  0.83240885  0.87497610  1
  Mn  Mn96  1  0.10826380  0.41663530  0.37290739  1
  Mn  Mn97  1  0.89275659  0.91693447  0.12784488  1
  Mn  Mn98  1  0.89212525  0.25053137  0.62796379  1
  Mn  Mn99  1  0.60818422  0.74982208  0.87346780  1
  Mn  Mn100  1  0.85788590  0.08320031  0.25221397  1
  Mn  Mn101  1  0.14240929  0.25048642  0.24832567  1
  Mn  Mn102  1  0.10792481  0.41675284  0.62269607  1
  Mn  Mn103  1  0.39244961  0.58289908  0.87680527  1
  Mn  Mn104  1  0.14255238  0.58312124  0.99829799  1
  Mn  Mn105  1  0.89218892  0.58296281  0.87707254  1
  Mn  Mn106  1  0.60810043  0.08429696  0.12216235  1
  Mn  Mn107  1  0.60830824  0.08421806  0.87276713  1
  Mn  Mn108  1  0.85716039  0.41656091  0.50214961  1
  Mn  Mn109  1  0.35866762  0.08360197  0.50280064  1
  Mn  Mn110  1  0.64183337  0.58405603  0.99806110  1
  Mn  Mn111  1  0.14266946  0.58292366  0.24746125  1
  Mn  Mn112  1  0.64297467  0.91733617  0.74821695  1
  Mn  Mn113  1  0.39175145  0.91701511  0.12763709  1
  Mn  Mn114  1  0.35661331  0.08296357  0.00211818  1
  Mn  Mn115  1  0.60688359  0.41650831  0.62356388  1
  Mn  Mn116  1  0.14252393  0.91670941  0.24837558  1
  Mn  Mn117  1  0.89142940  0.58309946  0.37673483  1
  Mn  Mn118  1  0.10752465  0.08324118  0.37319394  1
  Mn  Mn119  1  0.10736204  0.75023233  0.87239340  1
  Mn  Mn120  1  0.35874329  0.74933367  0.50227512  1
  Mn  Mn121  1  0.60793134  0.08381851  0.37255384  1
  Mn  Mn122  1  0.35851595  0.74967056  0.75222479  1
  Mn  Mn123  1  0.14156364  0.91649916  0.99724039  1
  Mn  Mn124  1  0.89132973  0.91622406  0.62672683  1
  Mn  Mn125  1  0.35791662  0.08313015  0.25220960  1
  Mn  Mn126  1  0.85819878  0.41708893  0.00251834  1
  Mn  Mn127  1  0.10711192  0.75017233  0.62311888  1
  Mn  Mn128  1  0.35743257  0.41677456  0.00207935  1
  Mn  Mn129  1  0.39310570  0.58318331  0.37720511  1
  Mn  Mn130  1  0.60736378  0.74944001  0.12275820  1
  Mn  Mn131  1  0.14176656  0.91644486  0.74718374  1
  Mn  Mn132  1  0.89238508  0.58232670  0.12778473  1
  Mn  Mn133  1  0.14246919  0.58272967  0.49844006  1
  Mn  Mn134  1  0.64340973  0.91689697  0.99753081  1
  Mn  Mn135  1  0.85659773  0.75059197  0.50195839  1
  Mn  Mn136  1  0.60769161  0.08289779  0.62369990  1
  Mn  Mn137  1  0.64156640  0.58327502  0.49808431  1
  Mn  Mn138  1  0.14252074  0.91625647  0.49766703  1
  Mn  Mn139  1  0.64173799  0.24927178  0.49795402  1
  Mn  Mn140  1  0.14316831  0.25078548  0.49763366  1
  Mn  Mn141  1  0.39165287  0.91696022  0.87775814  1
  Mn  Mn142  1  0.89134978  0.91699859  0.37726510  1
  Mn  Mn143  1  0.64277967  0.24945336  0.99768319  1
  Fe  Fe144  1  0.10731935  0.74987730  0.37317225  1
  Fe  Fe145  1  0.14286833  0.58283694  0.74763769  1
  Fe  Fe146  1  0.10777159  0.41644000  0.12407149  1
  Fe  Fe147  1  0.64233814  0.91674581  0.24804461  1
  Fe  Fe148  1  0.60690205  0.41653977  0.37285127  1
  Fe  Fe149  1  0.60766124  0.75033647  0.62421109  1
  Fe  Fe150  1  0.35654630  0.08385422  0.75202723  1
  Fe  Fe151  1  0.10735980  0.74981840  0.12311287  1
  Fe  Fe152  1  0.39372650  0.91683858  0.37655425  1
  Fe  Fe153  1  0.10737745  0.08386552  0.12298030  1
  Fe  Fe154  1  0.35733839  0.75008958  0.00185406  1
  Fe  Fe155  1  0.89372127  0.25056318  0.12638843  1
  Fe  Fe156  1  0.35719115  0.75001896  0.25225077  1
  Fe  Fe157  1  0.39350230  0.24955495  0.37621538  1
  Fe  Fe158  1  0.39257678  0.58236474  0.12722039  1
  Fe  Fe159  1  0.64272411  0.25035273  0.24787333  1
  Fe  Fe160  1  0.85801553  0.74977351  0.00223740  1
  Fe  Fe161  1  0.35873679  0.41698420  0.50169760  1
  Fe  Fe162  1  0.10642364  0.08364525  0.87239474  1
  Fe  Fe163  1  0.85668313  0.74956757  0.75134140  1
  Fe  Fe164  1  0.89167797  0.58302031  0.62736013  1
  Fe  Fe165  1  0.60710440  0.74980619  0.37214710  1
  Fe  Fe166  1  0.10705653  0.08315776  0.62329375  1
  Fe  Fe167  1  0.39301258  0.58401261  0.62752283  1
  Fe  Fe168  1  0.60678734  0.41624060  0.12398927  1
  Fe  Fe169  1  0.14323597  0.25034199  0.74835845  1
  Fe  Fe170  1  0.85679150  0.41656532  0.75214388  1
  Fe  Fe171  1  0.14206415  0.24998883  0.99815671  1
  Fe  Fe172  1  0.85680561  0.74946352  0.25205361  1
  Fe  Fe173  1  0.35686549  0.41610281  0.75245985  1
  Fe  Fe174  1  0.60735332  0.41606258  0.87280789  1
  Fe  Fe175  1  0.85889439  0.08324858  0.00204950  1
  Fe  Fe176  1  0.64332397  0.24996818  0.74940433  1
  Fe  Fe177  1  0.10741658  0.41620337  0.87217369  1
  Fe  Fe178  1  0.39241626  0.24954333  0.62817882  1
  Fe  Fe179  1  0.89261153  0.91745526  0.87665174  1
  Fe  Fe180  1  0.39245667  0.25011457  0.87647717  1
  Fe  Fe181  1  0.85672725  0.41711327  0.25128377  1
  Fe  Fe182  1  0.85703953  0.08304068  0.50134072  1
  Fe  Fe183  1  0.85821024  0.08402971  0.75181282  1
  Fe  Fe184  1  0.64293558  0.58288749  0.74819611  1
  Fe  Fe185  1  0.39313753  0.91635270  0.62660823  1
  Fe  Fe186  1  0.35816099  0.41695242  0.25140251  1
  Fe  Fe187  1  0.64166073  0.91771772  0.49856974  1
  Fe  Fe188  1  0.39219431  0.25056721  0.12665786  1
  Fe  Fe189  1  0.89365497  0.25016009  0.87623695  1
  Fe  Fe190  1  0.64236349  0.58302397  0.24813163  1
  Fe  Fe191  1  0.89182171  0.25006569  0.37638523  1
  P  P192  1  0.05330582  0.25053415  0.10967306  1
  P  P193  1  0.05191869  0.25006254  0.36037181  1
  P  P194  1  0.05520450  0.24956642  0.61155250  1
  P  P195  1  0.05448857  0.25002313  0.86041902  1
  P  P196  1  0.05346784  0.58322072  0.11014121  1
  P  P197  1  0.05344151  0.58385799  0.36008275  1
  P  P198  1  0.05267270  0.58302650  0.61103311  1
  P  P199  1  0.05445663  0.58268273  0.85926651  1
  P  P200  1  0.05369530  0.91632304  0.11005635  1
  P  P201  1  0.05280629  0.91586286  0.36000427  1
  P  P202  1  0.05281515  0.91751447  0.60981311  1
  P  P203  1  0.05171685  0.91736295  0.85974508  1
  P  P204  1  0.55331163  0.25114695  0.11096287  1
  P  P205  1  0.55298953  0.25074823  0.35949217  1
  P  P206  1  0.55312035  0.24966978  0.61192380  1
  P  P207  1  0.55288172  0.25075388  0.85931222  1
  P  P208  1  0.55319862  0.58214142  0.11145530  1
  P  P209  1  0.55421675  0.58297061  0.35940528  1
  P  P210  1  0.55345612  0.58367653  0.61170413  1
  P  P211  1  0.55425451  0.58234625  0.85948362  1
  P  P212  1  0.55464113  0.91679939  0.11068787  1
  P  P213  1  0.55422567  0.91628416  0.36023695  1
  P  P214  1  0.55299862  0.91637417  0.61008611  1
  P  P215  1  0.55337136  0.91694754  0.86030104  1
  P  P216  1  0.44648719  0.08438882  0.13980879  1
  P  P217  1  0.44701970  0.08340620  0.38976252  1
  P  P218  1  0.44599067  0.08300485  0.64125148  1
  P  P219  1  0.44525151  0.08469315  0.88908930  1
  P  P220  1  0.44675987  0.41653110  0.14024169  1
  P  P221  1  0.44661324  0.41583523  0.38926503  1
  P  P222  1  0.44416672  0.41681017  0.63971376  1
  P  P223  1  0.44639307  0.41560909  0.88852545  1
  P  P224  1  0.44436719  0.74912523  0.13971527  1
  P  P225  1  0.44714110  0.75054547  0.38848103  1
  P  P226  1  0.44832859  0.75010384  0.63995684  1
  P  P227  1  0.44640442  0.74974732  0.89129711  1
  P  P228  1  0.94721385  0.08450251  0.13865798  1
  P  P229  1  0.94557165  0.08436949  0.39068724  1
  P  P230  1  0.94577453  0.08334732  0.63942887  1
  P  P231  1  0.94586437  0.08409836  0.88885539  1
  P  P232  1  0.94770067  0.41591160  0.14042868  1
  P  P233  1  0.94512223  0.41596300  0.38893198  1
  P  P234  1  0.94567446  0.41744598  0.64103969  1
  P  P235  1  0.94672986  0.41599246  0.88857075  1
  P  P236  1  0.94609427  0.74951879  0.13980966  1
  P  P237  1  0.94593913  0.74978684  0.38902474  1
  P  P238  1  0.94515723  0.74900910  0.64048942  1
  P  P239  1  0.94435825  0.75040589  0.88909371  1
  P  P240  1  0.19619296  0.08375721  0.23451512  1
  P  P241  1  0.19601067  0.08358455  0.48630454  1
  P  P242  1  0.19551283  0.08434814  0.73542061  1
  P  P243  1  0.19380007  0.08433786  0.98500350  1
  P  P244  1  0.19814302  0.41638883  0.23435017  1
  P  P245  1  0.19910812  0.41680112  0.48490017  1
  P  P246  1  0.19649226  0.41619317  0.73617216  1
  P  P247  1  0.19434059  0.41552435  0.98544245  1
  P  P248  1  0.19617620  0.74997198  0.23568110  1
  P  P249  1  0.19633632  0.74935864  0.48425608  1
  P  P250  1  0.19688273  0.74908924  0.73468864  1
  P  P251  1  0.19667759  0.74979131  0.98583820  1
  P  P252  1  0.69659035  0.08395029  0.23460682  1
  P  P253  1  0.69752857  0.08304746  0.48503015  1
  P  P254  1  0.69866626  0.08497385  0.73564044  1
  P  P255  1  0.69909498  0.08370972  0.98482957  1
  P  P256  1  0.69545486  0.41631430  0.23558068  1
  P  P257  1  0.69519478  0.41620843  0.48431976  1
  P  P258  1  0.69629317  0.41573098  0.73675870  1
  P  P259  1  0.69464574  0.41657592  0.98569056  1
  P  P260  1  0.69599095  0.74971651  0.23612440  1
  P  P261  1  0.69357959  0.75108640  0.48578165  1
  P  P262  1  0.69707657  0.74939009  0.73496100  1
  P  P263  1  0.69852118  0.75008643  0.98505117  1
  P  P264  1  0.30337500  0.24997820  0.01410634  1
  P  P265  1  0.30548458  0.25087675  0.26427202  1
  P  P266  1  0.30620734  0.25099405  0.51460925  1
  P  P267  1  0.30400801  0.24972662  0.76455893  1
  P  P268  1  0.30432364  0.58375867  0.01561112  1
  P  P269  1  0.30516524  0.58299091  0.26351069  1
  P  P270  1  0.30481813  0.58269585  0.51574502  1
  P  P271  1  0.30346631  0.58244272  0.76413331  1
  P  P272  1  0.30257323  0.91618698  0.01526090  1
  P  P273  1  0.30410633  0.91604909  0.26624754  1
  P  P274  1  0.30576061  0.91632557  0.51466726  1
  P  P275  1  0.30442458  0.91740734  0.76366922  1
  P  P276  1  0.80628476  0.24970231  0.01447706  1
  P  P277  1  0.80417198  0.25135291  0.26360921  1
  P  P278  1  0.80421547  0.24926681  0.51362925  1
  P  P279  1  0.80337384  0.25072666  0.76626417  1
  P  P280  1  0.80333441  0.58359242  0.01535660  1
  P  P281  1  0.80161565  0.58297461  0.26480850  1
  P  P282  1  0.80322311  0.58327655  0.51580621  1
  P  P283  1  0.80307827  0.58274622  0.76383603  1
  P  P284  1  0.80585480  0.91689400  0.01393662  1
  P  P285  1  0.80187347  0.91569961  0.26481659  1
  P  P286  1  0.80119046  0.91751987  0.51472798  1
  P  P287  1  0.80433811  0.91684107  0.76534453  1
  O  O288  1  0.05645647  0.25037131  0.18643272  1
  O  O289  1  0.05611241  0.25054353  0.43707560  1
  O  O290  1  0.05938419  0.25043027  0.68805177  1
  O  O291  1  0.05838152  0.25031947  0.93712958  1
  O  O292  1  0.05619820  0.58344951  0.18693689  1
  O  O293  1  0.05632607  0.58306668  0.43687472  1
  O  O294  1  0.05835346  0.58274068  0.68767314  1
  O  O295  1  0.05762072  0.58348627  0.93608033  1
  O  O296  1  0.05661382  0.91618935  0.18682887  1
  O  O297  1  0.05597787  0.91617938  0.43677415  1
  O  O298  1  0.05560074  0.91707983  0.68665226  1
  O  O299  1  0.05543709  0.91639352  0.93645030  1
  O  O300  1  0.55847457  0.25024277  0.18753585  1
  O  O301  1  0.55608953  0.25004873  0.43633199  1
  O  O302  1  0.55879332  0.24960903  0.68844974  1
  O  O303  1  0.55670786  0.24999422  0.93610180  1
  O  O304  1  0.55828755  0.58318621  0.18807328  1
  O  O305  1  0.55644400  0.58295941  0.43629443  1
  O  O306  1  0.55871325  0.58292717  0.68833540  1
  O  O307  1  0.55653363  0.58320165  0.93639301  1
  O  O308  1  0.55925813  0.91668080  0.18750020  1
  O  O309  1  0.55843842  0.91725980  0.43699411  1
  O  O310  1  0.55692443  0.91728928  0.68681803  1
  O  O311  1  0.55699806  0.91716089  0.93709914  1
  O  O312  1  0.44301010  0.08380213  0.06301688  1
  O  O313  1  0.44431515  0.08323930  0.31311127  1
  O  O314  1  0.44391544  0.08339413  0.56418839  1
  O  O315  1  0.44077100  0.08381559  0.81240456  1
  O  O316  1  0.44351631  0.41662267  0.06321506  1
  O  O317  1  0.44228115  0.41673143  0.31261267  1
  O  O318  1  0.44144598  0.41682298  0.56281875  1
  O  O319  1  0.44127674  0.41615863  0.81195262  1
  O  O320  1  0.44041509  0.75007806  0.06290272  1
  O  O321  1  0.44210480  0.75008337  0.31186216  1
  O  O322  1  0.44515683  0.74969089  0.56323010  1
  O  O323  1  0.44364878  0.74992328  0.81445309  1
  O  O324  1  0.94296476  0.08361249  0.06196736  1
  O  O325  1  0.94288429  0.08348117  0.31375308  1
  O  O326  1  0.94073457  0.08332557  0.56286157  1
  O  O327  1  0.94146270  0.08421323  0.81204851  1
  O  O328  1  0.94434802  0.41705202  0.06369989  1
  O  O329  1  0.94065884  0.41680151  0.31218137  1
  O  O330  1  0.94238871  0.41667268  0.56431499  1
  O  O331  1  0.94131992  0.41664664  0.81193256  1
  O  O332  1  0.94128222  0.74933491  0.06305043  1
  O  O333  1  0.94056689  0.74984235  0.31231213  1
  O  O334  1  0.94237473  0.74962038  0.56365099  1
  O  O335  1  0.93994940  0.74932816  0.81232446  1
  O  O336  1  0.18995191  0.08380025  0.06185278  1
  O  O337  1  0.19341861  0.08391720  0.31135269  1
  O  O338  1  0.19156358  0.08335832  0.56283122  1
  O  O339  1  0.19053562  0.08343218  0.81221271  1
  O  O340  1  0.19043894  0.41604342  0.06217418  1
  O  O341  1  0.19435182  0.41644738  0.31109611  1
  O  O342  1  0.19468977  0.41650131  0.56156699  1
  O  O343  1  0.19175060  0.41622994  0.81293806  1
  O  O344  1  0.19156611  0.75005099  0.06252071  1
  O  O345  1  0.19112949  0.74983233  0.31236737  1
  O  O346  1  0.19271798  0.74966407  0.56103537  1
  O  O347  1  0.19358565  0.74986295  0.81150816  1
  O  O348  1  0.69454112  0.08415969  0.06149337  1
  O  O349  1  0.69356225  0.08427129  0.31137853  1
  O  O350  1  0.69393225  0.08386846  0.56179232  1
  O  O351  1  0.69493082  0.08444033  0.81228502  1
  O  O352  1  0.69012417  0.41631071  0.06248236  1
  O  O353  1  0.69095037  0.41594553  0.31226773  1
  O  O354  1  0.69185944  0.41612846  0.56124355  1
  O  O355  1  0.69197892  0.41585423  0.81334720  1
  O  O356  1  0.69392984  0.74994052  0.06174948  1
  O  O357  1  0.69125660  0.74970959  0.31286332  1
  O  O358  1  0.68990579  0.75017542  0.56264005  1
  O  O359  1  0.69393544  0.74980189  0.81166843  1
  O  O360  1  0.30898271  0.25005992  0.18741858  1
  O  O361  1  0.31040504  0.24998072  0.43781238  1
  O  O362  1  0.30841887  0.24960460  0.68781234  1
  O  O363  1  0.30821610  0.25022621  0.93743178  1
  O  O364  1  0.30860274  0.58273587  0.18674992  1
  O  O365  1  0.30794821  0.58378311  0.43888274  1
  O  O366  1  0.30862790  0.58349965  0.68750187  1
  O  O367  1  0.30696616  0.58268344  0.93879618  1
  O  O368  1  0.30648305  0.91689183  0.18941962  1
  O  O369  1  0.31048112  0.91639709  0.43796518  1
  O  O370  1  0.30894685  0.91651723  0.68690565  1
  O  O371  1  0.30555108  0.91701585  0.93843296  1
  O  O372  1  0.80931677  0.25089393  0.18691223  1
  O  O373  1  0.80793435  0.25011750  0.43718747  1
  O  O374  1  0.80634174  0.25079878  0.68886860  1
  O  O375  1  0.81062171  0.25064068  0.93781014  1
  O  O376  1  0.80548983  0.58286811  0.18810553  1
  O  O377  1  0.80617940  0.58309859  0.43901711  1
  O  O378  1  0.80730838  0.58257396  0.68706965  1
  O  O379  1  0.80646576  0.58252146  0.93864199  1
  O  O380  1  0.80623563  0.91621411  0.18811040  1
  O  O381  1  0.80470380  0.91666641  0.43801558  1
  O  O382  1  0.80626733  0.91699097  0.68848614  1
  O  O383  1  0.80958382  0.91727600  0.93715326  1
  O  O384  1  0.23294126  0.24999353  0.03751170  1
  O  O385  1  0.23559408  0.25054385  0.28906172  1
  O  O386  1  0.23619414  0.25023702  0.53874687  1
  O  O387  1  0.23361370  0.25007711  0.78828129  1
  O  O388  1  0.23466664  0.58326300  0.04083680  1
  O  O389  1  0.23536110  0.58304275  0.28845707  1
  O  O390  1  0.23509695  0.58262478  0.54080333  1
  O  O391  1  0.23316231  0.58272497  0.78795354  1
  O  O392  1  0.23297832  0.91623370  0.04055663  1
  O  O393  1  0.23452667  0.91668546  0.29178937  1
  O  O394  1  0.23558967  0.91634257  0.53831193  1
  O  O395  1  0.23435051  0.91683485  0.78786666  1
  O  O396  1  0.73604440  0.25028349  0.03826385  1
  O  O397  1  0.73363462  0.25060734  0.28694919  1
  O  O398  1  0.73442173  0.25009627  0.53869075  1
  O  O399  1  0.73358671  0.25029165  0.79116013  1
  O  O400  1  0.73364886  0.58354519  0.04060598  1
  O  O401  1  0.73158180  0.58266351  0.28947437  1
  O  O402  1  0.73337939  0.58312490  0.54060739  1
  O  O403  1  0.73283141  0.58286988  0.78806144  1
  O  O404  1  0.73599503  0.91671259  0.03872179  1
  O  O405  1  0.73170758  0.91629551  0.28897157  1
  O  O406  1  0.73137754  0.91741668  0.53997260  1
  O  O407  1  0.73478126  0.91688530  0.79124870  1
  O  O408  1  0.26587228  0.08352397  0.20928510  1
  O  O409  1  0.26628484  0.08382875  0.46233507  1
  O  O410  1  0.26603642  0.08404385  0.71210366  1
  O  O411  1  0.26384130  0.08355110  0.96082764  1
  O  O412  1  0.26819279  0.41625618  0.20987279  1
  O  O413  1  0.26925123  0.41710155  0.46073696  1
  O  O414  1  0.26690178  0.41574097  0.71264082  1
  O  O415  1  0.26458200  0.41665771  0.96138381  1
  O  O416  1  0.26673796  0.74996575  0.21264602  1
  O  O417  1  0.26631310  0.74943642  0.45993869  1
  O  O418  1  0.26660632  0.74953822  0.70963185  1
  O  O419  1  0.26703189  0.74949900  0.96217403  1
  O  O420  1  0.76636243  0.08375465  0.20940269  1
  O  O421  1  0.76731214  0.08301853  0.45976213  1
  O  O422  1  0.76880622  0.08440826  0.71109354  1
  O  O423  1  0.76933495  0.08376067  0.96110643  1
  O  O424  1  0.76586940  0.41661992  0.21160380  1
  O  O425  1  0.76499853  0.41630657  0.45974686  1
  O  O426  1  0.76652111  0.41612903  0.71232539  1
  O  O427  1  0.76491413  0.41670242  0.96226269  1
  O  O428  1  0.76635928  0.74979387  0.21225075  1
  O  O429  1  0.76359565  0.74996913  0.46140831  1
  O  O430  1  0.76715841  0.75002510  0.71020280  1
  O  O431  1  0.76863487  0.74978130  0.96100849  1
  O  O432  1  0.01745229  0.08434643  0.16278630  1
  O  O433  1  0.01518523  0.08388703  0.41598566  1
  O  O434  1  0.01604439  0.08364299  0.66310532  1
  O  O435  1  0.01631548  0.08421022  0.91240862  1
  O  O436  1  0.01778282  0.41613356  0.16513924  1
  O  O437  1  0.01507521  0.41663108  0.41352751  1
  O  O438  1  0.01544171  0.41662734  0.66572844  1
  O  O439  1  0.01724843  0.41615042  0.91170508  1
  O  O440  1  0.01659760  0.74984096  0.16302819  1
  O  O441  1  0.01625897  0.74925781  0.41261541  1
  O  O442  1  0.01481411  0.75021735  0.66580321  1
  O  O443  1  0.01455947  0.74953788  0.91296705  1
  O  O444  1  0.51619578  0.08386250  0.16481574  1
  O  O445  1  0.51650062  0.08393088  0.41566575  1
  O  O446  1  0.51556347  0.08302621  0.66681997  1
  O  O447  1  0.51525627  0.08474490  0.91348973  1
  O  O448  1  0.51673969  0.41610005  0.16490641  1
  O  O449  1  0.51686913  0.41671270  0.41346307  1
  O  O450  1  0.51414522  0.41639761  0.66438666  1
  O  O451  1  0.51667564  0.41612050  0.91228104  1
  O  O452  1  0.51453639  0.74991789  0.16363701  1
  O  O453  1  0.51753906  0.74975724  0.41204594  1
  O  O454  1  0.51824637  0.75044549  0.66520317  1
  O  O455  1  0.51603986  0.74954286  0.91668377  1
  O  O456  1  0.48290116  0.25141257  0.08729133  1
  O  O457  1  0.48290857  0.24986369  0.33493597  1
  O  O458  1  0.48254853  0.25009844  0.58898686  1
  O  O459  1  0.48271549  0.25029530  0.83508889  1
  O  O460  1  0.48287737  0.58212374  0.08771253  1
  O  O461  1  0.48456656  0.58300656  0.33407410  1
  O  O462  1  0.48315727  0.58324054  0.58788046  1
  O  O463  1  0.48459988  0.58291733  0.83413895  1
  O  O464  1  0.48445626  0.91694189  0.08711587  1
  O  O465  1  0.48389502  0.91672565  0.33626206  1
  O  O466  1  0.48289671  0.91656172  0.58560916  1
  O  O467  1  0.48355890  0.91653136  0.83570822  1
  O  O468  1  0.98332926  0.25063326  0.08461309  1
  O  O469  1  0.98190425  0.24964031  0.33584140  1
  O  O470  1  0.98470595  0.25011343  0.58762618  1
  O  O471  1  0.98411876  0.24978095  0.83634932  1
  O  O472  1  0.98400478  0.58261923  0.08422689  1
  O  O473  1  0.98379279  0.58361832  0.33468850  1
  O  O474  1  0.98223243  0.58298701  0.58778371  1
  O  O475  1  0.98450677  0.58325461  0.83489786  1
  O  O476  1  0.98406458  0.91667151  0.08467750  1
  O  O477  1  0.98317892  0.91683869  0.33453872  1
  O  O478  1  0.98317917  0.91642232  0.58442585  1
  O  O479  1  0.98163076  0.91772214  0.83527088  1
  O  O480  1  0.08736124  0.31564936  0.07720010  1
  O  O481  1  0.08562295  0.31510063  0.32729827  1
  O  O482  1  0.08846471  0.31454418  0.57781574  1
  O  O483  1  0.08804795  0.31496216  0.82695214  1
  O  O484  1  0.08738152  0.64851852  0.07773761  1
  O  O485  1  0.08758544  0.64900980  0.32789464  1
  O  O486  1  0.08581205  0.64818319  0.57774122  1
  O  O487  1  0.08880564  0.64744681  0.82638533  1
  O  O488  1  0.08783583  0.98154718  0.07792097  1
  O  O489  1  0.08741192  0.98083799  0.32781848  1
  O  O490  1  0.08655607  0.98287693  0.57770918  1
  O  O491  1  0.08572900  0.98243536  0.82739692  1
  O  O492  1  0.58678706  0.31621812  0.07794626  1
  O  O493  1  0.58645676  0.31604229  0.32687684  1
  O  O494  1  0.58627283  0.31460945  0.57819133  1
  O  O495  1  0.58658350  0.31589563  0.82662219  1
  O  O496  1  0.58627181  0.64721491  0.07760929  1
  O  O497  1  0.58857924  0.64792026  0.32699400  1
  O  O498  1  0.58661006  0.64885780  0.57863107  1
  O  O499  1  0.58901056  0.64718301  0.82719049  1
  O  O500  1  0.58815504  0.98182783  0.07753651  1
  O  O501  1  0.58798226  0.98111082  0.32679161  1
  O  O502  1  0.58685341  0.98143630  0.57693172  1
  O  O503  1  0.58704125  0.98214422  0.82752907  1
  O  O504  1  0.41227406  0.01947052  0.17254102  1
  O  O505  1  0.41301493  0.01821149  0.42220602  1
  O  O506  1  0.41153338  0.01783271  0.67290265  1
  O  O507  1  0.41164516  0.01973800  0.92254151  1
  O  O508  1  0.41240407  0.35169460  0.17259780  1
  O  O509  1  0.41351218  0.35042552  0.42211119  1
  O  O510  1  0.41008896  0.35180880  0.67249833  1
  O  O511  1  0.41317535  0.35044182  0.92187758  1
  O  O512  1  0.41128855  0.68364568  0.17242048  1
  O  O513  1  0.41379751  0.68555957  0.42209542  1
  O  O514  1  0.41453392  0.68501728  0.67285079  1
  O  O515  1  0.41191360  0.68463203  0.92321990  1
  O  O516  1  0.91381184  0.01961455  0.17238456  1
  O  O517  1  0.91093996  0.01945843  0.42317491  1
  O  O518  1  0.91224020  0.01848465  0.67279514  1
  O  O519  1  0.91263172  0.01900455  0.92223670  1
  O  O520  1  0.91361936  0.35070884  0.17254609  1
  O  O521  1  0.91184121  0.35054500  0.42166396  1
  O  O522  1  0.91115494  0.35241714  0.67387161  1
  O  O523  1  0.91382025  0.35084112  0.92192368  1
  O  O524  1  0.91282160  0.68447730  0.17332147  1
  O  O525  1  0.91220767  0.68494670  0.42224844  1
  O  O526  1  0.91140275  0.68370566  0.67291587  1
  O  O527  1  0.91043373  0.68570416  0.92268055  1
  O  O528  1  0.16167773  0.01881352  0.20224607  1
  O  O529  1  0.16285477  0.01843045  0.45291657  1
  O  O530  1  0.16201790  0.01949835  0.70168316  1
  O  O531  1  0.15962693  0.01961886  0.95170411  1
  O  O532  1  0.16395101  0.35145882  0.20167799  1
  O  O533  1  0.16562604  0.35176686  0.45164607  1
  O  O534  1  0.16323917  0.35117720  0.70283557  1
  O  O535  1  0.16137998  0.35017001  0.95228217  1
  O  O536  1  0.16298140  0.68504941  0.20188084  1
  O  O537  1  0.16245282  0.68419367  0.45174353  1
  O  O538  1  0.16299312  0.68377904  0.70251898  1
  O  O539  1  0.16329692  0.68470872  0.95268090  1
  O  O540  1  0.66255418  0.01867383  0.20258257  1
  O  O541  1  0.66324471  0.01799043  0.45286979  1
  O  O542  1  0.66466941  0.01994520  0.70283294  1
  O  O543  1  0.66547292  0.01869945  0.95193878  1
  O  O544  1  0.66218756  0.35125765  0.20194366  1
  O  O545  1  0.66107768  0.35130095  0.45166907  1
  O  O546  1  0.66317894  0.35037146  0.70355223  1
  O  O547  1  0.66125970  0.35155997  0.95222093  1
  O  O548  1  0.66281015  0.68442583  0.20289515  1
  O  O549  1  0.65930984  0.68639987  0.45257211  1
  O  O550  1  0.66322668  0.68430510  0.70227612  1
  O  O551  1  0.66466664  0.68508082  0.95225723  1
  O  O552  1  0.33684504  0.31503777  0.04754352  1
  O  O553  1  0.33937748  0.31615723  0.29658977  1
  O  O554  1  0.33946526  0.31635685  0.54730607  1
  O  O555  1  0.33768592  0.31467388  0.79789320  1
  O  O556  1  0.33851407  0.64879694  0.04767210  1
  O  O557  1  0.33893912  0.64811671  0.29639192  1
  O  O558  1  0.33902414  0.64769557  0.54862824  1
  O  O559  1  0.33699887  0.64731840  0.79766378  1
  O  O560  1  0.33656049  0.98134385  0.04784194  1
  O  O561  1  0.33889484  0.98084328  0.29865851  1
  O  O562  1  0.33930769  0.98137613  0.54804469  1
  O  O563  1  0.33738956  0.98292861  0.79660391  1
  O  O564  1  0.83996605  0.31454113  0.04810202  1
  O  O565  1  0.83705155  0.31659109  0.29706812  1
  O  O566  1  0.83838522  0.31400026  0.54717032  1
  O  O567  1  0.83743225  0.31577483  0.79854578  1
  O  O568  1  0.83756692  0.64869669  0.04741974  1
  O  O569  1  0.83518825  0.64816839  0.29765160  1
  O  O570  1  0.83729368  0.64838093  0.54814951  1
  O  O571  1  0.83654880  0.64793901  0.79663548  1
  O  O572  1  0.83942785  0.98212273  0.04692594  1
  O  O573  1  0.83566262  0.98091222  0.29743962  1
  O  O574  1  0.83547072  0.98253613  0.54695086  1
  O  O575  1  0.83884848  0.98195544  0.79741319  1
  O  O576  1  0.41273392  0.14973201  0.17195015  1
  O  O577  1  0.41251939  0.14851130  0.42189158  1
  O  O578  1  0.41138606  0.14798797  0.67338745  1
  O  O579  1  0.41157769  0.15001723  0.92163396  1
  O  O580  1  0.41301751  0.48153845  0.17304833  1
  O  O581  1  0.41262777  0.48054739  0.42284858  1
  O  O582  1  0.41054879  0.48195778  0.67253660  1
  O  O583  1  0.41292589  0.48055518  0.92210757  1
  O  O584  1  0.41033953  0.81381177  0.17316280  1
  O  O585  1  0.41433495  0.81571178  0.42194641  1
  O  O586  1  0.41422239  0.81519479  0.67228282  1
  O  O587  1  0.41189048  0.81464285  0.92369487  1
  O  O588  1  0.91377987  0.14972718  0.17139363  1
  O  O589  1  0.91134144  0.14953414  0.42260011  1
  O  O590  1  0.91230235  0.14850218  0.67312228  1
  O  O591  1  0.91261534  0.14915980  0.92217683  1
  O  O592  1  0.91336513  0.48054933  0.17370813  1
  O  O593  1  0.91115789  0.48083667  0.42209879  1
  O  O594  1  0.91156391  0.48243513  0.67352014  1
  O  O595  1  0.91370427  0.48097074  0.92243377  1
  O  O596  1  0.91250502  0.81444192  0.17316964  1
  O  O597  1  0.91295172  0.81504715  0.42248621  1
  O  O598  1  0.91018328  0.81375190  0.67269060  1
  O  O599  1  0.91151733  0.81598270  0.92185480  1
  O  O600  1  0.08733227  0.18557086  0.07680420  1
  O  O601  1  0.08595571  0.18508871  0.32773285  1
  O  O602  1  0.08815474  0.18424321  0.57861586  1
  O  O603  1  0.08807535  0.18499042  0.82729150  1
  O  O604  1  0.08804782  0.51802986  0.07844318  1
  O  O605  1  0.08776430  0.51883130  0.32757736  1
  O  O606  1  0.08586964  0.51800854  0.57732075  1
  O  O607  1  0.08823898  0.51736359  0.82686249  1
  O  O608  1  0.08742888  0.85097842  0.07749829  1
  O  O609  1  0.08654816  0.85052376  0.32768649  1
  O  O610  1  0.08752853  0.85261795  0.57767281  1
  O  O611  1  0.08523406  0.85224016  0.82671260  1
  O  O612  1  0.58632877  0.18617104  0.07687334  1
  O  O613  1  0.58752136  0.18616229  0.32658002  1
  O  O614  1  0.58585795  0.18449739  0.57810242  1
  O  O615  1  0.58714827  0.18600794  0.82626980  1
  O  O616  1  0.58653575  0.51696193  0.07860747  1
  O  O617  1  0.58842444  0.51780446  0.32723723  1
  O  O618  1  0.58674913  0.51862832  0.57810421  1
  O  O619  1  0.58830140  0.51706125  0.82744601  1
  O  O620  1  0.58792441  0.85156422  0.07763722  1
  O  O621  1  0.58747438  0.85101829  0.32719548  1
  O  O622  1  0.58693961  0.85136122  0.57759321  1
  O  O623  1  0.58748909  0.85185013  0.82799263  1
  O  O624  1  0.33678546  0.18513500  0.04761695  1
  O  O625  1  0.33950688  0.18609437  0.29762310  1
  O  O626  1  0.34023343  0.18622839  0.54825351  1
  O  O627  1  0.33715668  0.18459625  0.79793189  1
  O  O628  1  0.33881511  0.51871356  0.04814101  1
  O  O629  1  0.33888289  0.51776479  0.29625808  1
  O  O630  1  0.33922796  0.51765412  0.54766017  1
  O  O631  1  0.33651947  0.51708533  0.79731593  1
  O  O632  1  0.33691406  0.85117399  0.04729630  1
  O  O633  1  0.33829345  0.85071511  0.29814003  1
  O  O634  1  0.33935802  0.85134537  0.54795616  1
  O  O635  1  0.33826802  0.85254996  0.79694000  1
  O  O636  1  0.83967151  0.18442745  0.04737111  1
  O  O637  1  0.83784067  0.18651303  0.29718295  1
  O  O638  1  0.83765801  0.18383305  0.54645952  1
  O  O639  1  0.83813192  0.18585163  0.79801313  1
  O  O640  1  0.83725658  0.51848378  0.04818774  1
  O  O641  1  0.83558309  0.51786244  0.29734551  1
  O  O642  1  0.83745932  0.51837780  0.54846496  1
  O  O643  1  0.83641236  0.51774960  0.79739430  1
  O  O644  1  0.83944242  0.85158422  0.04658932  1
  O  O645  1  0.83525109  0.85060079  0.29778990  1
  O  O646  1  0.83511837  0.85240543  0.54741993  1
  O  O647  1  0.83873133  0.85165960  0.79718521  1
  O  O648  1  0.16203539  0.14882653  0.20201925  1
  O  O649  1  0.16266565  0.14859752  0.45291329  1
  O  O650  1  0.16244836  0.14964652  0.70247388  1
  O  O651  1  0.16057307  0.14971584  0.95219850  1
  O  O652  1  0.16404583  0.48125788  0.20147952  1
  O  O653  1  0.16524004  0.48182685  0.45216400  1
  O  O654  1  0.16358960  0.48143246  0.70266751  1
  O  O655  1  0.16022475  0.48021706  0.95218752  1
  O  O656  1  0.16296605  0.81503812  0.20224320  1
  O  O657  1  0.16216746  0.81427179  0.45141786  1
  O  O658  1  0.16267243  0.81411604  0.70214966  1
  O  O659  1  0.16348541  0.81474446  0.95203208  1
  O  O660  1  0.66280802  0.14927487  0.20210629  1
  O  O661  1  0.66370439  0.14810369  0.45211007  1
  O  O662  1  0.66508920  0.15013905  0.70292706  1
  O  O663  1  0.66546238  0.14873240  0.95175055  1
  O  O664  1  0.66175235  0.48136788  0.20251400  1
  O  O665  1  0.66105522  0.48126335  0.45195162  1
  O  O666  1  0.66251506  0.48061223  0.70339547  1
  O  O667  1  0.66097601  0.48148989  0.95254474  1
  O  O668  1  0.66266532  0.81474908  0.20281803  1
  O  O669  1  0.66046603  0.81658501  0.45321045  1
  O  O670  1  0.66282168  0.81437865  0.70229943  1
  O  O671  1  0.66514102  0.81516871  0.95199986  1
