# generated using pymatgen
data_Na2MnFe(PO4)2
_symmetry_space_group_name_H-M   'P 1'
_cell_length_a   21.09170588
_cell_length_b   18.94465463
_cell_length_c   20.04991889
_cell_angle_alpha   90.00029804
_cell_angle_beta   90.00068636
_cell_angle_gamma   90.00316300
_symmetry_Int_Tables_number   1
_chemical_formula_structural   Na2MnFe(PO4)2
_chemical_formula_sum   'Na96 Mn48 Fe48 P96 O384'
_cell_volume   8011.44800105
_cell_formula_units_Z   48
loop_
 _symmetry_equiv_pos_site_id
 _symmetry_equiv_pos_as_xyz
  1  'x, y, z'
loop_
 _atom_site_type_symbol
 _atom_site_label
 _atom_site_symmetry_multiplicity
 _atom_site_fract_x
 _atom_site_fract_y
 _atom_site_fract_z
 _atom_site_occupancy
  Na  Na0  1  0.00242576  0.00021105  0.00037652  1
  Na  Na1  1  0.00019112  -0.00105060  0.24997222  1
  Na  Na2  1  0.00224675  -0.00056542  0.50041696  1
  Na  Na3  1  0.00320449  0.00003842  0.75017678  1
  Na  Na4  1  -0.00221457  0.33320881  0.00044573  1
  Na  Na5  1  -0.00259108  0.33305286  0.25057157  1
  Na  Na6  1  0.00160542  0.33399289  0.49946943  1
  Na  Na7  1  0.00168020  0.33393695  0.74979030  1
  Na  Na8  1  -0.00059236  0.66719486  -0.00045517  1
  Na  Na9  1  -0.00229133  0.66659095  0.25009118  1
  Na  Na10  1  -0.00048387  0.66703719  0.49932074  1
  Na  Na11  1  0.00045628  0.66672066  0.75041070  1
  Na  Na12  1  0.49867806  -0.00040458  0.00032233  1
  Na  Na13  1  0.50207664  0.00046430  0.24887900  1
  Na  Na14  1  0.50025816  -0.00051523  0.49957662  1
  Na  Na15  1  0.49955947  0.00010316  0.75058559  1
  Na  Na16  1  0.50090793  0.33340044  -0.00038003  1
  Na  Na17  1  0.50222361  0.33425168  0.24948131  1
  Na  Na18  1  0.50177631  0.33404925  0.50016701  1
  Na  Na19  1  0.49994850  0.33301966  0.75086638  1
  Na  Na20  1  0.49921317  0.66681294  -0.00055046  1
  Na  Na21  1  0.49819002  0.66614862  0.24829011  1
  Na  Na22  1  0.50095305  0.66745974  0.50070074  1
  Na  Na23  1  0.49893257  0.66654697  0.75106509  1
  Na  Na24  1  0.24904795  -0.00084189  0.12522332  1
  Na  Na25  1  0.24955937  -0.00049281  0.37522455  1
  Na  Na26  1  0.24777246  -0.00057273  0.62594537  1
  Na  Na27  1  0.24797728  -0.00077331  0.87372163  1
  Na  Na28  1  0.25159880  0.33398054  0.12394334  1
  Na  Na29  1  0.24978227  0.33344963  0.37576180  1
  Na  Na30  1  0.24865202  0.33360356  0.62543803  1
  Na  Na31  1  0.24900806  0.33322203  0.87543428  1
  Na  Na32  1  0.25099776  0.66626712  0.12509756  1
  Na  Na33  1  0.25180473  0.66734108  0.37560587  1
  Na  Na34  1  0.24929100  0.66589886  0.62428468  1
  Na  Na35  1  0.25260744  0.66786667  0.87464228  1
  Na  Na36  1  0.74870626  -0.00142564  0.12392738  1
  Na  Na37  1  0.74996952  -0.00006916  0.37587088  1
  Na  Na38  1  0.74922954  -0.00077188  0.62468646  1
  Na  Na39  1  0.75103617  0.00056881  0.87534715  1
  Na  Na40  1  0.75061923  0.33375732  0.12483806  1
  Na  Na41  1  0.74777664  0.33301967  0.37499046  1
  Na  Na42  1  0.74758725  0.33280662  0.62505788  1
  Na  Na43  1  0.75078425  0.33342946  0.87571883  1
  Na  Na44  1  0.75028578  0.66700926  0.12591755  1
  Na  Na45  1  0.75170069  0.66816932  0.37549837  1
  Na  Na46  1  0.74926542  0.66700659  0.62399140  1
  Na  Na47  1  0.74979170  0.66685296  0.87419628  1
  Na  Na48  1  -0.00120047  0.16764212  -0.00017092  1
  Na  Na49  1  -0.00063778  0.16696523  0.25122808  1
  Na  Na50  1  0.00203047  0.16659034  0.50006945  1
  Na  Na51  1  0.00336451  0.16605567  0.74955594  1
  Na  Na52  1  0.00093227  0.49905922  0.00026880  1
  Na  Na53  1  -0.00329726  0.50108834  0.24986951  1
  Na  Na54  1  0.00159614  0.49959591  0.49903621  1
  Na  Na55  1  0.00227361  0.49952343  0.75050008  1
  Na  Na56  1  -0.00138916  0.83393815  -0.00000775  1
  Na  Na57  1  -0.00089743  0.83330850  0.24974113  1
  Na  Na58  1  -0.00007886  0.83315669  0.49991675  1
  Na  Na59  1  -0.00012330  0.83316710  0.75055869  1
  Na  Na60  1  0.50074216  0.16690288  0.00061850  1
  Na  Na61  1  0.50193623  0.16637729  0.24839576  1
  Na  Na62  1  0.50144045  0.16638457  0.50066245  1
  Na  Na63  1  0.50006676  0.16672416  0.75078605  1
  Na  Na64  1  0.50085790  0.49961539  -0.00122182  1
  Na  Na65  1  0.50119396  0.49954717  0.24959752  1
  Na  Na66  1  0.50128574  0.49975744  0.50076404  1
  Na  Na67  1  0.49981301  0.50040859  0.75083980  1
  Na  Na68  1  0.49707029  0.83374984  0.00016008  1
  Na  Na69  1  0.49994406  0.83271319  0.24872601  1
  Na  Na70  1  0.50049982  0.83272911  0.49908442  1
  Na  Na71  1  0.49857725  0.83332861  0.75068204  1
  Na  Na72  1  0.25117183  0.16653250  0.12484527  1
  Na  Na73  1  0.25004394  0.16677109  0.37543765  1
  Na  Na74  1  0.24659071  0.16804014  0.62611155  1
  Na  Na75  1  0.25021288  0.16623241  0.87502568  1
  Na  Na76  1  0.24942236  0.50064551  0.12398238  1
  Na  Na77  1  0.25182351  0.49935902  0.37557287  1
  Na  Na78  1  0.24924846  0.50017594  0.62512495  1
  Na  Na79  1  0.24924195  0.49996327  0.87464403  1
  Na  Na80  1  0.25193538  0.83246647  0.12531038  1
  Na  Na81  1  0.24902985  0.83400064  0.37561839  1
  Na  Na82  1  0.24913588  0.83336274  0.62458622  1
  Na  Na83  1  0.24922235  0.83406481  0.87434788  1
  Na  Na84  1  0.74804438  0.16773966  0.12386310  1
  Na  Na85  1  0.74874987  0.16674294  0.37504896  1
  Na  Na86  1  0.74817367  0.16710169  0.62520987  1
  Na  Na87  1  0.74950315  0.16713297  0.87556993  1
  Na  Na88  1  0.75005536  0.49963868  0.12576901  1
  Na  Na89  1  0.75050787  0.49933448  0.37556842  1
  Na  Na90  1  0.74709889  0.50115500  0.62398664  1
  Na  Na91  1  0.74904665  0.50001012  0.87484822  1
  Na  Na92  1  0.75230863  0.83246886  0.12475668  1
  Na  Na93  1  0.75011986  0.83323917  0.37578775  1
  Na  Na94  1  0.75087469  0.83285699  0.62460134  1
  Na  Na95  1  0.75320239  0.83224520  0.87487238  1
  Mn  Mn96  1  0.85768884  0.41689680  0.75143664  1
  Mn  Mn97  1  0.39314324  0.25041913  0.37713600  1
  Mn  Mn98  1  0.64137141  0.24988501  0.49804468  1
  Mn  Mn99  1  0.64244200  0.58389556  0.24793257  1
  Mn  Mn100  1  0.10809651  0.08420794  0.12282312  1
  Mn  Mn101  1  0.64231904  0.91583170  0.99732593  1
  Mn  Mn102  1  0.14277114  0.58342789  0.74779087  1
  Mn  Mn103  1  0.85811964  0.08319132  0.50302386  1
  Mn  Mn104  1  0.89142394  0.24949349  0.37763781  1
  Mn  Mn105  1  0.89172698  0.58282743  0.87729215  1
  Mn  Mn106  1  0.39245603  0.58370806  0.62732355  1
  Mn  Mn107  1  0.64176167  0.58392242  0.49726517  1
  Mn  Mn108  1  0.10699498  0.74966405  0.37252762  1
  Mn  Mn109  1  0.39220033  0.58285134  0.12671510  1
  Mn  Mn110  1  0.39072457  0.91713122  0.87748978  1
  Mn  Mn111  1  0.35673050  0.08369556  0.75200403  1
  Mn  Mn112  1  0.85836913  0.08347010  0.00228875  1
  Mn  Mn113  1  0.89351492  0.91696362  0.62750151  1
  Mn  Mn114  1  0.60736844  0.08297918  0.87291169  1
  Mn  Mn115  1  0.60744031  0.74994021  0.12228041  1
  Mn  Mn116  1  0.10707566  0.41647491  0.12382483  1
  Mn  Mn117  1  0.14248351  0.25038969  0.24718741  1
  Mn  Mn118  1  0.85724527  0.41680309  0.50296835  1
  Mn  Mn119  1  0.35795257  0.41620531  0.50239422  1
  Mn  Mn120  1  0.14175625  0.24976792  0.99766690  1
  Mn  Mn121  1  0.85856343  0.08341866  0.75195780  1
  Mn  Mn122  1  0.89335107  0.25008291  0.62748577  1
  Mn  Mn123  1  0.35785316  0.75036070  0.50230389  1
  Mn  Mn124  1  0.10794724  0.74945949  0.12308184  1
  Mn  Mn125  1  0.89241874  0.91754282  0.12748254  1
  Mn  Mn126  1  0.10758864  0.41724300  0.37171644  1
  Mn  Mn127  1  0.10788980  0.08299563  0.37248089  1
  Mn  Mn128  1  0.35740617  0.41664100  0.00211632  1
  Mn  Mn129  1  0.35747828  0.08354235  0.50261320  1
  Mn  Mn130  1  0.64183303  0.91637060  0.49822843  1
  Mn  Mn131  1  0.39267149  0.91639252  0.37684627  1
  Mn  Mn132  1  0.64241556  0.91643663  0.74789552  1
  Mn  Mn133  1  0.60741136  0.75036738  0.87296396  1
  Mn  Mn134  1  0.14261325  0.58344114  0.24814434  1
  Mn  Mn135  1  0.89300267  0.58288259  0.62724474  1
  Mn  Mn136  1  0.39346031  0.25010004  0.12702989  1
  Mn  Mn137  1  0.85681547  0.08293463  0.25218219  1
  Mn  Mn138  1  0.35836221  0.08352095  0.25242697  1
  Mn  Mn139  1  0.60834559  0.08289744  0.37192945  1
  Mn  Mn140  1  0.10789504  0.74977648  0.87291099  1
  Mn  Mn141  1  0.89141677  0.58289190  0.12679855  1
  Mn  Mn142  1  0.39201604  0.24946014  0.62777406  1
  Mn  Mn143  1  0.60789419  0.41662665  0.87251801  1
  Fe  Fe144  1  0.64272842  0.24946516  0.24755193  1
  Fe  Fe145  1  0.89198964  0.58381914  0.37728003  1
  Fe  Fe146  1  0.14262570  0.25024161  0.49807073  1
  Fe  Fe147  1  0.10695657  0.41612788  0.87387871  1
  Fe  Fe148  1  0.60728354  0.75067880  0.62410800  1
  Fe  Fe149  1  0.35705927  0.41670615  0.75170720  1
  Fe  Fe150  1  0.35672730  0.08273181  0.00142626  1
  Fe  Fe151  1  0.60740021  0.08318021  0.12253277  1
  Fe  Fe152  1  0.60738103  0.74964352  0.37273362  1
  Fe  Fe153  1  0.85764987  0.74971006  0.75096607  1
  Fe  Fe154  1  0.85721176  0.41725296  0.00138233  1
  Fe  Fe155  1  0.14318240  0.91595337  0.99884618  1
  Fe  Fe156  1  0.85709322  0.75006928  0.50229166  1
  Fe  Fe157  1  0.64367059  0.25060208  0.99775968  1
  Fe  Fe158  1  0.64286500  0.58333881  0.99840895  1
  Fe  Fe159  1  0.10817373  0.08328466  0.62243590  1
  Fe  Fe160  1  0.14283417  0.91625407  0.49787680  1
  Fe  Fe161  1  0.35748779  0.74957289  0.25221472  1
  Fe  Fe162  1  0.60714988  0.08269540  0.62418897  1
  Fe  Fe163  1  0.14288267  0.91614646  0.24835394  1
  Fe  Fe164  1  0.89249223  0.91657461  0.37672472  1
  Fe  Fe165  1  0.64207751  0.58360214  0.74840813  1
  Fe  Fe166  1  0.60717147  0.41749934  0.37273550  1
  Fe  Fe167  1  0.14240729  0.91589007  0.74794787  1
  Fe  Fe168  1  0.64298755  0.91659499  0.24799035  1
  Fe  Fe169  1  0.35722612  0.74974158  0.75087287  1
  Fe  Fe170  1  0.85738488  0.74916645  0.00145177  1
  Fe  Fe171  1  0.10839578  0.41721799  0.62292302  1
  Fe  Fe172  1  0.85589216  0.41683018  0.25218929  1
  Fe  Fe173  1  0.89278719  0.24960531  0.87566976  1
  Fe  Fe174  1  0.10771043  0.74933892  0.62316952  1
  Fe  Fe175  1  0.64231356  0.25014199  0.74891031  1
  Fe  Fe176  1  0.60680825  0.41665661  0.62423824  1
  Fe  Fe177  1  0.39324005  0.58313859  0.37638023  1
  Fe  Fe178  1  0.89155659  0.24957160  0.12711498  1
  Fe  Fe179  1  0.14238136  0.25041699  0.74904779  1
  Fe  Fe180  1  0.35659616  0.75049709  0.00142180  1
  Fe  Fe181  1  0.89392863  0.91759710  0.87620230  1
  Fe  Fe182  1  0.14249614  0.58389683  0.99816943  1
  Fe  Fe183  1  0.10775745  0.08418270  0.87398967  1
  Fe  Fe184  1  0.39223234  0.25015633  0.87669831  1
  Fe  Fe185  1  0.60833346  0.41674217  0.12291076  1
  Fe  Fe186  1  0.14272955  0.58343629  0.49736563  1
  Fe  Fe187  1  0.39226752  0.91675030  0.62624156  1
  Fe  Fe188  1  0.35880492  0.41700238  0.25163642  1
  Fe  Fe189  1  0.39259398  0.58261564  0.87677903  1
  Fe  Fe190  1  0.85694421  0.75012190  0.25218122  1
  Fe  Fe191  1  0.39233948  0.91720817  0.12707649  1
  P  P192  1  0.05135886  0.25056246  0.11015102  1
  P  P193  1  0.05423719  0.25023495  0.36068551  1
  P  P194  1  0.05602281  0.25058805  0.61069141  1
  P  P195  1  0.05272489  0.25046971  0.86003020  1
  P  P196  1  0.05347191  0.58339746  0.10945085  1
  P  P197  1  0.05247261  0.58379045  0.36040929  1
  P  P198  1  0.05469838  0.58373885  0.60928932  1
  P  P199  1  0.05445169  0.58277164  0.86135057  1
  P  P200  1  0.05549310  0.91616840  0.11051894  1
  P  P201  1  0.05376996  0.91593673  0.36026208  1
  P  P202  1  0.05609368  0.91558085  0.61081113  1
  P  P203  1  0.05495628  0.91695810  0.86113397  1
  P  P204  1  0.55636726  0.25033938  0.11022228  1
  P  P205  1  0.55437789  0.25076233  0.35892638  1
  P  P206  1  0.55434505  0.24993972  0.61199882  1
  P  P207  1  0.55389964  0.24999310  0.86095488  1
  P  P208  1  0.55409745  0.58269762  0.10878319  1
  P  P209  1  0.55242266  0.58393856  0.35991340  1
  P  P210  1  0.55482798  0.58382902  0.61176658  1
  P  P211  1  0.55400818  0.58355921  0.86080348  1
  P  P212  1  0.55332378  0.91676254  0.11063788  1
  P  P213  1  0.55420291  0.91530028  0.35866796  1
  P  P214  1  0.55195826  0.91627867  0.61052339  1
  P  P215  1  0.55238653  0.91641231  0.86004273  1
  P  P216  1  0.44664930  0.08271679  0.13829459  1
  P  P217  1  0.44731314  0.08342060  0.39005313  1
  P  P218  1  0.44755416  0.08243206  0.64014001  1
  P  P219  1  0.44524268  0.08449362  0.89073122  1
  P  P220  1  0.44810336  0.41668430  0.13986746  1
  P  P221  1  0.44716942  0.41764313  0.38902054  1
  P  P222  1  0.44712163  0.41662768  0.64095617  1
  P  P223  1  0.44505999  0.41639896  0.88858847  1
  P  P224  1  0.44400322  0.75064322  0.13877359  1
  P  P225  1  0.44672572  0.74899570  0.38858327  1
  P  P226  1  0.44719675  0.75092643  0.64044020  1
  P  P227  1  0.44397934  0.74916729  0.88932184  1
  P  P228  1  0.94680428  0.08420893  0.14050492  1
  P  P229  1  0.94640464  0.08196962  0.39027285  1
  P  P230  1  0.94932758  0.08326949  0.64002544  1
  P  P231  1  0.94841661  0.08330562  0.88951301  1
  P  P232  1  0.94369679  0.41592564  0.13969513  1
  P  P233  1  0.94449838  0.41738522  0.38898786  1
  P  P234  1  0.94895800  0.41696540  0.63985615  1
  P  P235  1  0.94682364  0.41595402  0.89006259  1
  P  P236  1  0.94461635  0.74978973  0.13960352  1
  P  P237  1  0.94397509  0.75046824  0.38928915  1
  P  P238  1  0.94692284  0.74975569  0.63950448  1
  P  P239  1  0.94470319  0.75059039  0.88908712  1
  P  P240  1  0.19702459  0.08272250  0.23499984  1
  P  P241  1  0.19527391  0.08311768  0.48624845  1
  P  P242  1  0.19381279  0.08373253  0.73627547  1
  P  P243  1  0.19713725  0.08235437  0.98467343  1
  P  P244  1  0.19887834  0.41717675  0.23476015  1
  P  P245  1  0.19514011  0.41706745  0.48598371  1
  P  P246  1  0.19592832  0.41598243  0.73621674  1
  P  P247  1  0.19532218  0.41728272  0.98469368  1
  P  P248  1  0.19800008  0.75015697  0.23546087  1
  P  P249  1  0.19523072  0.74978130  0.48605659  1
  P  P250  1  0.19727905  0.75012042  0.73444538  1
  P  P251  1  0.19762431  0.75011879  0.98530979  1
  P  P252  1  0.69584325  0.08266119  0.23385074  1
  P  P253  1  0.69526579  0.08296342  0.48625619  1
  P  P254  1  0.69634365  0.08386235  0.73483762  1
  P  P255  1  0.69557212  0.08385059  0.98592954  1
  P  P256  1  0.69559069  0.41645602  0.23569818  1
  P  P257  1  0.69408626  0.41693950  0.48544798  1
  P  P258  1  0.69584422  0.41664933  0.73477527  1
  P  P259  1  0.69657599  0.41688650  0.98625755  1
  P  P260  1  0.69658013  0.75096165  0.23621076  1
  P  P261  1  0.69543212  0.75025958  0.48543873  1
  P  P262  1  0.69737389  0.74970479  0.73458995  1
  P  P263  1  0.69780499  0.74914112  0.98496886  1
  P  P264  1  0.30440949  0.24902098  0.01367020  1
  P  P265  1  0.30395358  0.25113788  0.26507525  1
  P  P266  1  0.30203055  0.25002065  0.51546735  1
  P  P267  1  0.30240184  0.25083139  0.76556128  1
  P  P268  1  0.30327621  0.58378184  0.01340499  1
  P  P269  1  0.30462160  0.58308382  0.26531512  1
  P  P270  1  0.30360888  0.58315116  0.51392848  1
  P  P271  1  0.30437437  0.58320452  0.76506730  1
  P  P272  1  0.30276196  0.91704492  0.01525866  1
  P  P273  1  0.30355953  0.91597772  0.26414346  1
  P  P274  1  0.30271566  0.91684157  0.51566772  1
  P  P275  1  0.30304177  0.91604280  0.76305769  1
  P  P276  1  0.80476890  0.25077083  0.01387804  1
  P  P277  1  0.80247605  0.25028057  0.26381321  1
  P  P278  1  0.80295657  0.25006881  0.51574326  1
  P  P279  1  0.80259326  0.25009237  0.76533797  1
  P  P280  1  0.80201579  0.58323999  0.01466823  1
  P  P281  1  0.80375305  0.58339918  0.26575964  1
  P  P282  1  0.80424605  0.58436591  0.51413711  1
  P  P283  1  0.80200737  0.58366918  0.76424968  1
  P  P284  1  0.80529285  0.91609026  0.01334823  1
  P  P285  1  0.80266373  0.91625571  0.26560527  1
  P  P286  1  0.80474195  0.91573966  0.51425907  1
  P  P287  1  0.80462561  0.91619846  0.76534065  1
  O  O288  1  0.05561286  0.25062030  0.18682269  1
  O  O289  1  0.05911701  0.25042449  0.43741060  1
  O  O290  1  0.05951714  0.25079201  0.68750176  1
  O  O291  1  0.05567794  0.25049961  0.93674424  1
  O  O292  1  0.05652077  0.58380332  0.18624171  1
  O  O293  1  0.05815334  0.58379632  0.43697682  1
  O  O294  1  0.05748734  0.58379354  0.68617634  1
  O  O295  1  0.05869498  0.58396450  0.93806382  1
  O  O296  1  0.05989346  0.91563333  0.18728504  1
  O  O297  1  0.05882409  0.91581951  0.43694950  1
  O  O298  1  0.05961755  0.91523480  0.68770272  1
  O  O299  1  0.05948508  0.91582240  0.93783735  1
  O  O300  1  0.56015647  0.25033387  0.18704309  1
  O  O301  1  0.55655841  0.24984791  0.43578944  1
  O  O302  1  0.55810187  0.24991019  0.68874639  1
  O  O303  1  0.55915293  0.25035129  0.93758557  1
  O  O304  1  0.55740821  0.58358350  0.18567570  1
  O  O305  1  0.55566461  0.58418701  0.43638996  1
  O  O306  1  0.55834699  0.58400856  0.68866006  1
  O  O307  1  0.55920936  0.58364362  0.93741571  1
  O  O308  1  0.55861988  0.91597152  0.18719894  1
  O  O309  1  0.55698020  0.91590892  0.43549183  1
  O  O310  1  0.55546747  0.91627054  0.68716371  1
  O  O311  1  0.55598246  0.91596933  0.93676671  1
  O  O312  1  0.44129942  0.08300592  0.06173698  1
  O  O313  1  0.44419257  0.08356867  0.31324470  1
  O  O314  1  0.44389729  0.08322791  0.56345495  1
  O  O315  1  0.44209046  0.08373599  0.81393509  1
  O  O316  1  0.44358626  0.41654837  0.06316794  1
  O  O317  1  0.44256647  0.41693258  0.31235523  1
  O  O318  1  0.44360333  0.41655906  0.56421275  1
  O  O319  1  0.44087963  0.41641772  0.81184830  1
  O  O320  1  0.43956781  0.75009449  0.06196903  1
  O  O321  1  0.44182062  0.74971440  0.31190768  1
  O  O322  1  0.44370644  0.75021386  0.56369940  1
  O  O323  1  0.43997475  0.75011506  0.81256985  1
  O  O324  1  0.94397675  0.08339615  0.06371054  1
  O  O325  1  0.94287793  0.08249188  0.31351971  1
  O  O326  1  0.94494656  0.08317628  0.56340907  1
  O  O327  1  0.94511202  0.08305048  0.81285628  1
  O  O328  1  0.93994584  0.41703799  0.06288352  1
  O  O329  1  0.93963780  0.41671187  0.31224028  1
  O  O330  1  0.94443640  0.41701184  0.56323514  1
  O  O331  1  0.94341484  0.41703790  0.81335654  1
  O  O332  1  0.94049475  0.74957705  0.06280606  1
  O  O333  1  0.94006008  0.75049165  0.31246034  1
  O  O334  1  0.94191913  0.74988131  0.56286844  1
  O  O335  1  0.94071438  0.74930613  0.81230649  1
  O  O336  1  0.19383483  0.08368313  0.06138177  1
  O  O337  1  0.19386701  0.08338993  0.31177712  1
  O  O338  1  0.19168370  0.08318161  0.56308673  1
  O  O339  1  0.19029269  0.08372529  0.81309702  1
  O  O340  1  0.19235064  0.41653101  0.06141518  1
  O  O341  1  0.19451360  0.41709008  0.31146805  1
  O  O342  1  0.19154340  0.41744178  0.56280508  1
  O  O343  1  0.19097389  0.41641881  0.81283670  1
  O  O344  1  0.19433729  0.74959870  0.06192278  1
  O  O345  1  0.19378530  0.74986225  0.31211289  1
  O  O346  1  0.19160570  0.74930696  0.56275952  1
  O  O347  1  0.19372502  0.74983048  0.81116275  1
  O  O348  1  0.69116726  0.08280362  0.06262704  1
  O  O349  1  0.69373470  0.08284966  0.31072308  1
  O  O350  1  0.69033092  0.08262085  0.56295808  1
  O  O351  1  0.69336199  0.08314738  0.81162146  1
  O  O352  1  0.69246926  0.41683484  0.06299216  1
  O  O353  1  0.69091623  0.41729123  0.31238371  1
  O  O354  1  0.68962179  0.41697487  0.56221895  1
  O  O355  1  0.69354907  0.41651505  0.81154211  1
  O  O356  1  0.69398043  0.75007125  0.06167740  1
  O  O357  1  0.69168901  0.75012656  0.31282295  1
  O  O358  1  0.69029446  0.75046719  0.56211002  1
  O  O359  1  0.69343594  0.75044657  0.81123298  1
  O  O360  1  0.30745785  0.25058544  0.18827114  1
  O  O361  1  0.30673545  0.24997616  0.43885845  1
  O  O362  1  0.30597188  0.25032664  0.68883010  1
  O  O363  1  0.30823014  0.24988790  0.93696574  1
  O  O364  1  0.30705380  0.58268287  0.18893677  1
  O  O365  1  0.30913649  0.58319472  0.43733500  1
  O  O366  1  0.30683898  0.58288343  0.68820565  1
  O  O367  1  0.30803002  0.58282752  0.93668510  1
  O  O368  1  0.30835326  0.91687506  0.18747158  1
  O  O369  1  0.30705705  0.91680013  0.43898165  1
  O  O370  1  0.30814181  0.91669263  0.68651612  1
  O  O371  1  0.30542546  0.91730602  0.93841696  1
  O  O372  1  0.80701836  0.24970083  0.18714283  1
  O  O373  1  0.80606139  0.25003748  0.43893448  1
  O  O374  1  0.80684448  0.24991818  0.68867003  1
  O  O375  1  0.80980816  0.24970789  0.93721093  1
  O  O376  1  0.80614327  0.58339920  0.18897993  1
  O  O377  1  0.80841737  0.58353349  0.43737311  1
  O  O378  1  0.80598163  0.58306386  0.68755564  1
  O  O379  1  0.80527583  0.58305060  0.93805754  1
  O  O380  1  0.80643183  0.91687011  0.18884798  1
  O  O381  1  0.80862833  0.91678215  0.43759920  1
  O  O382  1  0.80760549  0.91708266  0.68852953  1
  O  O383  1  0.80988907  0.91753177  0.93670059  1
  O  O384  1  0.23445898  0.24995284  0.03822508  1
  O  O385  1  0.23426843  0.25055364  0.29011549  1
  O  O386  1  0.23187035  0.25049993  0.53933815  1
  O  O387  1  0.23226300  0.24984526  0.78993173  1
  O  O388  1  0.23298902  0.58344805  0.03734340  1
  O  O389  1  0.23498277  0.58343279  0.29123772  1
  O  O390  1  0.23324170  0.58321333  0.53722541  1
  O  O391  1  0.23466645  0.58366983  0.79024583  1
  O  O392  1  0.23282636  0.91628273  0.04021864  1
  O  O393  1  0.23329730  0.91627214  0.28813693  1
  O  O394  1  0.23246169  0.91636567  0.53930617  1
  O  O395  1  0.23259375  0.91649463  0.78659662  1
  O  O396  1  0.73425583  0.25062420  0.03709266  1
  O  O397  1  0.73214425  0.24975321  0.28769014  1
  O  O398  1  0.73319283  0.25001201  0.54035518  1
  O  O399  1  0.73240792  0.25029323  0.78949308  1
  O  O400  1  0.73227373  0.58327758  0.04022383  1
  O  O401  1  0.73408930  0.58373938  0.29121670  1
  O  O402  1  0.73432048  0.58435128  0.53795880  1
  O  O403  1  0.73190651  0.58344352  0.78871989  1
  O  O404  1  0.73524659  0.91567630  0.03745945  1
  O  O405  1  0.73260683  0.91678905  0.29005692  1
  O  O406  1  0.73477763  0.91565482  0.53868767  1
  O  O407  1  0.73490484  0.91653174  0.79045668  1
  O  O408  1  0.26665712  0.08284126  0.20982018  1
  O  O409  1  0.26505218  0.08288992  0.46131997  1
  O  O410  1  0.26383525  0.08381777  0.71172854  1
  O  O411  1  0.26701549  0.08247632  0.95966483  1
  O  O412  1  0.26889858  0.41756017  0.21033927  1
  O  O413  1  0.26511866  0.41674351  0.46162342  1
  O  O414  1  0.26635922  0.41695742  0.71253830  1
  O  O415  1  0.26513523  0.41669474  0.95991319  1
  O  O416  1  0.26807466  0.74928305  0.21117174  1
  O  O417  1  0.26514950  0.75045756  0.46147283  1
  O  O418  1  0.26736627  0.74939765  0.70988398  1
  O  O419  1  0.26754977  0.75093020  0.96024515  1
  O  O420  1  0.76532213  0.08278343  0.20798871  1
  O  O421  1  0.76529294  0.08328702  0.46240419  1
  O  O422  1  0.76605673  0.08319720  0.70963190  1
  O  O423  1  0.76563327  0.08389147  0.96186861  1
  O  O424  1  0.76601284  0.41711787  0.21222032  1
  O  O425  1  0.76423944  0.41659458  0.46180682  1
  O  O426  1  0.76537799  0.41685860  0.70886659  1
  O  O427  1  0.76674890  0.41667859  0.96193420  1
  O  O428  1  0.76696854  0.75000621  0.21268083  1
  O  O429  1  0.76591836  0.75028150  0.46239176  1
  O  O430  1  0.76756332  0.74997690  0.71023623  1
  O  O431  1  0.76781803  0.74944383  0.96046408  1
  O  O432  1  0.01631729  0.08372076  0.16598219  1
  O  O433  1  0.01615190  0.08265452  0.41505515  1
  O  O434  1  0.01956491  0.08303167  0.66379114  1
  O  O435  1  0.01839012  0.08387787  0.91463291  1
  O  O436  1  0.01362916  0.41687786  0.16432134  1
  O  O437  1  0.01469329  0.41685315  0.41248422  1
  O  O438  1  0.01914980  0.41711593  0.66377672  1
  O  O439  1  0.01686422  0.41616692  0.91473459  1
  O  O440  1  0.01466388  0.74973763  0.16369503  1
  O  O441  1  0.01406901  0.75022089  0.41330307  1
  O  O442  1  0.01732127  0.74984240  0.66302649  1
  O  O443  1  0.01484124  0.75025040  0.91318305  1
  O  O444  1  0.51714014  0.08335735  0.16153338  1
  O  O445  1  0.51701989  0.08305009  0.41491549  1
  O  O446  1  0.51748736  0.08291344  0.66504949  1
  O  O447  1  0.51497834  0.08346047  0.91560235  1
  O  O448  1  0.51847272  0.41666398  0.16340493  1
  O  O449  1  0.51741226  0.41728377  0.41295512  1
  O  O450  1  0.51718249  0.41678696  0.66542733  1
  O  O451  1  0.51510350  0.41647429  0.91276253  1
  O  O452  1  0.51431213  0.74964635  0.16228250  1
  O  O453  1  0.51695143  0.74970411  0.41247486  1
  O  O454  1  0.51718955  0.75016290  0.66521967  1
  O  O455  1  0.51403184  0.75008288  0.91356346  1
  O  O456  1  0.48626694  0.25035880  0.08615553  1
  O  O457  1  0.48491151  0.25019643  0.33314453  1
  O  O458  1  0.48452088  0.25012906  0.58696254  1
  O  O459  1  0.48345666  0.24999543  0.83767752  1
  O  O460  1  0.48441864  0.58317096  0.08416475  1
  O  O461  1  0.48267185  0.58333963  0.33436472  1
  O  O462  1  0.48498473  0.58373712  0.58687493  1
  O  O463  1  0.48352830  0.58320105  0.83769636  1
  O  O464  1  0.48285496  0.91659060  0.08723068  1
  O  O465  1  0.48452683  0.91629568  0.33354283  1
  O  O466  1  0.48213475  0.91622223  0.58508759  1
  O  O467  1  0.48250326  0.91673643  0.83559771  1
  O  O468  1  0.98133889  0.25036963  0.08582857  1
  O  O469  1  0.98403642  0.25003687  0.33728910  1
  O  O470  1  0.98611630  0.25036278  0.58588121  1
  O  O471  1  0.98280302  0.25015318  0.83477094  1
  O  O472  1  0.98370709  0.58322795  0.08456096  1
  O  O473  1  0.98202737  0.58418224  0.33736573  1
  O  O474  1  0.98505905  0.58333231  0.58400145  1
  O  O475  1  0.98452584  0.58292610  0.83691208  1
  O  O476  1  0.98536000  0.91687628  0.08686481  1
  O  O477  1  0.98336120  0.91575313  0.33690477  1
  O  O478  1  0.98612658  0.91612277  0.58639415  1
  O  O479  1  0.98463842  0.91654031  0.83721871  1
  O  O480  1  0.08503162  0.31557087  0.07734723  1
  O  O481  1  0.08736412  0.31523845  0.32713055  1
  O  O482  1  0.08967502  0.31570030  0.57781053  1
  O  O483  1  0.08677571  0.31556751  0.82748551  1
  O  O484  1  0.08762848  0.64832382  0.07666991  1
  O  O485  1  0.08568188  0.64872038  0.32685099  1
  O  O486  1  0.08860882  0.64897650  0.57690918  1
  O  O487  1  0.08806294  0.64763637  0.82785833  1
  O  O488  1  0.08950356  0.98101045  0.07762684  1
  O  O489  1  0.08718812  0.98090383  0.32696877  1
  O  O490  1  0.09007291  0.98062498  0.57820768  1
  O  O491  1  0.08826373  0.98221062  0.82848878  1
  O  O492  1  0.58989102  0.31550556  0.07723389  1
  O  O493  1  0.58851217  0.31613922  0.32728803  1
  O  O494  1  0.58792537  0.31520994  0.57929222  1
  O  O495  1  0.58734870  0.31483009  0.82738775  1
  O  O496  1  0.58847279  0.64758975  0.07610990  1
  O  O497  1  0.58616797  0.64902801  0.32692080  1
  O  O498  1  0.58836661  0.64899312  0.57900264  1
  O  O499  1  0.58707763  0.64856931  0.82717436  1
  O  O500  1  0.58657397  0.98176456  0.07735235  1
  O  O501  1  0.58905249  0.97996254  0.32624314  1
  O  O502  1  0.58606086  0.98130709  0.57799036  1
  O  O503  1  0.58640802  0.98142177  0.82773081  1
  O  O504  1  0.41379657  0.01758814  0.17191068  1
  O  O505  1  0.41307290  0.01834206  0.42220765  1
  O  O506  1  0.41369750  0.01725751  0.67245058  1
  O  O507  1  0.41050501  0.01968408  0.92324768  1
  O  O508  1  0.41454786  0.35177030  0.17309486  1
  O  O509  1  0.41381411  0.35267768  0.42264305  1
  O  O510  1  0.41303152  0.35175135  0.67370208  1
  O  O511  1  0.41171903  0.35125743  0.92162952  1
  O  O512  1  0.41023483  0.68591628  0.17198822  1
  O  O513  1  0.41368032  0.68378704  0.42182765  1
  O  O514  1  0.41282259  0.68613332  0.67320339  1
  O  O515  1  0.41086307  0.68370361  0.92196498  1
  O  O516  1  0.91249815  0.01923585  0.17290959  1
  O  O517  1  0.91301432  0.01649355  0.42262080  1
  O  O518  1  0.91577369  0.01833022  0.67306180  1
  O  O519  1  0.91492721  0.01820324  0.92248860  1
  O  O520  1  0.91027405  0.35052796  0.17220746  1
  O  O521  1  0.91103581  0.35248586  0.42247067  1
  O  O522  1  0.91534740  0.35197548  0.67280640  1
  O  O523  1  0.91281415  0.35078130  0.92214448  1
  O  O524  1  0.91078184  0.68488840  0.17257740  1
  O  O525  1  0.91022478  0.68551534  0.42240310  1
  O  O526  1  0.91359778  0.68471562  0.67292136  1
  O  O527  1  0.91087257  0.68575834  0.92258064  1
  O  O528  1  0.16283616  0.01756437  0.20316898  1
  O  O529  1  0.16152344  0.01781143  0.45373423  1
  O  O530  1  0.16019529  0.01863227  0.70341924  1
  O  O531  1  0.16307046  0.01714325  0.95272105  1
  O  O532  1  0.16510681  0.35214641  0.20186881  1
  O  O533  1  0.16142886  0.35191216  0.45338148  1
  O  O534  1  0.16307121  0.35067854  0.70310661  1
  O  O535  1  0.16095037  0.35238284  0.95197698  1
  O  O536  1  0.16401866  0.68526882  0.20255154  1
  O  O537  1  0.16191888  0.68464549  0.45274693  1
  O  O538  1  0.16302929  0.68525865  0.70175003  1
  O  O539  1  0.16405530  0.68511739  0.95217883  1
  O  O540  1  0.66146633  0.01743918  0.20191289  1
  O  O541  1  0.66208444  0.01784771  0.45292378  1
  O  O542  1  0.66173758  0.01903745  0.70221764  1
  O  O543  1  0.66216008  0.01891245  0.95251023  1
  O  O544  1  0.66269726  0.35133257  0.20231119  1
  O  O545  1  0.66032455  0.35209944  0.45230299  1
  O  O546  1  0.66147736  0.35147251  0.70280825  1
  O  O547  1  0.66301725  0.35193080  0.95302465  1
  O  O548  1  0.66287045  0.68621218  0.20266455  1
  O  O549  1  0.66218243  0.68540463  0.45174216  1
  O  O550  1  0.66345378  0.68470331  0.70201497  1
  O  O551  1  0.66410413  0.68392927  0.95262802  1
  O  O552  1  0.33863827  0.31370157  0.04677911  1
  O  O553  1  0.33769406  0.31649576  0.29732305  1
  O  O554  1  0.33585728  0.31496227  0.54835814  1
  O  O555  1  0.33596999  0.31600192  0.79817339  1
  O  O556  1  0.33645293  0.64896598  0.04621448  1
  O  O557  1  0.33913156  0.64821915  0.29765508  1
  O  O558  1  0.33680709  0.64824607  0.54731190  1
  O  O559  1  0.33885201  0.64824509  0.79690684  1
  O  O560  1  0.33653162  0.98222098  0.04791399  1
  O  O561  1  0.33704529  0.98080971  0.29766751  1
  O  O562  1  0.33617636  0.98181677  0.54889654  1
  O  O563  1  0.33615981  0.98099794  0.79685643  1
  O  O564  1  0.83776360  0.31596146  0.04700597  1
  O  O565  1  0.83548135  0.31545136  0.29700519  1
  O  O566  1  0.83681886  0.31517989  0.54826643  1
  O  O567  1  0.83657208  0.31508277  0.79801616  1
  O  O568  1  0.83617767  0.64826056  0.04710061  1
  O  O569  1  0.83826945  0.64832980  0.29791809  1
  O  O570  1  0.83783039  0.64962450  0.54675773  1
  O  O571  1  0.83588249  0.64866108  0.79677897  1
  O  O572  1  0.83837022  0.98116397  0.04714119  1
  O  O573  1  0.83687037  0.98105075  0.29855203  1
  O  O574  1  0.83832653  0.98051421  0.54787373  1
  O  O575  1  0.83914475  0.98103445  0.79805530  1
  O  O576  1  0.41356999  0.14773734  0.17190361  1
  O  O577  1  0.41350942  0.14851767  0.42269308  1
  O  O578  1  0.41342683  0.14727313  0.67308142  1
  O  O579  1  0.41162100  0.14981430  0.92292952  1
  O  O580  1  0.41455424  0.48164559  0.17275311  1
  O  O581  1  0.41396441  0.48283782  0.42213429  1
  O  O582  1  0.41307810  0.48162851  0.67347536  1
  O  O583  1  0.41175050  0.48162331  0.92166916  1
  O  O584  1  0.41109689  0.81597893  0.17191763  1
  O  O585  1  0.41310388  0.81389071  0.42201341  1
  O  O586  1  0.41322753  0.81604650  0.67275755  1
  O  O587  1  0.40973706  0.81388474  0.92253974  1
  O  O588  1  0.91257893  0.14938961  0.17240874  1
  O  O589  1  0.91219328  0.14691620  0.42286854  1
  O  O590  1  0.91590020  0.14834535  0.67301458  1
  O  O591  1  0.91408040  0.14831141  0.92171335  1
  O  O592  1  0.90938648  0.48060854  0.17272676  1
  O  O593  1  0.91160893  0.48282594  0.42201519  1
  O  O594  1  0.91534033  0.48192149  0.67296471  1
  O  O595  1  0.91271830  0.48076445  0.92326317  1
  O  O596  1  0.91098512  0.81481114  0.17266124  1
  O  O597  1  0.91065465  0.81563960  0.42238081  1
  O  O598  1  0.91340922  0.81457253  0.67299916  1
  O  O599  1  0.91144217  0.81590147  0.92165258  1
  O  O600  1  0.08532740  0.18563797  0.07728218  1
  O  O601  1  0.08760267  0.18512066  0.32768481  1
  O  O602  1  0.08990252  0.18545090  0.57802443  1
  O  O603  1  0.08727357  0.18564409  0.82776288  1
  O  O604  1  0.08779445  0.51838696  0.07738259  1
  O  O605  1  0.08536507  0.51874961  0.32668434  1
  O  O606  1  0.08927148  0.51885060  0.57708881  1
  O  O607  1  0.08801666  0.51746913  0.82893750  1
  O  O608  1  0.08856796  0.85107863  0.07695933  1
  O  O609  1  0.08721571  0.85107461  0.32667728  1
  O  O610  1  0.08934833  0.85042736  0.57768261  1
  O  O611  1  0.08850970  0.85217055  0.82724799  1
  O  O612  1  0.58995260  0.18528739  0.07728361  1
  O  O613  1  0.58921011  0.18606567  0.32646251  1
  O  O614  1  0.58790253  0.18472259  0.57921904  1
  O  O615  1  0.58722308  0.18505023  0.82757346  1
  O  O616  1  0.58813027  0.51747504  0.07667606  1
  O  O617  1  0.58685009  0.51897032  0.32755614  1
  O  O618  1  0.58839823  0.51860245  0.57923535  1
  O  O619  1  0.58751952  0.51870832  0.82737610  1
  O  O620  1  0.58630872  0.85162730  0.07688232  1
  O  O621  1  0.58790538  0.84996772  0.32641062  1
  O  O622  1  0.58594420  0.85111687  0.57801067  1
  O  O623  1  0.58616219  0.85147716  0.82723293  1
  O  O624  1  0.33755449  0.18355336  0.04630633  1
  O  O625  1  0.33810334  0.18611061  0.29760250  1
  O  O626  1  0.33518657  0.18484346  0.54868622  1
  O  O627  1  0.33685679  0.18605424  0.79818724  1
  O  O628  1  0.33671229  0.51897956  0.04704915  1
  O  O629  1  0.33901792  0.51807376  0.29799368  1
  O  O630  1  0.33679977  0.51821215  0.54749926  1
  O  O631  1  0.33836144  0.51815141  0.79762355  1
  O  O632  1  0.33736953  0.85224918  0.04741198  1
  O  O633  1  0.33669144  0.85063956  0.29709623  1
  O  O634  1  0.33673904  0.85195567  0.54852198  1
  O  O635  1  0.33592021  0.85087758  0.79633686  1
  O  O636  1  0.83796583  0.18590396  0.04787299  1
  O  O637  1  0.83589908  0.18533151  0.29724116  1
  O  O638  1  0.83709970  0.18514675  0.54825510  1
  O  O639  1  0.83643644  0.18510533  0.79834201  1
  O  O640  1  0.83601047  0.51818500  0.04720529  1
  O  O641  1  0.83775044  0.51821550  0.29799804  1
  O  O642  1  0.83762221  0.51941932  0.54765247  1
  O  O643  1  0.83576737  0.51870337  0.79730083  1
  O  O644  1  0.83892043  0.85092031  0.04588789  1
  O  O645  1  0.83647220  0.85116000  0.29811750  1
  O  O646  1  0.83840875  0.85043149  0.54674364  1
  O  O647  1  0.83881500  0.85094197  0.79700288  1
  O  O648  1  0.16306878  0.14779593  0.20224983  1
  O  O649  1  0.16168810  0.14834737  0.45362640  1
  O  O650  1  0.16022834  0.14894022  0.70369464  1
  O  O651  1  0.16284571  0.14722700  0.95176565  1
  O  O652  1  0.16466464  0.48212161  0.20237694  1
  O  O653  1  0.16171720  0.48221517  0.45280051  1
  O  O654  1  0.16221703  0.48074411  0.70258223  1
  O  O655  1  0.16141354  0.48239575  0.95230335  1
  O  O656  1  0.16464726  0.81530537  0.20259583  1
  O  O657  1  0.16134232  0.81493666  0.45350482  1
  O  O658  1  0.16341170  0.81508220  0.70186887  1
  O  O659  1  0.16350889  0.81517549  0.95291401  1
  O  O660  1  0.66128975  0.14763567  0.20180790  1
  O  O661  1  0.66171163  0.14792569  0.45311234  1
  O  O662  1  0.66230311  0.14916367  0.70295565  1
  O  O663  1  0.66219519  0.14922300  0.95341271  1
  O  O664  1  0.66203426  0.48131554  0.20211622  1
  O  O665  1  0.66078756  0.48195265  0.45211023  1
  O  O666  1  0.66123444  0.48164882  0.70278031  1
  O  O667  1  0.66309837  0.48194523  0.95325695  1
  O  O668  1  0.66393690  0.81623862  0.20270148  1
  O  O669  1  0.66209975  0.81511516  0.45186838  1
  O  O670  1  0.66353524  0.81468082  0.70143310  1
  O  O671  1  0.66392900  0.81393832  0.95176440  1
