# generated using pymatgen
data_Na2MnFe(PO4)2
_symmetry_space_group_name_H-M   'P 1'
_cell_length_a   21.07221577
_cell_length_b   18.92247532
_cell_length_c   20.03218036
_cell_angle_alpha   89.99976120
_cell_angle_beta   89.99734878
_cell_angle_gamma   90.00102728
_symmetry_Int_Tables_number   1
_chemical_formula_structural   Na2MnFe(PO4)2
_chemical_formula_sum   'Na96 Mn48 Fe48 P96 O384'
_cell_volume   7987.60119226
_cell_formula_units_Z   48
loop_
 _symmetry_equiv_pos_site_id
 _symmetry_equiv_pos_as_xyz
  1  'x, y, z'
loop_
 _atom_site_type_symbol
 _atom_site_label
 _atom_site_symmetry_multiplicity
 _atom_site_fract_x
 _atom_site_fract_y
 _atom_site_fract_z
 _atom_site_occupancy
  Na  Na0  1  -0.00004750  -0.00026757  -0.00045948  1
  Na  Na1  1  0.00070557  0.00042903  0.24867703  1
  Na  Na2  1  0.00002379  0.00035289  0.49997902  1
  Na  Na3  1  -0.00104225  -0.00015824  0.75152684  1
  Na  Na4  1  0.00310884  0.33394104  -0.00048625  1
  Na  Na5  1  0.00232517  0.33405633  0.25055498  1
  Na  Na6  1  -0.00242878  0.33184976  0.50097432  1
  Na  Na7  1  0.00077759  0.33346714  0.75046848  1
  Na  Na8  1  -0.00017372  0.66625175  -0.00011697  1
  Na  Na9  1  -0.00252136  0.66561818  0.24934797  1
  Na  Na10  1  -0.00099657  0.66663984  0.49945539  1
  Na  Na11  1  0.00134880  0.66745602  0.75114820  1
  Na  Na12  1  0.49811868  -0.00025482  -0.00040253  1
  Na  Na13  1  0.49628181  -0.00079455  0.25024472  1
  Na  Na14  1  0.49891970  0.00031428  0.50073681  1
  Na  Na15  1  0.49898125  -0.00057299  0.74992837  1
  Na  Na16  1  0.49828902  0.33294353  -0.00116835  1
  Na  Na17  1  0.49950767  0.33386887  0.24929790  1
  Na  Na18  1  0.49976403  0.33313403  0.50131318  1
  Na  Na19  1  0.50131574  0.33398987  0.74968881  1
  Na  Na20  1  0.49999822  0.66720317  0.00040736  1
  Na  Na21  1  0.49744778  0.66589892  0.25055132  1
  Na  Na22  1  0.49896786  0.66665061  0.49971114  1
  Na  Na23  1  0.50104487  0.66713639  0.74933553  1
  Na  Na24  1  0.25100935  0.00004077  0.12544353  1
  Na  Na25  1  0.25061640  0.00032706  0.37549221  1
  Na  Na26  1  0.24963632  0.00019624  0.62478209  1
  Na  Na27  1  0.25084347  0.00042307  0.87500572  1
  Na  Na28  1  0.24827133  0.33274595  0.12520678  1
  Na  Na29  1  0.24970058  0.33315180  0.37420114  1
  Na  Na30  1  0.24924925  0.33298851  0.62500313  1
  Na  Na31  1  0.24943193  0.33367474  0.87553514  1
  Na  Na32  1  0.25169197  0.66683635  0.12432299  1
  Na  Na33  1  0.25281735  0.66683595  0.37454577  1
  Na  Na34  1  0.25100888  0.66703427  0.62520685  1
  Na  Na35  1  0.24848591  0.66610601  0.87478808  1
  Na  Na36  1  0.75073903  -0.00049115  0.12458379  1
  Na  Na37  1  0.75186402  0.00036086  0.37503036  1
  Na  Na38  1  0.75141978  -0.00010277  0.62459734  1
  Na  Na39  1  0.75222540  0.00050060  0.87476700  1
  Na  Na40  1  0.74861449  0.33305813  0.12576533  1
  Na  Na41  1  0.75118491  0.33399342  0.37521217  1
  Na  Na42  1  0.75051617  0.33317201  0.62392948  1
  Na  Na43  1  0.74904247  0.33320552  0.87518124  1
  Na  Na44  1  0.75150279  0.66731389  0.12524388  1
  Na  Na45  1  0.75148837  0.66734096  0.37469926  1
  Na  Na46  1  0.74810354  0.66591885  0.62503932  1
  Na  Na47  1  0.75001258  0.66722907  0.87566649  1
  Na  Na48  1  0.00237124  0.16628058  -0.00014596  1
  Na  Na49  1  0.00101800  0.16755816  0.24914639  1
  Na  Na50  1  0.00198898  0.16666268  0.50062858  1
  Na  Na51  1  0.00134008  0.16696736  0.75125650  1
  Na  Na52  1  0.00233455  0.49898714  -0.00108334  1
  Na  Na53  1  -0.00043778  0.50057570  0.25016755  1
  Na  Na54  1  -0.00232759  0.50031580  0.50073887  1
  Na  Na55  1  -0.00104524  0.50036532  0.75025284  1
  Na  Na56  1  0.00063863  0.83253632  0.00057303  1
  Na  Na57  1  -0.00146231  0.83349291  0.24889377  1
  Na  Na58  1  -0.00277230  0.83421966  0.49951135  1
  Na  Na59  1  -0.00161103  0.83433474  0.75118250  1
  Na  Na60  1  0.49872519  0.16639043  -0.00096307  1
  Na  Na61  1  0.49671361  0.16784852  0.25022557  1
  Na  Na62  1  0.49910483  0.16718355  0.50073813  1
  Na  Na63  1  0.50040094  0.16661313  0.74989054  1
  Na  Na64  1  0.49740450  0.50009472  -0.00026422  1
  Na  Na65  1  0.49859253  0.49934666  0.24938273  1
  Na  Na66  1  0.49912329  0.49919469  0.50077755  1
  Na  Na67  1  0.49800579  0.49984902  0.75040392  1
  Na  Na68  1  0.49987492  0.83393009  -0.00000935  1
  Na  Na69  1  0.49772008  0.83392632  0.25049503  1
  Na  Na70  1  0.49916998  0.83376009  0.50024202  1
  Na  Na71  1  0.50321461  0.83250787  0.74875215  1
  Na  Na72  1  0.25014092  0.16643608  0.12574065  1
  Na  Na73  1  0.24844963  0.16732598  0.37572743  1
  Na  Na74  1  0.24750523  0.16679085  0.62417051  1
  Na  Na75  1  0.24663748  0.16759086  0.87491016  1
  Na  Na76  1  0.25018754  0.50044922  0.12481333  1
  Na  Na77  1  0.25177290  0.49965081  0.37411888  1
  Na  Na78  1  0.25214847  0.49931634  0.62528803  1
  Na  Na79  1  0.25169838  0.49928820  0.87575521  1
  Na  Na80  1  0.25048882  0.83384020  0.12435131  1
  Na  Na81  1  0.25346196  0.83220913  0.37430455  1
  Na  Na82  1  0.25069450  0.83309962  0.62548766  1
  Na  Na83  1  0.24920854  0.83399016  0.87505237  1
  Na  Na84  1  0.75178843  0.16598785  0.12538585  1
  Na  Na85  1  0.75141495  0.16708904  0.37511537  1
  Na  Na86  1  0.75187636  0.16685352  0.62413678  1
  Na  Na87  1  0.75105359  0.16710651  0.87469925  1
  Na  Na88  1  0.74955098  0.49972603  0.12587860  1
  Na  Na89  1  0.75065057  0.49928359  0.37407218  1
  Na  Na90  1  0.75022955  0.49877316  0.62398466  1
  Na  Na91  1  0.75018628  0.49901874  0.87630750  1
  Na  Na92  1  0.75084352  0.83279716  0.12402900  1
  Na  Na93  1  0.75177423  0.83277366  0.37599672  1
  Na  Na94  1  0.74942489  0.83375489  0.62519935  1
  Na  Na95  1  0.74923704  0.83348800  0.87486200  1
  Mn  Mn96  1  0.64279004  0.91725330  0.49729241  1
  Mn  Mn97  1  0.60689934  0.41707180  0.87278197  1
  Mn  Mn98  1  0.10807522  0.74920554  0.12301631  1
  Mn  Mn99  1  0.64290522  0.24974526  0.49736332  1
  Mn  Mn100  1  0.64178948  0.58389309  0.24789984  1
  Mn  Mn101  1  0.89144220  0.58338714  0.62829721  1
  Mn  Mn102  1  0.89344348  0.25119305  0.12703137  1
  Mn  Mn103  1  0.60672685  0.08343176  0.12310817  1
  Mn  Mn104  1  0.35654456  0.08372072  0.50246788  1
  Mn  Mn105  1  0.64199067  0.58285396  0.49695627  1
  Mn  Mn106  1  0.10759856  0.41690671  0.62250179  1
  Mn  Mn107  1  0.14269895  0.58318435  0.49759467  1
  Mn  Mn108  1  0.14163873  0.91598576  0.49749973  1
  Mn  Mn109  1  0.64167944  0.58241262  0.74816857  1
  Mn  Mn110  1  0.89241277  0.91611430  0.12712816  1
  Mn  Mn111  1  0.64140582  0.24928326  0.24810302  1
  Mn  Mn112  1  0.14249048  0.58362221  0.24798895  1
  Mn  Mn113  1  0.10749861  0.41702841  0.37373090  1
  Mn  Mn114  1  0.60853379  0.08358100  0.62314675  1
  Mn  Mn115  1  0.39247393  0.91679808  0.62758016  1
  Mn  Mn116  1  0.10876026  0.08340832  0.12244647  1
  Mn  Mn117  1  0.64175266  0.91662581  0.24827799  1
  Mn  Mn118  1  0.39167224  0.24977253  0.62771399  1
  Mn  Mn119  1  0.39154125  0.24957743  0.87656902  1
  Mn  Mn120  1  0.39259663  0.58318705  0.62734510  1
  Mn  Mn121  1  0.35706992  0.08402067  0.00172940  1
  Mn  Mn122  1  0.85809717  0.41674574  0.25197356  1
  Mn  Mn123  1  0.35857699  0.75039364  0.75322133  1
  Mn  Mn124  1  0.85877390  0.08297722  0.25266641  1
  Mn  Mn125  1  0.10766336  0.75068911  0.62223917  1
  Mn  Mn126  1  0.14311737  0.91624357  0.24832803  1
  Mn  Mn127  1  0.64162238  0.24920073  0.99847119  1
  Mn  Mn128  1  0.89316814  0.24995333  0.87736713  1
  Mn  Mn129  1  0.14179853  0.91699089  0.74781779  1
  Mn  Mn130  1  0.85702259  0.74947836  0.75249758  1
  Mn  Mn131  1  0.35788399  0.74981982  0.00174059  1
  Mn  Mn132  1  0.60668669  0.74968568  0.37217838  1
  Mn  Mn133  1  0.85806386  0.74949644  0.50262602  1
  Mn  Mn134  1  0.60697942  0.08392086  0.37246685  1
  Mn  Mn135  1  0.89252361  0.58355728  0.87765684  1
  Mn  Mn136  1  0.85857681  0.41666569  0.00281551  1
  Mn  Mn137  1  0.60837721  0.08265125  0.87229245  1
  Mn  Mn138  1  0.64199055  0.91723757  0.99809837  1
  Mn  Mn139  1  0.35778695  0.41630780  0.25231099  1
  Mn  Mn140  1  0.14287846  0.58291737  0.74762305  1
  Mn  Mn141  1  0.64162384  0.58331021  0.99856226  1
  Mn  Mn142  1  0.10782098  0.75022803  0.37239385  1
  Mn  Mn143  1  0.85958293  0.08403410  0.50244317  1
  Fe  Fe144  1  0.10729189  0.08296071  0.37331434  1
  Fe  Fe145  1  0.39132512  0.24997878  0.12672042  1
  Fe  Fe146  1  0.89269339  0.91633014  0.87707616  1
  Fe  Fe147  1  0.89248155  0.91724434  0.62740526  1
  Fe  Fe148  1  0.14212081  0.25084693  0.49810352  1
  Fe  Fe149  1  0.10828973  0.41768494  0.12326650  1
  Fe  Fe150  1  0.39232468  0.58447785  0.87693013  1
  Fe  Fe151  1  0.89375140  0.25017894  0.37630092  1
  Fe  Fe152  1  0.60653767  0.41634780  0.37381691  1
  Fe  Fe153  1  0.89296556  0.91711143  0.37631503  1
  Fe  Fe154  1  0.39251895  0.58266199  0.37735188  1
  Fe  Fe155  1  0.60749751  0.74957222  0.62282887  1
  Fe  Fe156  1  0.10667553  0.08288553  0.62426775  1
  Fe  Fe157  1  0.85732115  0.74997842  0.00180939  1
  Fe  Fe158  1  0.60753685  0.41681346  0.62332271  1
  Fe  Fe159  1  0.89217934  0.58297981  0.37680955  1
  Fe  Fe160  1  0.10723627  0.08247170  0.87295042  1
  Fe  Fe161  1  0.39311261  0.91595664  0.87596791  1
  Fe  Fe162  1  0.14292627  0.58361278  0.99837399  1
  Fe  Fe163  1  0.14300760  0.25008956  0.24865042  1
  Fe  Fe164  1  0.35642072  0.08378077  0.75148521  1
  Fe  Fe165  1  0.85739824  0.75005583  0.25134793  1
  Fe  Fe166  1  0.39198881  0.91697751  0.37763675  1
  Fe  Fe167  1  0.35742435  0.41570101  0.75180030  1
  Fe  Fe168  1  0.35770640  0.74966794  0.50189900  1
  Fe  Fe169  1  0.60690472  0.74986223  0.12404110  1
  Fe  Fe170  1  0.64357034  0.91782126  0.74851265  1
  Fe  Fe171  1  0.89310149  0.58244629  0.12605089  1
  Fe  Fe172  1  0.64353412  0.24958190  0.74828066  1
  Fe  Fe173  1  0.39233180  0.58366236  0.12649083  1
  Fe  Fe174  1  0.35770907  0.41642615  0.50165506  1
  Fe  Fe175  1  0.39167488  0.25048757  0.37728291  1
  Fe  Fe176  1  0.35616153  0.41629697  0.00167980  1
  Fe  Fe177  1  0.39187164  0.91665702  0.12639791  1
  Fe  Fe178  1  0.14316966  0.25009710  0.99821318  1
  Fe  Fe179  1  0.60602325  0.41673738  0.12332833  1
  Fe  Fe180  1  0.35837137  0.75053040  0.25142525  1
  Fe  Fe181  1  0.60755108  0.75002197  0.87391035  1
  Fe  Fe182  1  0.85715059  0.41674644  0.50174130  1
  Fe  Fe183  1  0.14273064  0.25013453  0.74811352  1
  Fe  Fe184  1  0.14285845  0.91638329  0.99797319  1
  Fe  Fe185  1  0.10702087  0.75021391  0.87379821  1
  Fe  Fe186  1  0.10835978  0.41698911  0.87242284  1
  Fe  Fe187  1  0.89339750  0.24943481  0.62759102  1
  Fe  Fe188  1  0.35698238  0.08346503  0.25233066  1
  Fe  Fe189  1  0.85813745  0.08392037  0.75182983  1
  Fe  Fe190  1  0.85694742  0.41619384  0.75162926  1
  Fe  Fe191  1  0.85820171  0.08361248  0.00157144  1
  P  P192  1  0.05618516  0.25123448  0.11052043  1
  P  P193  1  0.05453343  0.24967142  0.36085607  1
  P  P194  1  0.05440962  0.24940251  0.61124678  1
  P  P195  1  0.05638726  0.24999336  0.86088258  1
  P  P196  1  0.05327792  0.58277277  0.10931498  1
  P  P197  1  0.05184636  0.58335597  0.36003918  1
  P  P198  1  0.05298148  0.58340850  0.60985805  1
  P  P199  1  0.05523521  0.58347189  0.86126689  1
  P  P200  1  0.05462068  0.91635555  0.10922229  1
  P  P201  1  0.05203227  0.91715071  0.35958139  1
  P  P202  1  0.05164248  0.91761875  0.61031718  1
  P  P203  1  0.05354150  0.91633436  0.86173889  1
  P  P204  1  0.55083118  0.25038245  0.10990661  1
  P  P205  1  0.55129642  0.25097062  0.36037270  1
  P  P206  1  0.55502801  0.25062151  0.61130459  1
  P  P207  1  0.55387555  0.24978848  0.85898037  1
  P  P208  1  0.55163127  0.58337499  0.11049533  1
  P  P209  1  0.55146324  0.58202066  0.36012733  1
  P  P210  1  0.55383479  0.58265243  0.61000340  1
  P  P211  1  0.55158446  0.58394679  0.86042287  1
  P  P212  1  0.55150690  0.91625498  0.11045812  1
  P  P213  1  0.55126941  0.91698123  0.36026555  1
  P  P214  1  0.55530520  0.91662549  0.61100163  1
  P  P215  1  0.55328656  0.91607106  0.85935063  1
  P  P216  1  0.44476407  0.08355471  0.14030796  1
  P  P217  1  0.44460611  0.08389783  0.38945019  1
  P  P218  1  0.44582780  0.08373207  0.64108324  1
  P  P219  1  0.44533163  0.08241178  0.88827020  1
  P  P220  1  0.44516842  0.41640411  0.13811462  1
  P  P221  1  0.44658834  0.41612361  0.39063421  1
  P  P222  1  0.44601921  0.41619991  0.63992814  1
  P  P223  1  0.44378175  0.41704901  0.88933859  1
  P  P224  1  0.44683826  0.75015216  0.14012311  1
  P  P225  1  0.44435345  0.74998361  0.38953556  1
  P  P226  1  0.44687928  0.74998621  0.63904663  1
  P  P227  1  0.44814147  0.75057947  0.88974647  1
  P  P228  1  0.94637588  0.08373530  0.13866330  1
  P  P229  1  0.94848018  0.08396736  0.38963228  1
  P  P230  1  0.94752821  0.08384564  0.64115834  1
  P  P231  1  0.94625721  0.08299746  0.88949122  1
  P  P232  1  0.94893337  0.41744341  0.13992321  1
  P  P233  1  0.94601315  0.41654021  0.39063550  1
  P  P234  1  0.94483848  0.41551610  0.64000753  1
  P  P235  1  0.94735921  0.41628567  0.88884901  1
  P  P236  1  0.94498661  0.74859434  0.13900924  1
  P  P237  1  0.94519566  0.74995274  0.38832562  1
  P  P238  1  0.94663955  0.75071207  0.64079932  1
  P  P239  1  0.94679089  0.75065104  0.89076083  1
  P  P240  1  0.19660967  0.08364941  0.23671184  1
  P  P241  1  0.19366478  0.08379790  0.48580579  1
  P  P242  1  0.19552668  0.08368088  0.73549114  1
  P  P243  1  0.19584841  0.08291094  0.98443538  1
  P  P244  1  0.19601221  0.41641443  0.23470783  1
  P  P245  1  0.19825173  0.41636803  0.48488487  1
  P  P246  1  0.19696871  0.41613357  0.73595954  1
  P  P247  1  0.19577327  0.41720982  0.98591032  1
  P  P248  1  0.19886135  0.74993843  0.23478088  1
  P  P249  1  0.19835943  0.74984645  0.48440280  1
  P  P250  1  0.19585305  0.75028865  0.73596547  1
  P  P251  1  0.19613989  0.74986192  0.98455193  1
  P  P252  1  0.69706242  0.08310559  0.23472422  1
  P  P253  1  0.69768455  0.08359832  0.48437047  1
  P  P254  1  0.69889651  0.08347487  0.73496902  1
  P  P255  1  0.69815545  0.08326911  0.98488569  1
  P  P256  1  0.69419098  0.41651498  0.23560873  1
  P  P257  1  0.69620556  0.41638692  0.48487021  1
  P  P258  1  0.69708208  0.41568990  0.73443633  1
  P  P259  1  0.69510844  0.41652847  0.98645673  1
  P  P260  1  0.69721274  0.75023372  0.23437846  1
  P  P261  1  0.69541633  0.74987483  0.48550721  1
  P  P262  1  0.69433402  0.75073716  0.73582532  1
  P  P263  1  0.69570332  0.75004078  0.98596128  1
  P  P264  1  0.30222358  0.25063595  0.01526640  1
  P  P265  1  0.30370564  0.24937834  0.26465535  1
  P  P266  1  0.30282277  0.25087214  0.51405502  1
  P  P267  1  0.30155934  0.24937933  0.76480170  1
  P  P268  1  0.30399724  0.58287507  0.01406451  1
  P  P269  1  0.30569048  0.58399201  0.26410377  1
  P  P270  1  0.30503045  0.58293320  0.51396493  1
  P  P271  1  0.30449216  0.58259384  0.76582370  1
  P  P272  1  0.30381556  0.91653961  0.01393124  1
  P  P273  1  0.30565542  0.91684494  0.26433073  1
  P  P274  1  0.30409448  0.91599918  0.51441455  1
  P  P275  1  0.30382389  0.91775424  0.76564769  1
  P  P276  1  0.80370653  0.24960751  0.01530477  1
  P  P277  1  0.80424838  0.25035558  0.26578307  1
  P  P278  1  0.80634923  0.25091436  0.51430187  1
  P  P279  1  0.80411697  0.25032088  0.76376149  1
  P  P280  1  0.80389307  0.58393035  0.01592594  1
  P  P281  1  0.80501344  0.58385075  0.26413099  1
  P  P282  1  0.80426547  0.58242097  0.51398108  1
  P  P283  1  0.80260994  0.58201065  0.76570458  1
  P  P284  1  0.80500965  0.91656392  0.01338831  1
  P  P285  1  0.80396869  0.91553488  0.26557148  1
  P  P286  1  0.80592248  0.91695152  0.51489916  1
  P  P287  1  0.80454357  0.91733558  0.76459424  1
  O  O288  1  0.05981079  0.25017915  0.18739780  1
  O  O289  1  0.05853676  0.25072302  0.43768138  1
  O  O290  1  0.05910118  0.25058175  0.68801456  1
  O  O291  1  0.06027503  0.25024630  0.93774690  1
  O  O292  1  0.05669391  0.58365443  0.18609549  1
  O  O293  1  0.05608447  0.58344912  0.43672888  1
  O  O294  1  0.05680915  0.58314588  0.68667249  1
  O  O295  1  0.05922470  0.58306506  0.93803723  1
  O  O296  1  0.05800427  0.91648618  0.18604375  1
  O  O297  1  0.05545429  0.91622914  0.43634192  1
  O  O298  1  0.05538278  0.91683161  0.68705773  1
  O  O299  1  0.05830529  0.91644160  0.93838285  1
  O  O300  1  0.55470024  0.24984301  0.18661291  1
  O  O301  1  0.55566114  0.25007320  0.43709091  1
  O  O302  1  0.55986842  0.24976044  0.68803441  1
  O  O303  1  0.55663113  0.24945582  0.93583458  1
  O  O304  1  0.55511584  0.58321198  0.18718180  1
  O  O305  1  0.55532828  0.58273837  0.43684387  1
  O  O306  1  0.55634238  0.58240682  0.68683013  1
  O  O307  1  0.55513581  0.58305473  0.93714086  1
  O  O308  1  0.55510125  0.91688926  0.18713783  1
  O  O309  1  0.55571503  0.91716352  0.43698065  1
  O  O310  1  0.55976774  0.91774367  0.68776596  1
  O  O311  1  0.55647247  0.91743065  0.93617318  1
  O  O312  1  0.44224085  0.08368075  0.06340703  1
  O  O313  1  0.44082809  0.08404659  0.31264759  1
  O  O314  1  0.44201136  0.08414807  0.56427468  1
  O  O315  1  0.44096612  0.08376947  0.81158362  1
  O  O316  1  0.44049308  0.41605542  0.06137852  1
  O  O317  1  0.44329061  0.41583227  0.31391152  1
  O  O318  1  0.44117178  0.41574038  0.56320574  1
  O  O319  1  0.44013603  0.41565520  0.81246129  1
  O  O320  1  0.44361570  0.75032013  0.06330362  1
  O  O321  1  0.44109995  0.75008070  0.31266695  1
  O  O322  1  0.44174180  0.75018850  0.56236361  1
  O  O323  1  0.44518999  0.75042561  0.81302051  1
  O  O324  1  0.94225007  0.08377764  0.06187189  1
  O  O325  1  0.94539877  0.08414578  0.31285459  1
  O  O326  1  0.94482722  0.08403923  0.56437654  1
  O  O327  1  0.94139014  0.08398377  0.81274876  1
  O  O328  1  0.94538375  0.41644082  0.06317998  1
  O  O329  1  0.94389007  0.41657549  0.31377025  1
  O  O330  1  0.94077188  0.41634415  0.56324928  1
  O  O331  1  0.94166454  0.41620989  0.81224853  1
  O  O332  1  0.94127326  0.74964788  0.06223730  1
  O  O333  1  0.94174231  0.74984984  0.31151062  1
  O  O334  1  0.94367287  0.74972233  0.56396721  1
  O  O335  1  0.94285131  0.75005699  0.81403747  1
  O  O336  1  0.19408570  0.08259402  0.06136787  1
  O  O337  1  0.19177582  0.08297090  0.31341279  1
  O  O338  1  0.18969478  0.08265886  0.56262725  1
  O  O339  1  0.19103398  0.08251023  0.81223497  1
  O  O340  1  0.19190438  0.41763063  0.06267786  1
  O  O341  1  0.19294621  0.41731560  0.31151713  1
  O  O342  1  0.19446770  0.41696924  0.56162054  1
  O  O343  1  0.19246384  0.41698615  0.81270530  1
  O  O344  1  0.19375118  0.74975836  0.06138238  1
  O  O345  1  0.19468081  0.74973551  0.31149010  1
  O  O346  1  0.19407976  0.75021634  0.56117236  1
  O  O347  1  0.19084279  0.75059168  0.81269535  1
  O  O348  1  0.69355607  0.08304135  0.06156744  1
  O  O349  1  0.69327673  0.08347797  0.31151717  1
  O  O350  1  0.69412648  0.08360959  0.56115734  1
  O  O351  1  0.69518750  0.08339295  0.81169091  1
  O  O352  1  0.68988095  0.41669563  0.06322147  1
  O  O353  1  0.68977305  0.41660737  0.31241238  1
  O  O354  1  0.69129249  0.41648005  0.56155428  1
  O  O355  1  0.69319083  0.41662171  0.81123222  1
  O  O356  1  0.69036593  0.74998312  0.06266247  1
  O  O357  1  0.69298215  0.75000137  0.31115481  1
  O  O358  1  0.69095630  0.74968570  0.56234603  1
  O  O359  1  0.69058199  0.74982027  0.81273586  1
  O  O360  1  0.30800866  0.25012821  0.18788884  1
  O  O361  1  0.30753514  0.25043682  0.43733789  1
  O  O362  1  0.30492066  0.24931966  0.68806534  1
  O  O363  1  0.30578046  0.24988883  0.93857087  1
  O  O364  1  0.30947705  0.58332223  0.18719376  1
  O  O365  1  0.30867684  0.58264625  0.43710377  1
  O  O366  1  0.30746724  0.58366535  0.68895180  1
  O  O367  1  0.30862356  0.58415313  0.93736066  1
  O  O368  1  0.30889588  0.91670179  0.18739818  1
  O  O369  1  0.30807387  0.91677773  0.43758599  1
  O  O370  1  0.30683630  0.91667205  0.68880987  1
  O  O371  1  0.30888249  0.91622306  0.93730128  1
  O  O372  1  0.80770634  0.25055368  0.18898214  1
  O  O373  1  0.81066443  0.24988046  0.43754373  1
  O  O374  1  0.80856688  0.25001590  0.68704798  1
  O  O375  1  0.80697338  0.25069106  0.93846946  1
  O  O376  1  0.80910952  0.58255339  0.18738615  1
  O  O377  1  0.80835630  0.58310390  0.43716475  1
  O  O378  1  0.80527533  0.58281977  0.68885412  1
  O  O379  1  0.80687720  0.58304434  0.93907858  1
  O  O380  1  0.80684931  0.91641390  0.18870663  1
  O  O381  1  0.81038447  0.91722076  0.43809306  1
  O  O382  1  0.80894899  0.91668342  0.68779165  1
  O  O383  1  0.80872109  0.91624458  0.93654516  1
  O  O384  1  0.23201476  0.24983223  0.03957442  1
  O  O385  1  0.23330039  0.25018975  0.28844749  1
  O  O386  1  0.23246393  0.25022200  0.53781196  1
  O  O387  1  0.23163177  0.24998852  0.78985191  1
  O  O388  1  0.23357197  0.58355876  0.03774702  1
  O  O389  1  0.23564105  0.58303195  0.28846449  1
  O  O390  1  0.23531079  0.58318722  0.53919403  1
  O  O391  1  0.23472759  0.58273352  0.79070918  1
  O  O392  1  0.23337211  0.91655254  0.03745349  1
  O  O393  1  0.23575186  0.91655618  0.28927193  1
  O  O394  1  0.23414015  0.91657558  0.53893991  1
  O  O395  1  0.23401617  0.91726197  0.79045551  1
  O  O396  1  0.73404572  0.24959003  0.04062564  1
  O  O397  1  0.73437335  0.25043347  0.29053547  1
  O  O398  1  0.73612988  0.25001855  0.53803731  1
  O  O399  1  0.73386702  0.25025102  0.78804580  1
  O  O400  1  0.73416325  0.58342304  0.04107748  1
  O  O401  1  0.73491445  0.58336422  0.28847657  1
  O  O402  1  0.73431301  0.58252045  0.53836809  1
  O  O403  1  0.73305678  0.58257354  0.79136667  1
  O  O404  1  0.73510440  0.91638436  0.03822296  1
  O  O405  1  0.73433146  0.91632189  0.29104106  1
  O  O406  1  0.73576160  0.91681686  0.53859921  1
  O  O407  1  0.73412124  0.91707901  0.78837666  1
  O  O408  1  0.26687552  0.08335609  0.21272865  1
  O  O409  1  0.26380327  0.08373327  0.46183535  1
  O  O410  1  0.26577716  0.08325763  0.71137057  1
  O  O411  1  0.26543002  0.08380540  0.95878965  1
  O  O412  1  0.26582990  0.41664244  0.20987276  1
  O  O413  1  0.26814192  0.41626882  0.45984983  1
  O  O414  1  0.26729227  0.41603700  0.71204069  1
  O  O415  1  0.26614270  0.41678241  0.96181941  1
  O  O416  1  0.26892191  0.75040626  0.21027899  1
  O  O417  1  0.26849912  0.74955347  0.46031863  1
  O  O418  1  0.26611589  0.75029635  0.71251326  1
  O  O419  1  0.26588878  0.74988560  0.95915638  1
  O  O420  1  0.76693951  0.08284898  0.21020015  1
  O  O421  1  0.76761762  0.08398363  0.45996859  1
  O  O422  1  0.76896759  0.08340154  0.71016066  1
  O  O423  1  0.76830524  0.08351059  0.96063430  1
  O  O424  1  0.76452988  0.41642107  0.21204940  1
  O  O425  1  0.76667654  0.41640172  0.46152059  1
  O  O426  1  0.76718307  0.41594222  0.70997694  1
  O  O427  1  0.76536431  0.41656859  0.96296441  1
  O  O428  1  0.76740272  0.75007776  0.21035495  1
  O  O429  1  0.76554908  0.74993092  0.46185740  1
  O  O430  1  0.76440337  0.74986992  0.71146977  1
  O  O431  1  0.76622442  0.75015350  0.96265507  1
  O  O432  1  0.01646499  0.08372884  0.16276999  1
  O  O433  1  0.01827410  0.08358810  0.41509179  1
  O  O434  1  0.01746179  0.08379705  0.66638997  1
  O  O435  1  0.01683170  0.08318497  0.91268246  1
  O  O436  1  0.01883365  0.41773432  0.16490329  1
  O  O437  1  0.01556636  0.41648168  0.41659797  1
  O  O438  1  0.01498977  0.41657298  0.66404636  1
  O  O439  1  0.01797217  0.41618137  0.91172689  1
  O  O440  1  0.01502722  0.74944967  0.16348071  1
  O  O441  1  0.01498495  0.75006435  0.41358568  1
  O  O442  1  0.01622038  0.75074680  0.66624862  1
  O  O443  1  0.01701857  0.74973280  0.91490016  1
  O  O444  1  0.51436378  0.08344321  0.16598623  1
  O  O445  1  0.51442845  0.08384476  0.41447886  1
  O  O446  1  0.51581567  0.08346578  0.66526229  1
  O  O447  1  0.51532830  0.08277227  0.91273334  1
  O  O448  1  0.51539463  0.41674780  0.16234040  1
  O  O449  1  0.51662249  0.41618070  0.41559169  1
  O  O450  1  0.51640568  0.41675988  0.66347283  1
  O  O451  1  0.51386367  0.41637150  0.91351456  1
  O  O452  1  0.51681651  0.74988607  0.16529125  1
  O  O453  1  0.51433548  0.75012519  0.41419155  1
  O  O454  1  0.51730981  0.74958805  0.66237885  1
  O  O455  1  0.51794076  0.75064383  0.91523016  1
  O  O456  1  0.48074016  0.24978177  0.08516157  1
  O  O457  1  0.48111344  0.25101113  0.33615826  1
  O  O458  1  0.48479039  0.25004911  0.58767247  1
  O  O459  1  0.48401706  0.25012502  0.83415080  1
  O  O460  1  0.48156155  0.58362754  0.08557738  1
  O  O461  1  0.48135210  0.58242253  0.33571613  1
  O  O462  1  0.48422608  0.58293357  0.58455304  1
  O  O463  1  0.48166195  0.58380990  0.83536891  1
  O  O464  1  0.48138208  0.91663829  0.08574040  1
  O  O465  1  0.48100269  0.91649027  0.33648462  1
  O  O466  1  0.48515218  0.91710620  0.58705797  1
  O  O467  1  0.48331889  0.91599417  0.83441220  1
  O  O468  1  0.98631214  0.25031000  0.08573867  1
  O  O469  1  0.98428139  0.25062112  0.33661771  1
  O  O470  1  0.98397767  0.24941099  0.58777893  1
  O  O471  1  0.98623582  0.25001445  0.83685018  1
  O  O472  1  0.98329197  0.58275140  0.08445628  1
  O  O473  1  0.98169673  0.58300119  0.33586876  1
  O  O474  1  0.98307499  0.58330859  0.58554913  1
  O  O475  1  0.98519152  0.58383632  0.83686103  1
  O  O476  1  0.98470915  0.91611062  0.08481660  1
  O  O477  1  0.98211972  0.91714608  0.33448735  1
  O  O478  1  0.98161558  0.91755897  0.58568061  1
  O  O479  1  0.98314064  0.91676997  0.83793136  1
  O  O480  1  0.08947129  0.31681747  0.07813601  1
  O  O481  1  0.08877069  0.31435315  0.32760353  1
  O  O482  1  0.08772089  0.31426591  0.57715348  1
  O  O483  1  0.09005451  0.31499485  0.82756807  1
  O  O484  1  0.08743084  0.64772635  0.07640084  1
  O  O485  1  0.08544568  0.64835198  0.32674888  1
  O  O486  1  0.08680894  0.64854131  0.57721089  1
  O  O487  1  0.08886874  0.64880271  0.82872992  1
  O  O488  1  0.08858314  0.98140874  0.07646510  1
  O  O489  1  0.08612620  0.98239015  0.32745676  1
  O  O490  1  0.08545891  0.98290044  0.57810894  1
  O  O491  1  0.08687710  0.98139302  0.82818282  1
  O  O492  1  0.58448490  0.31560534  0.07730741  1
  O  O493  1  0.58508190  0.31610142  0.32783284  1
  O  O494  1  0.58801145  0.31615364  0.57835346  1
  O  O495  1  0.58829236  0.31484431  0.82681029  1
  O  O496  1  0.58562675  0.64859240  0.07811054  1
  O  O497  1  0.58532903  0.64706277  0.32709907  1
  O  O498  1  0.58813016  0.64774813  0.57777084  1
  O  O499  1  0.58571777  0.64905073  0.82830659  1
  O  O500  1  0.58536200  0.98123398  0.07726949  1
  O  O501  1  0.58451621  0.98211632  0.32706856  1
  O  O502  1  0.58880511  0.98162019  0.57750783  1
  O  O503  1  0.58748362  0.98090963  0.82610601  1
  O  O504  1  0.41028133  0.01841002  0.17231378  1
  O  O505  1  0.41080001  0.01863386  0.42213358  1
  O  O506  1  0.41152420  0.01881502  0.67352407  1
  O  O507  1  0.41193714  0.01692119  0.92079441  1
  O  O508  1  0.41196268  0.35133145  0.17169267  1
  O  O509  1  0.41239026  0.35126672  0.42367441  1
  O  O510  1  0.41270266  0.35120231  0.67361483  1
  O  O511  1  0.40956875  0.35233531  0.92269674  1
  O  O512  1  0.41250645  0.68511213  0.17245743  1
  O  O513  1  0.41078482  0.68457728  0.42218670  1
  O  O514  1  0.41352147  0.68500985  0.67243238  1
  O  O515  1  0.41392635  0.68557338  0.92235387  1
  O  O516  1  0.91296696  0.01847715  0.17159980  1
  O  O517  1  0.91414299  0.01893238  0.42191862  1
  O  O518  1  0.91322370  0.01882465  0.67353520  1
  O  O519  1  0.91284063  0.01788175  0.92249442  1
  O  O520  1  0.91521399  0.35246160  0.17308873  1
  O  O521  1  0.91169050  0.35137971  0.42272787  1
  O  O522  1  0.91197282  0.34986903  0.67293997  1
  O  O523  1  0.91437802  0.35130695  0.92277055  1
  O  O524  1  0.91165195  0.68309380  0.17146172  1
  O  O525  1  0.91132923  0.68477690  0.42121203  1
  O  O526  1  0.91240747  0.68568603  0.67352286  1
  O  O527  1  0.91238655  0.68592921  0.92373047  1
  O  O528  1  0.16321809  0.01876552  0.20301455  1
  O  O529  1  0.16009350  0.01892829  0.45206558  1
  O  O530  1  0.16166361  0.01893237  0.70180845  1
  O  O531  1  0.16189085  0.01766850  0.95195388  1
  O  O532  1  0.16199387  0.35112844  0.20270363  1
  O  O533  1  0.16400788  0.35127303  0.45263542  1
  O  O534  1  0.16335390  0.35103267  0.70307463  1
  O  O535  1  0.16229586  0.35202001  0.95288773  1
  O  O536  1  0.16526668  0.68471762  0.20193827  1
  O  O537  1  0.16457980  0.68478369  0.45157504  1
  O  O538  1  0.16270948  0.68511384  0.70264843  1
  O  O539  1  0.16184086  0.68475621  0.95231922  1
  O  O540  1  0.66302864  0.01798147  0.20223785  1
  O  O541  1  0.66391868  0.01848662  0.45167190  1
  O  O542  1  0.66500082  0.01833083  0.70234157  1
  O  O543  1  0.66464365  0.01809190  0.95176549  1
  O  O544  1  0.66049277  0.35153584  0.20235743  1
  O  O545  1  0.66283608  0.35132875  0.45143352  1
  O  O546  1  0.66327774  0.35057461  0.70174565  1
  O  O547  1  0.66177625  0.35148892  0.95311564  1
  O  O548  1  0.66326655  0.68522167  0.20139259  1
  O  O549  1  0.66205320  0.68481281  0.45209636  1
  O  O550  1  0.66011574  0.68595267  0.70262657  1
  O  O551  1  0.66245671  0.68494379  0.95240914  1
  O  O552  1  0.33557959  0.31591429  0.04811543  1
  O  O553  1  0.33744685  0.31431012  0.29805991  1
  O  O554  1  0.33603777  0.31603369  0.54729086  1
  O  O555  1  0.33582722  0.31426722  0.79738189  1
  O  O556  1  0.33792006  0.64762210  0.04764384  1
  O  O557  1  0.33905891  0.64930966  0.29666562  1
  O  O558  1  0.33897597  0.64814178  0.54659004  1
  O  O559  1  0.33873574  0.64755921  0.79877342  1
  O  O560  1  0.33714334  0.98158999  0.04735273  1
  O  O561  1  0.33918346  0.98208445  0.29727087  1
  O  O562  1  0.33792181  0.98101284  0.54746170  1
  O  O563  1  0.33771136  0.98314834  0.79761319  1
  O  O564  1  0.83777010  0.31469610  0.04813942  1
  O  O565  1  0.83852851  0.31535114  0.29830380  1
  O  O566  1  0.83931838  0.31631485  0.54732987  1
  O  O567  1  0.83741511  0.31552348  0.79710476  1
  O  O568  1  0.83796334  0.64931183  0.04772546  1
  O  O569  1  0.83836943  0.64932850  0.29672699  1
  O  O570  1  0.83778644  0.64737334  0.54750905  1
  O  O571  1  0.83709202  0.64705022  0.79801556  1
  O  O572  1  0.83870256  0.98181544  0.04603405  1
  O  O573  1  0.83895322  0.98024282  0.29818383  1
  O  O574  1  0.83954422  0.98205060  0.54812309  1
  O  O575  1  0.83823140  0.98245973  0.79740396  1
  O  O576  1  0.41029460  0.14863714  0.17258116  1
  O  O577  1  0.41086544  0.14914833  0.42227608  1
  O  O578  1  0.41178161  0.14868413  0.67402673  1
  O  O579  1  0.41153220  0.14728870  0.92182232  1
  O  O580  1  0.41175572  0.48155933  0.17117047  1
  O  O581  1  0.41253503  0.48130899  0.42310409  1
  O  O582  1  0.41212782  0.48107744  0.67295606  1
  O  O583  1  0.41043839  0.48253008  0.92177754  1
  O  O584  1  0.41272054  0.81521314  0.17266249  1
  O  O585  1  0.41038366  0.81494985  0.42253194  1
  O  O586  1  0.41394297  0.81505325  0.67277241  1
  O  O587  1  0.41395328  0.81570607  0.92211357  1
  O  O588  1  0.91294703  0.14869734  0.17191835  1
  O  O589  1  0.91485791  0.14920525  0.42239403  1
  O  O590  1  0.91345083  0.14894202  0.67384885  1
  O  O591  1  0.91310630  0.14800128  0.92329463  1
  O  O592  1  0.91447219  0.48246690  0.17203042  1
  O  O593  1  0.91143802  0.48162914  0.42272019  1
  O  O594  1  0.91042549  0.48001070  0.67354022  1
  O  O595  1  0.91434837  0.48136153  0.92254878  1
  O  O596  1  0.91071837  0.81323628  0.17239933  1
  O  O597  1  0.91137752  0.81519563  0.42093107  1
  O  O598  1  0.91237306  0.81598610  0.67263838  1
  O  O599  1  0.91332932  0.81594096  0.92348561  1
  O  O600  1  0.09062572  0.18658536  0.07730936  1
  O  O601  1  0.08772031  0.18428692  0.32790464  1
  O  O602  1  0.08779416  0.18414657  0.57855432  1
  O  O603  1  0.08982346  0.18464530  0.82805931  1
  O  O604  1  0.08766814  0.51779956  0.07693538  1
  O  O605  1  0.08575727  0.51823222  0.32741959  1
  O  O606  1  0.08686059  0.51826631  0.57712105  1
  O  O607  1  0.08850806  0.51821932  0.82791585  1
  O  O608  1  0.08888698  0.85136244  0.07680066  1
  O  O609  1  0.08600223  0.85212360  0.32667934  1
  O  O610  1  0.08548610  0.85273168  0.57696186  1
  O  O611  1  0.08649614  0.85109114  0.82831721  1
  O  O612  1  0.58486463  0.18527764  0.07710836  1
  O  O613  1  0.58484804  0.18593399  0.32696425  1
  O  O614  1  0.58862587  0.18579103  0.57764986  1
  O  O615  1  0.58821694  0.18482943  0.82639949  1
  O  O616  1  0.58525036  0.51828352  0.07748829  1
  O  O617  1  0.58509426  0.51682342  0.32767628  1
  O  O618  1  0.58773153  0.51724003  0.57775165  1
  O  O619  1  0.58537696  0.51883837  0.82740512  1
  O  O620  1  0.58531844  0.85099977  0.07806766  1
  O  O621  1  0.58501745  0.85193572  0.32732828  1
  O  O622  1  0.58838786  0.85109755  0.57828125  1
  O  O623  1  0.58768142  0.85091532  0.82761322  1
  O  O624  1  0.33640106  0.18586609  0.04830954  1
  O  O625  1  0.33675035  0.18423502  0.29797298  1
  O  O626  1  0.33625186  0.18591838  0.54761130  1
  O  O627  1  0.33501273  0.18408355  0.79761821  1
  O  O628  1  0.33705245  0.51752276  0.04707555  1
  O  O629  1  0.33980500  0.51911742  0.29725634  1
  O  O630  1  0.33870403  0.51755694  0.54657548  1
  O  O631  1  0.33853579  0.51731040  0.79769262  1
  O  O632  1  0.33728109  0.85157188  0.04753924  1
  O  O633  1  0.33973024  0.85178143  0.29687509  1
  O  O634  1  0.33764991  0.85067894  0.54706761  1
  O  O635  1  0.33839456  0.85305465  0.79866785  1
  O  O636  1  0.83802769  0.18433259  0.04700568  1
  O  O637  1  0.83861468  0.18536345  0.29833746  1
  O  O638  1  0.84046337  0.18628047  0.54801885  1
  O  O639  1  0.83773056  0.18527479  0.79699590  1
  O  O640  1  0.83856829  0.51914995  0.04870767  1
  O  O641  1  0.83902549  0.51908877  0.29766230  1
  O  O642  1  0.83785313  0.51713358  0.54662948  1
  O  O643  1  0.83675814  0.51669828  0.79762392  1
  O  O644  1  0.83870069  0.85140572  0.04630796  1
  O  O645  1  0.83788087  0.85011145  0.29751064  1
  O  O646  1  0.83945588  0.85196667  0.54824162  1
  O  O647  1  0.83793325  0.85232669  0.79825167  1
  O  O648  1  0.16336728  0.14894143  0.20370242  1
  O  O649  1  0.16016811  0.14916712  0.45322659  1
  O  O650  1  0.16211415  0.14899374  0.70274389  1
  O  O651  1  0.16092002  0.14782233  0.95268762  1
  O  O652  1  0.16182582  0.48131962  0.20173347  1
  O  O653  1  0.16448311  0.48143262  0.45190388  1
  O  O654  1  0.16379500  0.48109012  0.70220567  1
  O  O655  1  0.16256920  0.48228953  0.95235995  1
  O  O656  1  0.16468113  0.81482366  0.20218754  1
  O  O657  1  0.16479540  0.81501433  0.45137365  1
  O  O658  1  0.16259353  0.81543566  0.70251778  1
  O  O659  1  0.16182205  0.81495984  0.95218583  1
  O  O660  1  0.66326201  0.14832810  0.20201152  1
  O  O661  1  0.66351684  0.14858785  0.45176018  1
  O  O662  1  0.66509249  0.14859389  0.70222482  1
  O  O663  1  0.66423926  0.14822307  0.95201625  1
  O  O664  1  0.66071706  0.48160499  0.20228182  1
  O  O665  1  0.66269203  0.48122130  0.45115437  1
  O  O666  1  0.66300988  0.48066068  0.70137491  1
  O  O667  1  0.66181999  0.48169944  0.95303487  1
  O  O668  1  0.66337790  0.81527812  0.20149099  1
  O  O669  1  0.66202468  0.81497963  0.45234322  1
  O  O670  1  0.66124086  0.81629537  0.70323196  1
  O  O671  1  0.66230088  0.81498846  0.95238037  1
