# generated using pymatgen
data_Na2MnFe(PO4)2
_symmetry_space_group_name_H-M   'P 1'
_cell_length_a   21.08692806
_cell_length_b   18.94065265
_cell_length_c   20.04671346
_cell_angle_alpha   90.00010343
_cell_angle_beta   90.00217298
_cell_angle_gamma   90.00023766
_symmetry_Int_Tables_number   1
_chemical_formula_structural   Na2MnFe(PO4)2
_chemical_formula_sum   'Na96 Mn48 Fe48 P96 O384'
_cell_volume   8006.66095588
_cell_formula_units_Z   48
loop_
 _symmetry_equiv_pos_site_id
 _symmetry_equiv_pos_as_xyz
  1  'x, y, z'
loop_
 _atom_site_type_symbol
 _atom_site_label
 _atom_site_symmetry_multiplicity
 _atom_site_fract_x
 _atom_site_fract_y
 _atom_site_fract_z
 _atom_site_occupancy
  Na  Na0  1  -0.00188749  -0.00047483  -0.00024838  1
  Na  Na1  1  -0.00227257  -0.00068069  0.25147221  1
  Na  Na2  1  0.00084649  0.00051490  0.49894284  1
  Na  Na3  1  -0.00010486  -0.00015820  0.75013950  1
  Na  Na4  1  0.00095641  0.33358794  -0.00033161  1
  Na  Na5  1  0.00105275  0.33389045  0.24980956  1
  Na  Na6  1  0.00110190  0.33374879  0.50025365  1
  Na  Na7  1  0.00152597  0.33389062  0.74981963  1
  Na  Na8  1  0.00047613  0.66727480  0.00037925  1
  Na  Na9  1  -0.00094537  0.66596322  0.25120725  1
  Na  Na10  1  -0.00125864  0.66649998  0.49952163  1
  Na  Na11  1  -0.00224821  0.66594989  0.74863156  1
  Na  Na12  1  0.49832083  -0.00000187  -0.00109599  1
  Na  Na13  1  0.50094486  0.00053547  0.25079881  1
  Na  Na14  1  0.49879462  -0.00082015  0.50014914  1
  Na  Na15  1  0.49745416  -0.00022264  0.74949022  1
  Na  Na16  1  0.49877478  0.33261966  0.00068428  1
  Na  Na17  1  0.50229631  0.33405537  0.25041030  1
  Na  Na18  1  0.50133654  0.33399417  0.49977208  1
  Na  Na19  1  0.49873912  0.33355278  0.74956650  1
  Na  Na20  1  0.49991746  0.66592874  0.00029112  1
  Na  Na21  1  0.50261560  0.66709608  0.25100685  1
  Na  Na22  1  0.50218379  0.66716468  0.50063784  1
  Na  Na23  1  0.50011661  0.66676565  0.74867937  1
  Na  Na24  1  0.25217302  0.00078649  0.12556302  1
  Na  Na25  1  0.24996671  -0.00048733  0.37510668  1
  Na  Na26  1  0.25148546  0.00038676  0.62478180  1
  Na  Na27  1  0.25246680  0.00064101  0.87456634  1
  Na  Na28  1  0.25022586  0.33370913  0.12590803  1
  Na  Na29  1  0.24840060  0.33378143  0.37411742  1
  Na  Na30  1  0.24837193  0.33328530  0.62470748  1
  Na  Na31  1  0.25089421  0.33356662  0.87559601  1
  Na  Na32  1  0.24782175  0.66581944  0.12382681  1
  Na  Na33  1  0.24866250  0.66675544  0.37568987  1
  Na  Na34  1  0.24939147  0.66637066  0.62453258  1
  Na  Na35  1  0.25209453  0.66765717  0.87631899  1
  Na  Na36  1  0.75079797  0.00075690  0.12494279  1
  Na  Na37  1  0.74976466  -0.00030506  0.37441233  1
  Na  Na38  1  0.75091165  -0.00006338  0.62528970  1
  Na  Na39  1  0.75081711  0.00020524  0.87507554  1
  Na  Na40  1  0.74748456  0.33265168  0.12631289  1
  Na  Na41  1  0.74879151  0.33308560  0.37455378  1
  Na  Na42  1  0.74958286  0.33311604  0.62491450  1
  Na  Na43  1  0.75047592  0.33392629  0.87477194  1
  Na  Na44  1  0.75064395  0.66628674  0.12478925  1
  Na  Na45  1  0.75030375  0.66655030  0.37624953  1
  Na  Na46  1  0.75015038  0.66629291  0.62387627  1
  Na  Na47  1  0.75106359  0.66653257  0.87441479  1
  Na  Na48  1  0.00162073  0.16589247  -0.00062756  1
  Na  Na49  1  -0.00193319  0.16799756  0.25066161  1
  Na  Na50  1  0.00120398  0.16618813  0.49964437  1
  Na  Na51  1  0.00055786  0.16681551  0.75072165  1
  Na  Na52  1  -0.00210859  0.50097121  0.00116290  1
  Na  Na53  1  0.00110665  0.49904056  0.25007705  1
  Na  Na54  1  -0.00047640  0.50047876  0.49986937  1
  Na  Na55  1  -0.00006314  0.49959413  0.74894999  1
  Na  Na56  1  -0.00090660  0.83309591  -0.00102682  1
  Na  Na57  1  -0.00123106  0.83345724  0.25181473  1
  Na  Na58  1  -0.00026035  0.83284501  0.49911514  1
  Na  Na59  1  -0.00075526  0.83281511  0.74920056  1
  Na  Na60  1  0.50040058  0.16651396  -0.00003092  1
  Na  Na61  1  0.50093816  0.16737533  0.25028773  1
  Na  Na62  1  0.50073549  0.16638446  0.49999712  1
  Na  Na63  1  0.49663138  0.16768575  0.74975695  1
  Na  Na64  1  0.49874584  0.50070391  0.00091954  1
  Na  Na65  1  0.50362651  0.49900333  0.25032490  1
  Na  Na66  1  0.50119271  0.50056264  0.50066117  1
  Na  Na67  1  0.50001312  0.50008729  0.74842404  1
  Na  Na68  1  0.49911927  0.83319226  -0.00082088  1
  Na  Na69  1  0.49922910  0.83384997  0.25130663  1
  Na  Na70  1  0.50076555  0.83235285  0.50007027  1
  Na  Na71  1  0.49909351  0.83293280  0.74946055  1
  Na  Na72  1  0.25092002  0.16745353  0.12515673  1
  Na  Na73  1  0.25094438  0.16633577  0.37486435  1
  Na  Na74  1  0.24997867  0.16685300  0.62448099  1
  Na  Na75  1  0.25263632  0.16621822  0.87536768  1
  Na  Na76  1  0.24824676  0.50049743  0.12521757  1
  Na  Na77  1  0.24696504  0.50045118  0.37522915  1
  Na  Na78  1  0.24904610  0.50025384  0.62475713  1
  Na  Na79  1  0.25239080  0.49888288  0.87589498  1
  Na  Na80  1  0.25030397  0.83317255  0.12525391  1
  Na  Na81  1  0.24935968  0.83299381  0.37469274  1
  Na  Na82  1  0.25045689  0.83260420  0.62468313  1
  Na  Na83  1  0.25004788  0.83333228  0.87514662  1
  Na  Na84  1  0.74864628  0.16709994  0.12467933  1
  Na  Na85  1  0.74945134  0.16697020  0.37545419  1
  Na  Na86  1  0.74980975  0.16716958  0.62411307  1
  Na  Na87  1  0.75031158  0.16647010  0.87571157  1
  Na  Na88  1  0.74864554  0.49992284  0.12520050  1
  Na  Na89  1  0.74944377  0.50021757  0.37482329  1
  Na  Na90  1  0.75020321  0.50092209  0.62464587  1
  Na  Na91  1  0.75087052  0.49992773  0.87489728  1
  Na  Na92  1  0.75159497  0.83250282  0.12594531  1
  Na  Na93  1  0.75030226  0.83287117  0.37491311  1
  Na  Na94  1  0.75072256  0.83281272  0.62531149  1
  Na  Na95  1  0.75112043  0.83306267  0.87385546  1
  Mn  Mn96  1  0.64233626  0.58299049  0.99706913  1
  Mn  Mn97  1  0.39246611  0.91595859  0.37794667  1
  Mn  Mn98  1  0.10770931  0.08406082  0.37258509  1
  Mn  Mn99  1  0.39265025  0.58322738  0.37701027  1
  Mn  Mn100  1  0.89216050  0.24954655  0.12681657  1
  Mn  Mn101  1  0.85833928  0.41649875  0.75195353  1
  Mn  Mn102  1  0.85774405  0.08327012  0.50303996  1
  Mn  Mn103  1  0.60768981  0.74961891  0.87227739  1
  Mn  Mn104  1  0.10786687  0.41739991  0.87363987  1
  Mn  Mn105  1  0.35768539  0.41714626  0.75211785  1
  Mn  Mn106  1  0.60741544  0.08258940  0.62332202  1
  Mn  Mn107  1  0.35758310  0.41759483  0.25247641  1
  Mn  Mn108  1  0.89220554  0.25070452  0.87769195  1
  Mn  Mn109  1  0.85746486  0.08437442  0.00282386  1
  Mn  Mn110  1  0.89192079  0.91627262  0.87703495  1
  Mn  Mn111  1  0.35872678  0.08334119  0.25229690  1
  Mn  Mn112  1  0.39219651  0.58394362  0.62660675  1
  Mn  Mn113  1  0.14181450  0.25007776  0.24750614  1
  Mn  Mn114  1  0.64243617  0.91640254  0.74711031  1
  Mn  Mn115  1  0.60805418  0.08336782  0.37314481  1
  Mn  Mn116  1  0.89165234  0.91673101  0.37828719  1
  Mn  Mn117  1  0.85829185  0.74961634  0.00262772  1
  Mn  Mn118  1  0.14256291  0.91644538  0.74697102  1
  Mn  Mn119  1  0.64265220  0.91657888  0.24694196  1
  Mn  Mn120  1  0.64206760  0.91683644  0.99805965  1
  Mn  Mn121  1  0.39299811  0.25103296  0.37756064  1
  Mn  Mn122  1  0.10740990  0.08288258  0.12272027  1
  Mn  Mn123  1  0.14230316  0.91799068  0.99871730  1
  Mn  Mn124  1  0.39253143  0.58340993  0.12865663  1
  Mn  Mn125  1  0.39170064  0.91636655  0.87744268  1
  Mn  Mn126  1  0.14289149  0.24989434  0.74805874  1
  Mn  Mn127  1  0.60706387  0.41695199  0.87304322  1
  Mn  Mn128  1  0.35799641  0.75002857  0.00311662  1
  Mn  Mn129  1  0.14208166  0.58378681  0.74831583  1
  Mn  Mn130  1  0.10714770  0.74928241  0.37305101  1
  Mn  Mn131  1  0.64170644  0.24998349  0.74813182  1
  Mn  Mn132  1  0.60682494  0.08336993  0.87200063  1
  Mn  Mn133  1  0.10867804  0.08300631  0.87301707  1
  Mn  Mn134  1  0.60830573  0.41688716  0.62223842  1
  Mn  Mn135  1  0.10757587  0.74941416  0.87225508  1
  Mn  Mn136  1  0.85724145  0.41614364  0.25233843  1
  Mn  Mn137  1  0.89297267  0.24946196  0.62702783  1
  Mn  Mn138  1  0.35748211  0.74902334  0.25211715  1
  Mn  Mn139  1  0.14180714  0.91635780  0.24685606  1
  Mn  Mn140  1  0.89255080  0.58351695  0.12788746  1
  Mn  Mn141  1  0.39157661  0.24974250  0.62605359  1
  Mn  Mn142  1  0.60837039  0.75074382  0.12273945  1
  Mn  Mn143  1  0.14213515  0.58278651  0.99710198  1
  Fe  Fe144  1  0.89229693  0.58209184  0.37682047  1
  Fe  Fe145  1  0.39291795  0.91692675  0.12685335  1
  Fe  Fe146  1  0.85665868  0.08365895  0.25120904  1
  Fe  Fe147  1  0.60720929  0.08346963  0.12317231  1
  Fe  Fe148  1  0.85681514  0.41599435  0.00204337  1
  Fe  Fe149  1  0.85834558  0.08330656  0.75104667  1
  Fe  Fe150  1  0.60723129  0.41619629  0.12243181  1
  Fe  Fe151  1  0.60826835  0.41742024  0.37389682  1
  Fe  Fe152  1  0.60809861  0.74969405  0.37356175  1
  Fe  Fe153  1  0.64292842  0.25018724  0.49815504  1
  Fe  Fe154  1  0.10723556  0.41662069  0.12255087  1
  Fe  Fe155  1  0.39392056  0.24993841  0.12698232  1
  Fe  Fe156  1  0.14183556  0.58350807  0.49849487  1
  Fe  Fe157  1  0.85729446  0.41677684  0.50111029  1
  Fe  Fe158  1  0.64374664  0.58326815  0.49797664  1
  Fe  Fe159  1  0.14417286  0.24973212  0.99897931  1
  Fe  Fe160  1  0.14301438  0.91661086  0.49940422  1
  Fe  Fe161  1  0.10658073  0.41661329  0.37397577  1
  Fe  Fe162  1  0.89191322  0.58289080  0.87638610  1
  Fe  Fe163  1  0.85724074  0.75011699  0.75072301  1
  Fe  Fe164  1  0.85656724  0.74984118  0.50229475  1
  Fe  Fe165  1  0.35726741  0.74952862  0.50184649  1
  Fe  Fe166  1  0.35683440  0.08339477  0.50175818  1
  Fe  Fe167  1  0.39293014  0.58283765  0.87622844  1
  Fe  Fe168  1  0.35798679  0.08403791  0.00277661  1
  Fe  Fe169  1  0.89218560  0.91661228  0.12669026  1
  Fe  Fe170  1  0.85750768  0.74979083  0.25204917  1
  Fe  Fe171  1  0.89198988  0.25093031  0.37697499  1
  Fe  Fe172  1  0.10630903  0.75034883  0.12393874  1
  Fe  Fe173  1  0.35742289  0.74972304  0.75117183  1
  Fe  Fe174  1  0.10813258  0.08279489  0.62328425  1
  Fe  Fe175  1  0.10742921  0.41700590  0.62234627  1
  Fe  Fe176  1  0.89306746  0.91667348  0.62575730  1
  Fe  Fe177  1  0.64256618  0.91647983  0.49932266  1
  Fe  Fe178  1  0.14134611  0.58374968  0.24846887  1
  Fe  Fe179  1  0.35702957  0.08309689  0.75137105  1
  Fe  Fe180  1  0.39202876  0.25120899  0.87776216  1
  Fe  Fe181  1  0.60765343  0.75057201  0.62313300  1
  Fe  Fe182  1  0.35759060  0.41622123  0.00291601  1
  Fe  Fe183  1  0.14253890  0.24992244  0.49814221  1
  Fe  Fe184  1  0.64196624  0.25022822  0.99795391  1
  Fe  Fe185  1  0.64373654  0.58318621  0.24870534  1
  Fe  Fe186  1  0.10695434  0.75002343  0.62290751  1
  Fe  Fe187  1  0.39214898  0.91592073  0.62569552  1
  Fe  Fe188  1  0.35651093  0.41699290  0.50094834  1
  Fe  Fe189  1  0.64290205  0.24988135  0.24807521  1
  Fe  Fe190  1  0.89279400  0.58351596  0.62619958  1
  Fe  Fe191  1  0.64308831  0.58352641  0.74829419  1
  P  P192  1  0.05404818  0.25038493  0.10907506  1
  P  P193  1  0.05315053  0.25105129  0.36134517  1
  P  P194  1  0.05458923  0.24959765  0.60964474  1
  P  P195  1  0.05500202  0.25019898  0.86131756  1
  P  P196  1  0.05459004  0.58367269  0.11146632  1
  P  P197  1  0.05353661  0.58235750  0.36113459  1
  P  P198  1  0.05285083  0.58385116  0.60951016  1
  P  P199  1  0.05130678  0.58304990  0.85956633  1
  P  P200  1  0.05115663  0.91575746  0.11022950  1
  P  P201  1  0.05475629  0.91654833  0.36156919  1
  P  P202  1  0.05277360  0.91634274  0.60930446  1
  P  P203  1  0.05358345  0.91653050  0.85956495  1
  P  P204  1  0.55464190  0.24996187  0.11085881  1
  P  P205  1  0.55593638  0.25112026  0.36071755  1
  P  P206  1  0.55379403  0.24976832  0.60922827  1
  P  P207  1  0.55207367  0.25046259  0.86086224  1
  P  P208  1  0.55529715  0.58273130  0.11149101  1
  P  P209  1  0.55617885  0.58352309  0.36127519  1
  P  P210  1  0.55589070  0.58453997  0.61040929  1
  P  P211  1  0.55257831  0.58294270  0.85883347  1
  P  P212  1  0.55194753  0.91753272  0.10987393  1
  P  P213  1  0.55530986  0.91566569  0.36161827  1
  P  P214  1  0.55245006  0.91586517  0.60961370  1
  P  P215  1  0.55291979  0.91664098  0.85927211  1
  P  P216  1  0.44713235  0.08382050  0.13903107  1
  P  P217  1  0.44619666  0.08360730  0.39101517  1
  P  P218  1  0.44418467  0.08237110  0.63887152  1
  P  P219  1  0.44398192  0.08451147  0.88933320  1
  P  P220  1  0.44701627  0.41580068  0.13962087  1
  P  P221  1  0.44797292  0.41745244  0.39061784  1
  P  P222  1  0.44530369  0.41684659  0.63811228  1
  P  P223  1  0.44564069  0.41726885  0.89072899  1
  P  P224  1  0.44731085  0.75060953  0.14077627  1
  P  P225  1  0.44757531  0.74907495  0.39095629  1
  P  P226  1  0.44587359  0.75057183  0.63880352  1
  P  P227  1  0.44539184  0.74855191  0.88867216  1
  P  P228  1  0.94600402  0.08284106  0.14100343  1
  P  P229  1  0.94474492  0.08471204  0.38898013  1
  P  P230  1  0.94817757  0.08242320  0.64002965  1
  P  P231  1  0.94564204  0.08344671  0.88912397  1
  P  P232  1  0.94670829  0.41616300  0.13912505  1
  P  P233  1  0.94661069  0.41660349  0.39033181  1
  P  P234  1  0.94681215  0.41721999  0.63799621  1
  P  P235  1  0.94580548  0.41760449  0.89084709  1
  P  P236  1  0.94694362  0.75060785  0.14120375  1
  P  P237  1  0.94391367  0.74863500  0.38981346  1
  P  P238  1  0.94554594  0.75010803  0.63814425  1
  P  P239  1  0.94503511  0.74871643  0.88835282  1
  P  P240  1  0.19703565  0.08346167  0.23470194  1
  P  P241  1  0.19630349  0.08301890  0.48627103  1
  P  P242  1  0.19774276  0.08325467  0.73437463  1
  P  P243  1  0.19860838  0.08430944  0.98550677  1
  P  P244  1  0.19404556  0.41768950  0.23570080  1
  P  P245  1  0.19516463  0.41686118  0.48554986  1
  P  P246  1  0.19591642  0.41717146  0.73449178  1
  P  P247  1  0.19703400  0.41552336  0.98653012  1
  P  P248  1  0.19549489  0.74893518  0.23435860  1
  P  P249  1  0.19600416  0.75019010  0.48652184  1
  P  P250  1  0.19725100  0.74965450  0.73421127  1
  P  P251  1  0.19515028  0.75067690  0.98625278  1
  P  P252  1  0.69681906  0.08409330  0.23454505  1
  P  P253  1  0.69657487  0.08279612  0.48549106  1
  P  P254  1  0.69822893  0.08343990  0.73498085  1
  P  P255  1  0.69470201  0.08413813  0.98592851  1
  P  P256  1  0.69456307  0.41681960  0.23600120  1
  P  P257  1  0.69751197  0.41700588  0.48473640  1
  P  P258  1  0.69673624  0.41759305  0.73503241  1
  P  P259  1  0.69625484  0.41562148  0.98591319  1
  P  P260  1  0.69727823  0.74885933  0.23652945  1
  P  P261  1  0.69597262  0.75024498  0.48627891  1
  P  P262  1  0.69722202  0.74901779  0.73414630  1
  P  P263  1  0.69714721  0.75010293  0.98447937  1
  P  P264  1  0.30499787  0.25040945  0.01512765  1
  P  P265  1  0.30486533  0.25056487  0.26418622  1
  P  P266  1  0.30188884  0.25086832  0.51400902  1
  P  P267  1  0.30428079  0.24963906  0.76539657  1
  P  P268  1  0.30498316  0.58219711  0.01438930  1
  P  P269  1  0.30117222  0.58330460  0.26555033  1
  P  P270  1  0.30195306  0.58299677  0.51428221  1
  P  P271  1  0.30379061  0.58443998  0.76551419  1
  P  P272  1  0.30425721  0.91758454  0.01600091  1
  P  P273  1  0.30464321  0.91629951  0.26434964  1
  P  P274  1  0.30291296  0.91617355  0.51504294  1
  P  P275  1  0.30477343  0.91589945  0.76314666  1
  P  P276  1  0.80162634  0.25130985  0.01538262  1
  P  P277  1  0.80263056  0.24926930  0.26528969  1
  P  P278  1  0.80347232  0.25134599  0.51367809  1
  P  P279  1  0.80360452  0.24916067  0.76488427  1
  P  P280  1  0.80460229  0.58196443  0.01413453  1
  P  P281  1  0.80326851  0.58344141  0.26566883  1
  P  P282  1  0.80454113  0.58285485  0.51377920  1
  P  P283  1  0.80432189  0.58416972  0.76360124  1
  P  P284  1  0.80380321  0.91665906  0.01589021  1
  P  P285  1  0.80485372  0.91681486  0.26382506  1
  P  P286  1  0.80252975  0.91577215  0.51564302  1
  P  P287  1  0.80520700  0.91662713  0.76298875  1
  O  O288  1  0.05648015  0.24984147  0.18592713  1
  O  O289  1  0.05853824  0.24993454  0.43795189  1
  O  O290  1  0.05728937  0.24964424  0.68645521  1
  O  O291  1  0.05994626  0.24977537  0.93797720  1
  O  O292  1  0.05771410  0.58332298  0.18827035  1
  O  O293  1  0.05840418  0.58357377  0.43780875  1
  O  O294  1  0.05630039  0.58384919  0.68616217  1
  O  O295  1  0.05552724  0.58321289  0.93628711  1
  O  O296  1  0.05473385  0.91663735  0.18697645  1
  O  O297  1  0.05978267  0.91661851  0.43824115  1
  O  O298  1  0.05611935  0.91618762  0.68603097  1
  O  O299  1  0.05693997  0.91686435  0.93633265  1
  O  O300  1  0.55908559  0.24989104  0.18758843  1
  O  O301  1  0.56007619  0.25019968  0.43749957  1
  O  O302  1  0.55633906  0.25000336  0.68607741  1
  O  O303  1  0.55729264  0.25031066  0.93749861  1
  O  O304  1  0.55988024  0.58344089  0.18821360  1
  O  O305  1  0.56011555  0.58335779  0.43808158  1
  O  O306  1  0.55985309  0.58360852  0.68712787  1
  O  O307  1  0.55638917  0.58302943  0.93561082  1
  O  O308  1  0.55598706  0.91692728  0.18664708  1
  O  O309  1  0.55949201  0.91621463  0.43832554  1
  O  O310  1  0.55610238  0.91658223  0.68631541  1
  O  O311  1  0.55639870  0.91671485  0.93600473  1
  O  O312  1  0.44264987  0.08388243  0.06233303  1
  O  O313  1  0.44363089  0.08371288  0.31417735  1
  O  O314  1  0.44005678  0.08340362  0.56208217  1
  O  O315  1  0.43994892  0.08373174  0.81250970  1
  O  O316  1  0.44190727  0.41648362  0.06300142  1
  O  O317  1  0.44387768  0.41744298  0.31391029  1
  O  O318  1  0.44046647  0.41700698  0.56142477  1
  O  O319  1  0.44322215  0.41708272  0.81387414  1
  O  O320  1  0.44403299  0.74960305  0.06397583  1
  O  O321  1  0.44328938  0.74901359  0.31429980  1
  O  O322  1  0.44082090  0.74952170  0.56212211  1
  O  O323  1  0.44159135  0.74931246  0.81191501  1
  O  O324  1  0.94326717  0.08381910  0.06414990  1
  O  O325  1  0.94018246  0.08423805  0.31231418  1
  O  O326  1  0.94421106  0.08327123  0.56328443  1
  O  O327  1  0.94142140  0.08376215  0.81236437  1
  O  O328  1  0.94135510  0.41597886  0.06257037  1
  O  O329  1  0.94322820  0.41644235  0.31359875  1
  O  O330  1  0.94170913  0.41661686  0.56141770  1
  O  O331  1  0.94327222  0.41640240  0.81396600  1
  O  O332  1  0.94378652  0.74977430  0.06440739  1
  O  O333  1  0.93999245  0.74939962  0.31303835  1
  O  O334  1  0.94083317  0.75018270  0.56143314  1
  O  O335  1  0.94103814  0.74939334  0.81158681  1
  O  O336  1  0.19424791  0.08348195  0.06213891  1
  O  O337  1  0.19346855  0.08339799  0.31149743  1
  O  O338  1  0.19180765  0.08299109  0.56296883  1
  O  O339  1  0.19421895  0.08303842  0.81108659  1
  O  O340  1  0.19187947  0.41652298  0.06316902  1
  O  O341  1  0.18971748  0.41674330  0.31248428  1
  O  O342  1  0.19087699  0.41703858  0.56230296  1
  O  O343  1  0.19314427  0.41729558  0.81130399  1
  O  O344  1  0.19020668  0.75066533  0.06292301  1
  O  O345  1  0.19257055  0.74968310  0.31119237  1
  O  O346  1  0.19112129  0.75000227  0.56317531  1
  O  O347  1  0.19356219  0.74966156  0.81096027  1
  O  O348  1  0.69036592  0.08329546  0.06268701  1
  O  O349  1  0.69336289  0.08319279  0.31124945  1
  O  O350  1  0.69361248  0.08284319  0.56222117  1
  O  O351  1  0.69400521  0.08333644  0.81168248  1
  O  O352  1  0.69152674  0.41618007  0.06261258  1
  O  O353  1  0.69132481  0.41696038  0.31277958  1
  O  O354  1  0.69440253  0.41703613  0.56143476  1
  O  O355  1  0.69348858  0.41729212  0.81178816  1
  O  O356  1  0.69389630  0.75005478  0.06131402  1
  O  O357  1  0.69271996  0.74969901  0.31317476  1
  O  O358  1  0.69162579  0.75053377  0.56295352  1
  O  O359  1  0.69362622  0.74960927  0.81085797  1
  O  O360  1  0.30980814  0.25065614  0.18748889  1
  O  O361  1  0.30557710  0.25104885  0.43734075  1
  O  O362  1  0.30661280  0.25058196  0.68858507  1
  O  O363  1  0.30878712  0.25074046  0.93836479  1
  O  O364  1  0.30564542  0.58311819  0.18887339  1
  O  O365  1  0.30575458  0.58312768  0.43767772  1
  O  O366  1  0.30646993  0.58363618  0.68869148  1
  O  O367  1  0.30935800  0.58280322  0.93770804  1
  O  O368  1  0.30960979  0.91664690  0.18763894  1
  O  O369  1  0.30605200  0.91583766  0.43830227  1
  O  O370  1  0.30839982  0.91576702  0.68641994  1
  O  O371  1  0.30685761  0.91644888  0.93914110  1
  O  O372  1  0.80638782  0.25014011  0.18863621  1
  O  O373  1  0.80810006  0.25087517  0.43701857  1
  O  O374  1  0.80694485  0.24974730  0.68807537  1
  O  O375  1  0.80578597  0.25084472  0.93872454  1
  O  O376  1  0.80677199  0.58280888  0.18891663  1
  O  O377  1  0.80878077  0.58249847  0.43711314  1
  O  O378  1  0.80907413  0.58340120  0.68686107  1
  O  O379  1  0.80830790  0.58273164  0.93736151  1
  O  O380  1  0.80877357  0.91654829  0.18709920  1
  O  O381  1  0.80583074  0.91646292  0.43887490  1
  O  O382  1  0.80938154  0.91674875  0.68627067  1
  O  O383  1  0.80672706  0.91651404  0.93905024  1
  O  O384  1  0.23481057  0.25046881  0.03947658  1
  O  O385  1  0.23467614  0.25026954  0.28773258  1
  O  O386  1  0.23188903  0.25043250  0.53882705  1
  O  O387  1  0.23470254  0.25005587  0.79095868  1
  O  O388  1  0.23481626  0.58262636  0.03813023  1
  O  O389  1  0.23107613  0.58348207  0.28965421  1
  O  O390  1  0.23181182  0.58317404  0.53883343  1
  O  O391  1  0.23426955  0.58358742  0.79122107  1
  O  O392  1  0.23460418  0.91734630  0.04129336  1
  O  O393  1  0.23450714  0.91611382  0.28799906  1
  O  O394  1  0.23288755  0.91644924  0.53999807  1
  O  O395  1  0.23499386  0.91639438  0.78822202  1
  O  O396  1  0.73164657  0.25040720  0.03988146  1
  O  O397  1  0.73237684  0.24999500  0.28933223  1
  O  O398  1  0.73312072  0.25062518  0.53747178  1
  O  O399  1  0.73395767  0.24983682  0.79015196  1
  O  O400  1  0.73474100  0.58268818  0.03874156  1
  O  O401  1  0.73322068  0.58305593  0.29014454  1
  O  O402  1  0.73404729  0.58345429  0.53733385  1
  O  O403  1  0.73395977  0.58367498  0.78743467  1
  O  O404  1  0.73415753  0.91660869  0.04108190  1
  O  O405  1  0.73486349  0.91665204  0.28823806  1
  O  O406  1  0.73250493  0.91617254  0.54027990  1
  O  O407  1  0.73526849  0.91639178  0.78761301  1
  O  O408  1  0.26683434  0.08390750  0.21015774  1
  O  O409  1  0.26665181  0.08302706  0.46222978  1
  O  O410  1  0.26786518  0.08344626  0.71008394  1
  O  O411  1  0.26873764  0.08392798  0.96134233  1
  O  O412  1  0.26422585  0.41715552  0.21185809  1
  O  O413  1  0.26544554  0.41708343  0.46134387  1
  O  O414  1  0.26566662  0.41699753  0.70952662  1
  O  O415  1  0.26737542  0.41571110  0.96305394  1
  O  O416  1  0.26518321  0.74921863  0.20923326  1
  O  O417  1  0.26639985  0.74985697  0.46267331  1
  O  O418  1  0.26732307  0.74955100  0.70982640  1
  O  O419  1  0.26537765  0.75050872  0.96279919  1
  O  O420  1  0.76691073  0.08386952  0.21005539  1
  O  O421  1  0.76620725  0.08308606  0.46009495  1
  O  O422  1  0.76825893  0.08333247  0.71041740  1
  O  O423  1  0.76479956  0.08377770  0.96201137  1
  O  O424  1  0.76458572  0.41645943  0.21145161  1
  O  O425  1  0.76747793  0.41710664  0.45971607  1
  O  O426  1  0.76641955  0.41717967  0.70985054  1
  O  O427  1  0.76637489  0.41619506  0.96177667  1
  O  O428  1  0.76758304  0.74924070  0.21254318  1
  O  O429  1  0.76646178  0.74958124  0.46262925  1
  O  O430  1  0.76734751  0.74956661  0.70973697  1
  O  O431  1  0.76681755  0.74993507  0.95957797  1
  O  O432  1  0.01558208  0.08355188  0.16653001  1
  O  O433  1  0.01487303  0.08385905  0.41282424  1
  O  O434  1  0.01836866  0.08308502  0.66431642  1
  O  O435  1  0.01563740  0.08277610  0.91334678  1
  O  O436  1  0.01710552  0.41638962  0.16247392  1
  O  O437  1  0.01668213  0.41689712  0.41493115  1
  O  O438  1  0.01724488  0.41697709  0.66158102  1
  O  O439  1  0.01542716  0.41739489  0.91617276  1
  O  O440  1  0.01678242  0.74969183  0.16633046  1
  O  O441  1  0.01410382  0.74941944  0.41356640  1
  O  O442  1  0.01601528  0.74966000  0.66179498  1
  O  O443  1  0.01485115  0.74973393  0.91305630  1
  O  O444  1  0.51733935  0.08424916  0.16339874  1
  O  O445  1  0.51594271  0.08303879  0.41588321  1
  O  O446  1  0.51416290  0.08332523  0.66334787  1
  O  O447  1  0.51405434  0.08337162  0.91334922  1
  O  O448  1  0.51746081  0.41608306  0.16295473  1
  O  O449  1  0.51824961  0.41748437  0.41448944  1
  O  O450  1  0.51540685  0.41684934  0.66194873  1
  O  O451  1  0.51518644  0.41691191  0.91643945  1
  O  O452  1  0.51698715  0.75050805  0.16592242  1
  O  O453  1  0.51784996  0.74939111  0.41475277  1
  O  O454  1  0.51637413  0.75015527  0.66209441  1
  O  O455  1  0.51525411  0.74918338  0.91346028  1
  O  O456  1  0.48426386  0.24983297  0.08707232  1
  O  O457  1  0.48586237  0.25061555  0.33664469  1
  O  O458  1  0.48410605  0.24997460  0.58402385  1
  O  O459  1  0.48171642  0.25095783  0.83739924  1
  O  O460  1  0.48520460  0.58307060  0.08763352  1
  O  O461  1  0.48620658  0.58316453  0.33670687  1
  O  O462  1  0.48571654  0.58409162  0.58639285  1
  O  O463  1  0.48258165  0.58304275  0.83432386  1
  O  O464  1  0.48200325  0.91693301  0.08512594  1
  O  O465  1  0.48523844  0.91654401  0.33757962  1
  O  O466  1  0.48239127  0.91578741  0.58505813  1
  O  O467  1  0.48310266  0.91656455  0.83469495  1
  O  O468  1  0.98438977  0.24967725  0.08376751  1
  O  O469  1  0.98278039  0.25136182  0.33777283  1
  O  O470  1  0.98481654  0.24963922  0.58447273  1
  O  O471  1  0.98493797  0.25068928  0.83735295  1
  O  O472  1  0.98471330  0.58392534  0.08670213  1
  O  O473  1  0.98309435  0.58250922  0.33763652  1
  O  O474  1  0.98262660  0.58399916  0.58509140  1
  O  O475  1  0.98144978  0.58252368  0.83480926  1
  O  O476  1  0.98129762  0.91635916  0.08517249  1
  O  O477  1  0.98437642  0.91638064  0.33858448  1
  O  O478  1  0.98272124  0.91639815  0.58434902  1
  O  O479  1  0.98385373  0.91640609  0.83475760  1
  O  O480  1  0.08819758  0.31562125  0.07708172  1
  O  O481  1  0.08652596  0.31624372  0.32850759  1
  O  O482  1  0.08873361  0.31471966  0.57726417  1
  O  O483  1  0.08849107  0.31529066  0.82829498  1
  O  O484  1  0.08830682  0.64885020  0.07890205  1
  O  O485  1  0.08692656  0.64720060  0.32737408  1
  O  O486  1  0.08671787  0.64881366  0.57653974  1
  O  O487  1  0.08489064  0.64812523  0.82660825  1
  O  O488  1  0.08537697  0.98070894  0.07738027  1
  O  O489  1  0.08776663  0.98150035  0.32791557  1
  O  O490  1  0.08699485  0.98139005  0.57690387  1
  O  O491  1  0.08764307  0.98155633  0.82700970  1
  O  O492  1  0.58785951  0.31516112  0.07748826  1
  O  O493  1  0.58927201  0.31644561  0.32813444  1
  O  O494  1  0.58838637  0.31457223  0.57680386  1
  O  O495  1  0.58555749  0.31541272  0.82760030  1
  O  O496  1  0.58885812  0.64758277  0.07798136  1
  O  O497  1  0.58976784  0.64884525  0.32854054  1
  O  O498  1  0.58932271  0.64979759  0.57770365  1
  O  O499  1  0.58686054  0.64775110  0.82605284  1
  O  O500  1  0.58539918  0.98280797  0.07736811  1
  O  O501  1  0.58911592  0.98045874  0.32827212  1
  O  O502  1  0.58638310  0.98082766  0.57669623  1
  O  O503  1  0.58669438  0.98167743  0.82649169  1
  O  O504  1  0.41397240  0.01858818  0.17217355  1
  O  O505  1  0.41149041  0.01882902  0.42320477  1
  O  O506  1  0.41110148  0.01678107  0.67130344  1
  O  O507  1  0.40975303  0.01985078  0.92253791  1
  O  O508  1  0.41406288  0.35056722  0.17277973  1
  O  O509  1  0.41409273  0.35249568  0.42349091  1
  O  O510  1  0.41195460  0.35180581  0.67128133  1
  O  O511  1  0.41104752  0.35238641  0.92314915  1
  O  O512  1  0.41337294  0.68552636  0.17363584  1
  O  O513  1  0.41399173  0.68402723  0.42401410  1
  O  O514  1  0.41235256  0.68577345  0.67250639  1
  O  O515  1  0.41206951  0.68324251  0.92144304  1
  O  O516  1  0.91192315  0.01757459  0.17290604  1
  O  O517  1  0.91115102  0.01972368  0.42233512  1
  O  O518  1  0.91451944  0.01709336  0.67224908  1
  O  O519  1  0.91157656  0.01859220  0.92184230  1
  O  O520  1  0.91364352  0.35112441  0.17274527  1
  O  O521  1  0.91266384  0.35175129  0.42331113  1
  O  O522  1  0.91374261  0.35229508  0.67182211  1
  O  O523  1  0.91129174  0.35286713  0.92373231  1
  O  O524  1  0.91231386  0.68585737  0.17392590  1
  O  O525  1  0.91080986  0.68328146  0.42253272  1
  O  O526  1  0.91186714  0.68511947  0.67124609  1
  O  O527  1  0.91198807  0.68323753  0.92118006  1
  O  O528  1  0.16335516  0.01828960  0.20205248  1
  O  O529  1  0.16304855  0.01783195  0.45326947  1
  O  O530  1  0.16394588  0.01834541  0.70128610  1
  O  O531  1  0.16481053  0.01940283  0.95229082  1
  O  O532  1  0.16029270  0.35290981  0.20216652  1
  O  O533  1  0.16172209  0.35173806  0.45239535  1
  O  O534  1  0.16159051  0.35225462  0.70209715  1
  O  O535  1  0.16391173  0.35029957  0.95355523  1
  O  O536  1  0.16128811  0.68375774  0.20245185  1
  O  O537  1  0.16242901  0.68520286  0.45324628  1
  O  O538  1  0.16310456  0.68474018  0.70156829  1
  O  O539  1  0.16194067  0.68546905  0.95284295  1
  O  O540  1  0.66274348  0.01931398  0.20138072  1
  O  O541  1  0.66278203  0.01748055  0.45323779  1
  O  O542  1  0.66424932  0.01845703  0.70219018  1
  O  O543  1  0.66123906  0.01920988  0.95250531  1
  O  O544  1  0.66061619  0.35174855  0.20329992  1
  O  O545  1  0.66323305  0.35214358  0.45220827  1
  O  O546  1  0.66246986  0.35256896  0.70267467  1
  O  O547  1  0.66287136  0.35041791  0.95291866  1
  O  O548  1  0.66418334  0.68360873  0.20357750  1
  O  O549  1  0.66249726  0.68519435  0.45306364  1
  O  O550  1  0.66350447  0.68395071  0.70154224  1
  O  O551  1  0.66310987  0.68499414  0.95203448  1
  O  O552  1  0.33883489  0.31520027  0.04846907  1
  O  O553  1  0.33789589  0.31574539  0.29759928  1
  O  O554  1  0.33543010  0.31603800  0.54680795  1
  O  O555  1  0.33876276  0.31449172  0.79804956  1
  O  O556  1  0.33845367  0.64717694  0.04785559  1
  O  O557  1  0.33509326  0.64823253  0.29833534  1
  O  O558  1  0.33589340  0.64795974  0.54718405  1
  O  O559  1  0.33776005  0.64982957  0.79735503  1
  O  O560  1  0.33850891  0.98288954  0.04778477  1
  O  O561  1  0.33801888  0.98134203  0.29762849  1
  O  O562  1  0.33717209  0.98116081  0.54733422  1
  O  O563  1  0.33869372  0.98103108  0.79571872  1
  O  O564  1  0.83511358  0.31639826  0.04833695  1
  O  O565  1  0.83667697  0.31412583  0.29846200  1
  O  O566  1  0.83645402  0.31655599  0.54684437  1
  O  O567  1  0.83787445  0.31429739  0.79718020  1
  O  O568  1  0.83861992  0.64682419  0.04723525  1
  O  O569  1  0.83722930  0.64830027  0.29829669  1
  O  O570  1  0.83806266  0.64782728  0.54708008  1
  O  O571  1  0.83749118  0.64947140  0.79645882  1
  O  O572  1  0.83812319  0.98168297  0.04812404  1
  O  O573  1  0.83813228  0.98218633  0.29665483  1
  O  O574  1  0.83696777  0.98051826  0.54838631  1
  O  O575  1  0.83865197  0.98172031  0.79605818  1
  O  O576  1  0.41362145  0.14889234  0.17215864  1
  O  O577  1  0.41220119  0.14875216  0.42335298  1
  O  O578  1  0.40990845  0.14703362  0.67201002  1
  O  O579  1  0.41111038  0.14993413  0.92240895  1
  O  O580  1  0.41383982  0.48075363  0.17347346  1
  O  O581  1  0.41407466  0.48232562  0.42353875  1
  O  O582  1  0.41200809  0.48193675  0.67137282  1
  O  O583  1  0.41157324  0.48252432  0.92284726  1
  O  O584  1  0.41324276  0.81584298  0.17263500  1
  O  O585  1  0.41352320  0.81392387  0.42388008  1
  O  O586  1  0.41266938  0.81571658  0.67188103  1
  O  O587  1  0.41138974  0.81343999  0.92175972  1
  O  O588  1  0.91116988  0.14765559  0.17336059  1
  O  O589  1  0.91186953  0.15005797  0.42210340  1
  O  O590  1  0.91395344  0.14717763  0.67305093  1
  O  O591  1  0.91246586  0.14860568  0.92251761  1
  O  O592  1  0.91346115  0.48112090  0.17271498  1
  O  O593  1  0.91255142  0.48163373  0.42293662  1
  O  O594  1  0.91368023  0.48248646  0.67103786  1
  O  O595  1  0.91148680  0.48282488  0.92250669  1
  O  O596  1  0.91310464  0.81585128  0.17337802  1
  O  O597  1  0.90992155  0.81337138  0.42319299  1
  O  O598  1  0.91252343  0.81524836  0.67154220  1
  O  O599  1  0.91093558  0.81345429  0.92150709  1
  O  O600  1  0.08887725  0.18561425  0.07673007  1
  O  O601  1  0.08622957  0.18617975  0.32737676  1
  O  O602  1  0.08872907  0.18451802  0.57721358  1
  O  O603  1  0.08820575  0.18508005  0.82790281  1
  O  O604  1  0.08813821  0.51851217  0.07837278  1
  O  O605  1  0.08680318  0.51719775  0.32826649  1
  O  O606  1  0.08667955  0.51882120  0.57666634  1
  O  O607  1  0.08555122  0.51813760  0.82715051  1
  O  O608  1  0.08477838  0.85043156  0.07804828  1
  O  O609  1  0.08773680  0.85134143  0.32832623  1
  O  O610  1  0.08673356  0.85125556  0.57664888  1
  O  O611  1  0.08749508  0.85148307  0.82696163  1
  O  O612  1  0.58805118  0.18509953  0.07737706  1
  O  O613  1  0.58970428  0.18626513  0.32725508  1
  O  O614  1  0.58806461  0.18468076  0.57715766  1
  O  O615  1  0.58498475  0.18534193  0.82720024  1
  O  O616  1  0.58839483  0.51731493  0.07846333  1
  O  O617  1  0.59018760  0.51864909  0.32833564  1
  O  O618  1  0.58980520  0.51983554  0.57687399  1
  O  O619  1  0.58648383  0.51786411  0.82623806  1
  O  O620  1  0.58604792  0.85257559  0.07716292  1
  O  O621  1  0.58834129  0.85021051  0.32868306  1
  O  O622  1  0.58674550  0.85092491  0.57718659  1
  O  O623  1  0.58687142  0.85155417  0.82677343  1
  O  O624  1  0.33859481  0.18517503  0.04796262  1
  O  O625  1  0.33848174  0.18564630  0.29731780  1
  O  O626  1  0.33593207  0.18584597  0.54654521  1
  O  O627  1  0.33834422  0.18437163  0.79720366  1
  O  O628  1  0.33815003  0.51696028  0.04761945  1
  O  O629  1  0.33488407  0.51833008  0.29853838  1
  O  O630  1  0.33564214  0.51790316  0.54704483  1
  O  O631  1  0.33871276  0.51973524  0.79788979  1
  O  O632  1  0.33879070  0.85284062  0.04866585  1
  O  O633  1  0.33801475  0.85116414  0.29752117  1
  O  O634  1  0.33690086  0.85115375  0.54774911  1
  O  O635  1  0.33813518  0.85058655  0.79606687  1
  O  O636  1  0.83578086  0.18635349  0.04808311  1
  O  O637  1  0.83612743  0.18411266  0.29793689  1
  O  O638  1  0.83703258  0.18645766  0.54713728  1
  O  O639  1  0.83748836  0.18399408  0.79712157  1
  O  O640  1  0.83792952  0.51665734  0.04694799  1
  O  O641  1  0.83727021  0.51837734  0.29845096  1
  O  O642  1  0.83763134  0.51778357  0.54730440  1
  O  O643  1  0.83796446  0.51939255  0.79721495  1
  O  O644  1  0.83822996  0.85175472  0.04832324  1
  O  O645  1  0.83845379  0.85184489  0.29701500  1
  O  O646  1  0.83657338  0.85069227  0.54791828  1
  O  O647  1  0.83864839  0.85116113  0.79559188  1
  O  O648  1  0.16288073  0.14839179  0.20232605  1
  O  O649  1  0.16305553  0.14820724  0.45297992  1
  O  O650  1  0.16371959  0.14816252  0.70174470  1
  O  O651  1  0.16523043  0.14963794  0.95285859  1
  O  O652  1  0.16073032  0.48301822  0.20300072  1
  O  O653  1  0.16133590  0.48185399  0.45260713  1
  O  O654  1  0.16173078  0.48215639  0.70196484  1
  O  O655  1  0.16375808  0.48042529  0.95262234  1
  O  O656  1  0.16108719  0.81380724  0.20166643  1
  O  O657  1  0.16295293  0.81537003  0.45328217  1
  O  O658  1  0.16323199  0.81453847  0.70132172  1
  O  O659  1  0.16205762  0.81580259  0.95296494  1
  O  O660  1  0.66293922  0.14932123  0.20231885  1
  O  O661  1  0.66239750  0.14790297  0.45319071  1
  O  O662  1  0.66426653  0.14842295  0.70241379  1
  O  O663  1  0.66139842  0.14958938  0.95324236  1
  O  O664  1  0.66109311  0.48195753  0.20304646  1
  O  O665  1  0.66345669  0.48210487  0.45221761  1
  O  O666  1  0.66291531  0.48275166  0.70260707  1
  O  O667  1  0.66271704  0.48054994  0.95249213  1
  O  O668  1  0.66386133  0.81375204  0.20283370  1
  O  O669  1  0.66295895  0.81532319  0.45275155  1
  O  O670  1  0.66298620  0.81385064  0.70119556  1
  O  O671  1  0.66312525  0.81517839  0.95210649  1
