# generated using pymatgen
data_Na2MnFe(PO4)2
_symmetry_space_group_name_H-M   'P 1'
_cell_length_a   21.08680072
_cell_length_b   18.93970534
_cell_length_c   20.04544270
_cell_angle_alpha   90.00086170
_cell_angle_beta   89.99974166
_cell_angle_gamma   89.99953809
_symmetry_Int_Tables_number   1
_chemical_formula_structural   Na2MnFe(PO4)2
_chemical_formula_sum   'Na96 Mn48 Fe48 P96 O384'
_cell_volume   8005.70464727
_cell_formula_units_Z   48
loop_
 _symmetry_equiv_pos_site_id
 _symmetry_equiv_pos_as_xyz
  1  'x, y, z'
loop_
 _atom_site_type_symbol
 _atom_site_label
 _atom_site_symmetry_multiplicity
 _atom_site_fract_x
 _atom_site_fract_y
 _atom_site_fract_z
 _atom_site_occupancy
  Na  Na0  1  0.00067607  0.00039003  0.00105761  1
  Na  Na1  1  0.00013624  -0.00005985  0.24945336  1
  Na  Na2  1  -0.00078315  -0.00076919  0.50006322  1
  Na  Na3  1  -0.00064065  -0.00016512  0.74985693  1
  Na  Na4  1  0.00163770  0.33376372  -0.00104037  1
  Na  Na5  1  0.00045380  0.33392277  0.24982401  1
  Na  Na6  1  -0.00173057  0.33267786  0.50064388  1
  Na  Na7  1  0.00077897  0.33364175  0.74988403  1
  Na  Na8  1  -0.00125499  0.66559004  -0.00071788  1
  Na  Na9  1  -0.00044027  0.66625214  0.25125705  1
  Na  Na10  1  -0.00133613  0.66621271  0.50105861  1
  Na  Na11  1  -0.00021509  0.66711013  0.74930511  1
  Na  Na12  1  0.50105762  0.00044662  -0.00066154  1
  Na  Na13  1  0.50080603  0.00027490  0.25095033  1
  Na  Na14  1  0.50231223  0.00049494  0.50073707  1
  Na  Na15  1  0.50277294  0.00082919  0.74877136  1
  Na  Na16  1  0.49960087  0.33301569  -0.00033211  1
  Na  Na17  1  0.50049536  0.33289679  0.25111201  1
  Na  Na18  1  0.50059114  0.33300581  0.50021201  1
  Na  Na19  1  0.50010226  0.33360578  0.74950277  1
  Na  Na20  1  0.50050993  0.66735045  -0.00038284  1
  Na  Na21  1  0.49998774  0.66700256  0.25086527  1
  Na  Na22  1  0.49927536  0.66665074  0.49891330  1
  Na  Na23  1  0.49862943  0.66625220  0.74947792  1
  Na  Na24  1  0.24905732  -0.00007297  0.12423937  1
  Na  Na25  1  0.24800515  -0.00105227  0.37470351  1
  Na  Na26  1  0.25142829  0.00102953  0.62577186  1
  Na  Na27  1  0.24933746  -0.00031402  0.87493623  1
  Na  Na28  1  0.24846225  0.33314502  0.12507028  1
  Na  Na29  1  0.24829297  0.33302895  0.37392341  1
  Na  Na30  1  0.25167689  0.33419602  0.62582084  1
  Na  Na31  1  0.25058481  0.33323406  0.87605401  1
  Na  Na32  1  0.24986362  0.66671918  0.12402491  1
  Na  Na33  1  0.24889593  0.66738917  0.37567623  1
  Na  Na34  1  0.24859005  0.66607062  0.62515369  1
  Na  Na35  1  0.25192845  0.66711642  0.87568785  1
  Na  Na36  1  0.75067115  0.00107462  0.12601326  1
  Na  Na37  1  0.74917731  -0.00050856  0.37615934  1
  Na  Na38  1  0.74812052  -0.00101264  0.62496883  1
  Na  Na39  1  0.74835704  -0.00033933  0.87360091  1
  Na  Na40  1  0.75131949  0.33354229  0.12449091  1
  Na  Na41  1  0.75081856  0.33288164  0.37503305  1
  Na  Na42  1  0.75050651  0.33370152  0.62540956  1
  Na  Na43  1  0.74718048  0.33206368  0.87437915  1
  Na  Na44  1  0.74938981  0.66604612  0.12399037  1
  Na  Na45  1  0.75196040  0.66640608  0.37430494  1
  Na  Na46  1  0.75265791  0.66730126  0.62545418  1
  Na  Na47  1  0.75100008  0.66691122  0.87525654  1
  Na  Na48  1  -0.00025234  0.16690258  -0.00019300  1
  Na  Na49  1  -0.00199228  0.16761420  0.24929587  1
  Na  Na50  1  -0.00263234  0.16730450  0.50050841  1
  Na  Na51  1  -0.00041963  0.16644258  0.75094441  1
  Na  Na52  1  0.00181763  0.49975134  0.00032356  1
  Na  Na53  1  0.00033211  0.50057281  0.25038134  1
  Na  Na54  1  -0.00010119  0.50054707  0.50134656  1
  Na  Na55  1  -0.00025425  0.50071103  0.74839294  1
  Na  Na56  1  0.00033166  0.83292006  -0.00051939  1
  Na  Na57  1  0.00023363  0.83345519  0.25060691  1
  Na  Na58  1  -0.00043114  0.83361358  0.49995388  1
  Na  Na59  1  -0.00033624  0.83340634  0.74964406  1
  Na  Na60  1  0.49993243  0.16712398  -0.00009769  1
  Na  Na61  1  0.50080310  0.16702225  0.25107932  1
  Na  Na62  1  0.50222725  0.16634790  0.50038880  1
  Na  Na63  1  0.50110252  0.16650077  0.74877237  1
  Na  Na64  1  0.50113619  0.49958045  -0.00059816  1
  Na  Na65  1  0.50042625  0.50052723  0.25054637  1
  Na  Na66  1  0.50118547  0.49980845  0.49949748  1
  Na  Na67  1  0.49995328  0.50066439  0.74980863  1
  Na  Na68  1  0.50035735  0.83204276  -0.00073465  1
  Na  Na69  1  0.49937252  0.83278328  0.25127101  1
  Na  Na70  1  0.49910993  0.83301915  0.50011563  1
  Na  Na71  1  0.49993813  0.83229931  0.74899330  1
  Na  Na72  1  0.24986256  0.16722921  0.12464547  1
  Na  Na73  1  0.25115743  0.16607155  0.37434803  1
  Na  Na74  1  0.25236352  0.16602535  0.62605933  1
  Na  Na75  1  0.25134536  0.16677398  0.87495446  1
  Na  Na76  1  0.24779763  0.50039913  0.12452537  1
  Na  Na77  1  0.24553284  0.50108403  0.37426488  1
  Na  Na78  1  0.24894356  0.50002974  0.62546308  1
  Na  Na79  1  0.25005675  0.49958387  0.87614112  1
  Na  Na80  1  0.24871167  0.83341914  0.12458545  1
  Na  Na81  1  0.24917102  0.83252282  0.37564491  1
  Na  Na82  1  0.25003911  0.83283207  0.62532668  1
  Na  Na83  1  0.25228762  0.83189571  0.87516747  1
  Na  Na84  1  0.75148382  0.16655454  0.12602228  1
  Na  Na85  1  0.74874087  0.16736272  0.37553122  1
  Na  Na86  1  0.74782241  0.16745650  0.62482481  1
  Na  Na87  1  0.74926590  0.16679128  0.87411526  1
  Na  Na88  1  0.74991456  0.50098535  0.12444363  1
  Na  Na89  1  0.75245378  0.50016866  0.37437845  1
  Na  Na90  1  0.75184004  0.50038805  0.62601611  1
  Na  Na91  1  0.74970038  0.50086989  0.87410442  1
  Na  Na92  1  0.74850744  0.83354499  0.12434522  1
  Na  Na93  1  0.75181595  0.83244385  0.37528877  1
  Na  Na94  1  0.75073377  0.83309175  0.62512805  1
  Na  Na95  1  0.74754106  0.83358769  0.87489889  1
  Mn  Mn96  1  0.39130022  0.58292896  0.62648689  1
  Mn  Mn97  1  0.35682463  0.41685060  0.50151136  1
  Mn  Mn98  1  0.35656486  0.41759888  0.25221676  1
  Mn  Mn99  1  0.39140371  0.91730141  0.37770432  1
  Mn  Mn100  1  0.60810575  0.74956041  0.62215922  1
  Mn  Mn101  1  0.85660909  0.08282119  0.75203330  1
  Mn  Mn102  1  0.39102555  0.58274598  0.37711892  1
  Mn  Mn103  1  0.85835523  0.75041264  0.25141783  1
  Mn  Mn104  1  0.39300548  0.25024111  0.62672835  1
  Mn  Mn105  1  0.39206082  0.91688102  0.12784759  1
  Mn  Mn106  1  0.89236260  0.25056558  0.87722779  1
  Mn  Mn107  1  0.85782097  0.08317385  0.25285838  1
  Mn  Mn108  1  0.35775938  0.41663600  0.00251576  1
  Mn  Mn109  1  0.64248152  0.58373055  0.74757776  1
  Mn  Mn110  1  0.89224894  0.91611676  0.12714168  1
  Mn  Mn111  1  0.60799329  0.75011579  0.37327000  1
  Mn  Mn112  1  0.39249830  0.91671766  0.62675936  1
  Mn  Mn113  1  0.85769734  0.41680046  0.75303558  1
  Mn  Mn114  1  0.35823916  0.08301646  0.00176488  1
  Mn  Mn115  1  0.39268570  0.24995144  0.37740834  1
  Mn  Mn116  1  0.10747607  0.08428609  0.37342305  1
  Mn  Mn117  1  0.64158113  0.91668533  0.99751202  1
  Mn  Mn118  1  0.14274624  0.91621185  0.74763497  1
  Mn  Mn119  1  0.39244812  0.58275109  0.12768545  1
  Mn  Mn120  1  0.60928419  0.41649882  0.37287901  1
  Mn  Mn121  1  0.60810090  0.41711067  0.12249592  1
  Mn  Mn122  1  0.64204788  0.25044065  0.99800295  1
  Mn  Mn123  1  0.10755499  0.41642054  0.62278923  1
  Mn  Mn124  1  0.89160030  0.91691755  0.87748458  1
  Mn  Mn125  1  0.14206310  0.58337182  0.99715751  1
  Mn  Mn126  1  0.85723822  0.75054303  0.00235501  1
  Mn  Mn127  1  0.14171291  0.24938981  0.49824655  1
  Mn  Mn128  1  0.64213547  0.91647222  0.24795827  1
  Mn  Mn129  1  0.35772606  0.08233438  0.25232125  1
  Mn  Mn130  1  0.14228181  0.91717587  0.99721754  1
  Mn  Mn131  1  0.39340097  0.91681314  0.87671298  1
  Mn  Mn132  1  0.64291816  0.58297701  0.24766138  1
  Mn  Mn133  1  0.10714184  0.74983337  0.37300508  1
  Mn  Mn134  1  0.60802500  0.08312923  0.12253421  1
  Mn  Mn135  1  0.14123621  0.24968605  0.24759380  1
  Mn  Mn136  1  0.10739052  0.08375498  0.12250644  1
  Mn  Mn137  1  0.60821007  0.41712115  0.62205493  1
  Mn  Mn138  1  0.85677327  0.08320223  0.50259699  1
  Mn  Mn139  1  0.10795146  0.74992395  0.87236204  1
  Mn  Mn140  1  0.85794593  0.41609962  0.00137816  1
  Mn  Mn141  1  0.14337494  0.25014835  0.74789342  1
  Mn  Mn142  1  0.85905544  0.41647631  0.25209261  1
  Mn  Mn143  1  0.10806563  0.08295755  0.62298579  1
  Fe  Fe144  1  0.89273254  0.91679326  0.37718669  1
  Fe  Fe145  1  0.64189454  0.24987835  0.74793203  1
  Fe  Fe146  1  0.10732422  0.08370578  0.87325319  1
  Fe  Fe147  1  0.89322545  0.58331274  0.37763009  1
  Fe  Fe148  1  0.10676425  0.41686129  0.12326909  1
  Fe  Fe149  1  0.85747096  0.75052758  0.75185959  1
  Fe  Fe150  1  0.89170300  0.24941131  0.62725598  1
  Fe  Fe151  1  0.14187883  0.91601668  0.24863450  1
  Fe  Fe152  1  0.35785297  0.08283510  0.50145137  1
  Fe  Fe153  1  0.10753658  0.74943927  0.12331656  1
  Fe  Fe154  1  0.60674701  0.41678793  0.87300167  1
  Fe  Fe155  1  0.35775731  0.41717833  0.75235636  1
  Fe  Fe156  1  0.64380125  0.25097496  0.49797955  1
  Fe  Fe157  1  0.64435054  0.58352728  0.49857124  1
  Fe  Fe158  1  0.35801376  0.75001817  0.00237828  1
  Fe  Fe159  1  0.60687768  0.74981848  0.12361153  1
  Fe  Fe160  1  0.64343338  0.25039832  0.24793402  1
  Fe  Fe161  1  0.60800473  0.08372298  0.87296311  1
  Fe  Fe162  1  0.85787977  0.74991778  0.50202246  1
  Fe  Fe163  1  0.10605189  0.41605148  0.37416162  1
  Fe  Fe164  1  0.64256088  0.91617636  0.74765997  1
  Fe  Fe165  1  0.35593857  0.75010981  0.50167093  1
  Fe  Fe166  1  0.89307170  0.58299290  0.12592211  1
  Fe  Fe167  1  0.14153418  0.58366236  0.49854182  1
  Fe  Fe168  1  0.39373282  0.25033083  0.87645941  1
  Fe  Fe169  1  0.35707864  0.74942574  0.75136944  1
  Fe  Fe170  1  0.64262787  0.58323222  0.99765560  1
  Fe  Fe171  1  0.89234237  0.91670873  0.62660187  1
  Fe  Fe172  1  0.64350089  0.91555955  0.49789352  1
  Fe  Fe173  1  0.14319631  0.58327702  0.74923255  1
  Fe  Fe174  1  0.39243929  0.25016488  0.12687941  1
  Fe  Fe175  1  0.10782484  0.41656036  0.87273401  1
  Fe  Fe176  1  0.14266115  0.24963441  0.99807180  1
  Fe  Fe177  1  0.89342008  0.58299025  0.87650838  1
  Fe  Fe178  1  0.85795635  0.41707661  0.50153069  1
  Fe  Fe179  1  0.60748988  0.08316844  0.37381222  1
  Fe  Fe180  1  0.85740358  0.08329069  0.00068609  1
  Fe  Fe181  1  0.14141108  0.58439405  0.24802965  1
  Fe  Fe182  1  0.89327180  0.58370337  0.62704366  1
  Fe  Fe183  1  0.35628353  0.74980731  0.25111781  1
  Fe  Fe184  1  0.60667979  0.74956606  0.87246102  1
  Fe  Fe185  1  0.60723797  0.08314288  0.62263501  1
  Fe  Fe186  1  0.89196076  0.25020821  0.37696824  1
  Fe  Fe187  1  0.10679683  0.75053869  0.62378035  1
  Fe  Fe188  1  0.35866062  0.08339324  0.75257001  1
  Fe  Fe189  1  0.14233313  0.91699500  0.49898457  1
  Fe  Fe190  1  0.89312947  0.25068816  0.12603614  1
  Fe  Fe191  1  0.39290070  0.58294786  0.87639563  1
  P  P192  1  0.05277958  0.25081017  0.10915436  1
  P  P193  1  0.05130582  0.25055775  0.36050303  1
  P  P194  1  0.05168207  0.24953878  0.61058268  1
  P  P195  1  0.05487815  0.24985932  0.86095094  1
  P  P196  1  0.05369631  0.58390337  0.11117080  1
  P  P197  1  0.05366573  0.58261013  0.36155346  1
  P  P198  1  0.05433428  0.58448000  0.61145431  1
  P  P199  1  0.05312387  0.58270694  0.85892109  1
  P  P200  1  0.05475636  0.91534737  0.11109896  1
  P  P201  1  0.05368384  0.91696251  0.36103899  1
  P  P202  1  0.05265818  0.91592405  0.60986222  1
  P  P203  1  0.05316828  0.91766497  0.85975563  1
  P  P204  1  0.55316806  0.25020250  0.11110753  1
  P  P205  1  0.55627647  0.24932339  0.36098460  1
  P  P206  1  0.55575537  0.24956752  0.61023340  1
  P  P207  1  0.55328755  0.25025979  0.85937644  1
  P  P208  1  0.55414688  0.58424466  0.10928090  1
  P  P209  1  0.55480576  0.58354064  0.36117462  1
  P  P210  1  0.55386911  0.58371441  0.60852899  1
  P  P211  1  0.55334930  0.58351720  0.86087355  1
  P  P212  1  0.55290271  0.91558977  0.11003662  1
  P  P213  1  0.55445852  0.91686139  0.36166124  1
  P  P214  1  0.55556871  0.91657307  0.61015736  1
  P  P215  1  0.55443835  0.91618224  0.85884746  1
  P  P216  1  0.44687174  0.08419211  0.14032358  1
  P  P217  1  0.44760300  0.08330961  0.39116737  1
  P  P218  1  0.44624436  0.08314728  0.63906476  1
  P  P219  1  0.44764165  0.08413952  0.88831579  1
  P  P220  1  0.44684154  0.41597620  0.14052144  1
  P  P221  1  0.44710405  0.41665439  0.39020320  1
  P  P222  1  0.44606714  0.41707865  0.64037612  1
  P  P223  1  0.44646137  0.41673255  0.88853259  1
  P  P224  1  0.44618403  0.74970712  0.13998543  1
  P  P225  1  0.44384692  0.74994213  0.38970154  1
  P  P226  1  0.44449314  0.74962733  0.63895675  1
  P  P227  1  0.44564301  0.74903986  0.88881188  1
  P  P228  1  0.94501649  0.08421581  0.13850697  1
  P  P229  1  0.94616359  0.08327676  0.39024521  1
  P  P230  1  0.94597733  0.08287011  0.64012456  1
  P  P231  1  0.94701505  0.08334381  0.89047749  1
  P  P232  1  0.94778364  0.41678212  0.13915682  1
  P  P233  1  0.94694281  0.41687407  0.39080898  1
  P  P234  1  0.94477384  0.41655395  0.63887216  1
  P  P235  1  0.94839518  0.41780382  0.88954726  1
  P  P236  1  0.94818803  0.74899649  0.13979527  1
  P  P237  1  0.94587162  0.75013757  0.39073250  1
  P  P238  1  0.94551213  0.75051797  0.63918636  1
  P  P239  1  0.94541722  0.74930995  0.88864442  1
  P  P240  1  0.19612414  0.08259539  0.23486552  1
  P  P241  1  0.19804750  0.08266898  0.48533893  1
  P  P242  1  0.19757003  0.08358581  0.73642647  1
  P  P243  1  0.19609435  0.08455661  0.98412579  1
  P  P244  1  0.19343363  0.41754755  0.23555049  1
  P  P245  1  0.19517038  0.41693999  0.48445132  1
  P  P246  1  0.19691328  0.41741301  0.73666699  1
  P  P247  1  0.19438247  0.41576066  0.98574864  1
  P  P248  1  0.19620805  0.74980387  0.23466983  1
  P  P249  1  0.19515492  0.75049621  0.48696574  1
  P  P250  1  0.19712821  0.74874674  0.73487819  1
  P  P251  1  0.19698893  0.74982449  0.98571302  1
  P  P252  1  0.69541347  0.08419075  0.23670667  1
  P  P253  1  0.69457142  0.08317807  0.48613264  1
  P  P254  1  0.69394765  0.08330386  0.73522530  1
  P  P255  1  0.69733060  0.08374013  0.98420113  1
  P  P256  1  0.69772186  0.41591242  0.23461083  1
  P  P257  1  0.69896419  0.41768845  0.48536028  1
  P  P258  1  0.69510472  0.41636947  0.73606919  1
  P  P259  1  0.69608097  0.41765328  0.98383941  1
  P  P260  1  0.69644096  0.74980616  0.23409822  1
  P  P261  1  0.69862914  0.74929209  0.48527639  1
  P  P262  1  0.69659443  0.75018370  0.73589074  1
  P  P263  1  0.69424241  0.74893497  0.98524957  1
  P  P264  1  0.30421230  0.25005082  0.01441743  1
  P  P265  1  0.30408797  0.25021492  0.26388263  1
  P  P266  1  0.30312573  0.24929010  0.51499001  1
  P  P267  1  0.30527516  0.25040672  0.76577300  1
  P  P268  1  0.30494066  0.58356717  0.01393769  1
  P  P269  1  0.30091966  0.58419738  0.26469466  1
  P  P270  1  0.30087037  0.58372254  0.51465670  1
  P  P271  1  0.30299572  0.58316539  0.76560484  1
  P  P272  1  0.30393833  0.91606857  0.01472813  1
  P  P273  1  0.30148709  0.91541876  0.26496394  1
  P  P274  1  0.30194273  0.91674783  0.51509668  1
  P  P275  1  0.30406125  0.91635547  0.76489683  1
  P  P276  1  0.80385503  0.24910086  0.01516095  1
  P  P277  1  0.80447840  0.25019936  0.26462188  1
  P  P278  1  0.80409324  0.25072501  0.51453941  1
  P  P279  1  0.80271544  0.24965105  0.76398609  1
  P  P280  1  0.80409614  0.58301260  0.01391559  1
  P  P281  1  0.80618358  0.58338968  0.26412597  1
  P  P282  1  0.80517827  0.58339236  0.51451868  1
  P  P283  1  0.80576314  0.58461035  0.76462222  1
  P  P284  1  0.80267498  0.91776118  0.01490052  1
  P  P285  1  0.80396897  0.91653913  0.26607010  1
  P  P286  1  0.80409257  0.91592813  0.51453184  1
  P  P287  1  0.80304316  0.91584611  0.76364525  1
  O  O288  1  0.05578756  0.24982912  0.18595220  1
  O  O289  1  0.05519704  0.24954160  0.43715253  1
  O  O290  1  0.05648787  0.24955044  0.68721399  1
  O  O291  1  0.05864475  0.24973274  0.93765713  1
  O  O292  1  0.05762899  0.58440703  0.18792917  1
  O  O293  1  0.05813884  0.58383708  0.43828749  1
  O  O294  1  0.05933992  0.58387585  0.68804591  1
  O  O295  1  0.05654731  0.58343046  0.93569913  1
  O  O296  1  0.05864000  0.91594716  0.18792174  1
  O  O297  1  0.05873160  0.91692393  0.43771113  1
  O  O298  1  0.05680561  0.91644253  0.68655593  1
  O  O299  1  0.05643309  0.91687942  0.93655452  1
  O  O300  1  0.55837217  0.25034353  0.18770209  1
  O  O301  1  0.56067865  0.25084139  0.43779655  1
  O  O302  1  0.55907793  0.25056783  0.68702497  1
  O  O303  1  0.55639349  0.25008876  0.93614343  1
  O  O304  1  0.55706455  0.58353329  0.18610688  1
  O  O305  1  0.56010172  0.58356423  0.43782625  1
  O  O306  1  0.55725749  0.58407454  0.68532047  1
  O  O307  1  0.55787292  0.58349990  0.93747617  1
  O  O308  1  0.55575406  0.91608299  0.18682755  1
  O  O309  1  0.55913426  0.91552876  0.43838949  1
  O  O310  1  0.55936774  0.91533081  0.68692936  1
  O  O311  1  0.55649011  0.91629249  0.93569563  1
  O  O312  1  0.44387090  0.08343123  0.06350081  1
  O  O313  1  0.44329748  0.08296120  0.31447074  1
  O  O314  1  0.44119448  0.08293295  0.56240671  1
  O  O315  1  0.44297545  0.08326404  0.81161469  1
  O  O316  1  0.44375282  0.41660269  0.06369104  1
  O  O317  1  0.44301865  0.41709738  0.31348831  1
  O  O318  1  0.44251672  0.41705105  0.56362758  1
  O  O319  1  0.44198360  0.41732081  0.81187136  1
  O  O320  1  0.44157375  0.74981018  0.06321329  1
  O  O321  1  0.43920521  0.74985282  0.31293968  1
  O  O322  1  0.43945004  0.74962413  0.56222644  1
  O  O323  1  0.44075341  0.74939234  0.81208283  1
  O  O324  1  0.94119850  0.08332200  0.06180541  1
  O  O325  1  0.94380071  0.08314703  0.31344562  1
  O  O326  1  0.94266702  0.08286716  0.56338793  1
  O  O327  1  0.94252530  0.08305915  0.81379182  1
  O  O328  1  0.94436868  0.41679188  0.06251661  1
  O  O329  1  0.94434121  0.41690712  0.31403949  1
  O  O330  1  0.94098670  0.41656913  0.56211939  1
  O  O331  1  0.94426665  0.41701421  0.81286755  1
  O  O332  1  0.94426253  0.74971895  0.06308059  1
  O  O333  1  0.94352499  0.75027852  0.31395852  1
  O  O334  1  0.94115324  0.75046977  0.56246139  1
  O  O335  1  0.94144835  0.75057176  0.81188771  1
  O  O336  1  0.19273253  0.08405690  0.06091055  1
  O  O337  1  0.19297399  0.08352688  0.31165393  1
  O  O338  1  0.19446559  0.08363280  0.56208081  1
  O  O339  1  0.19193963  0.08362713  0.81296039  1
  O  O340  1  0.18991219  0.41664830  0.06251820  1
  O  O341  1  0.18912107  0.41633563  0.31229815  1
  O  O342  1  0.19292872  0.41612963  0.56137208  1
  O  O343  1  0.19203143  0.41666656  0.81333013  1
  O  O344  1  0.19164675  0.74947128  0.06230541  1
  O  O345  1  0.19256076  0.74962660  0.31140789  1
  O  O346  1  0.19070455  0.75030043  0.56362836  1
  O  O347  1  0.19378920  0.74959287  0.81161171  1
  O  O348  1  0.69389882  0.08387365  0.06098127  1
  O  O349  1  0.69145184  0.08330449  0.31343398  1
  O  O350  1  0.69135783  0.08305646  0.56296602  1
  O  O351  1  0.69051993  0.08363105  0.81209621  1
  O  O352  1  0.69354432  0.41709721  0.06065016  1
  O  O353  1  0.69491904  0.41655042  0.31138373  1
  O  O354  1  0.69539747  0.41769591  0.56205432  1
  O  O355  1  0.69036863  0.41688572  0.81277817  1
  O  O356  1  0.69025201  0.74962335  0.06197703  1
  O  O357  1  0.69355185  0.74968362  0.31090002  1
  O  O358  1  0.69489248  0.74942353  0.56193329  1
  O  O359  1  0.69140984  0.74929627  0.81251726  1
  O  O360  1  0.30839787  0.25050186  0.18711597  1
  O  O361  1  0.30587049  0.24991094  0.43819278  1
  O  O362  1  0.30795084  0.25028527  0.68897079  1
  O  O363  1  0.30975273  0.25023153  0.93777545  1
  O  O364  1  0.30512302  0.58316836  0.18802949  1
  O  O365  1  0.30449040  0.58318659  0.43800205  1
  O  O366  1  0.30581747  0.58281552  0.68887645  1
  O  O367  1  0.30960259  0.58277996  0.93724082  1
  O  O368  1  0.30538572  0.91639373  0.18828452  1
  O  O369  1  0.30500216  0.91668825  0.43838712  1
  O  O370  1  0.30673055  0.91683724  0.68814238  1
  O  O371  1  0.30764200  0.91654476  0.93800314  1
  O  O372  1  0.80954093  0.25057014  0.18796777  1
  O  O373  1  0.80877847  0.24993891  0.43779882  1
  O  O374  1  0.80778332  0.24981037  0.68731540  1
  O  O375  1  0.80665290  0.25017643  0.93832052  1
  O  O376  1  0.81046110  0.58329447  0.18732027  1
  O  O377  1  0.80937808  0.58322288  0.43773562  1
  O  O378  1  0.81016181  0.58381567  0.68783239  1
  O  O379  1  0.80916240  0.58281780  0.93725850  1
  O  O380  1  0.80713369  0.91666260  0.18925957  1
  O  O381  1  0.80901523  0.91666607  0.43788167  1
  O  O382  1  0.80810835  0.91644072  0.68700029  1
  O  O383  1  0.80537160  0.91674499  0.93808591  1
  O  O384  1  0.23364311  0.25024199  0.03744114  1
  O  O385  1  0.23394453  0.24969492  0.28781976  1
  O  O386  1  0.23370437  0.24985299  0.54104654  1
  O  O387  1  0.23552306  0.25022708  0.79084223  1
  O  O388  1  0.23474514  0.58321471  0.03754601  1
  O  O389  1  0.23076840  0.58435165  0.28897533  1
  O  O390  1  0.23084272  0.58336520  0.53940199  1
  O  O391  1  0.23306388  0.58341602  0.79087357  1
  O  O392  1  0.23409148  0.91668767  0.03927113  1
  O  O393  1  0.23143517  0.91545956  0.28955509  1
  O  O394  1  0.23214499  0.91688817  0.54057752  1
  O  O395  1  0.23446348  0.91588955  0.79047540  1
  O  O396  1  0.73419962  0.25009973  0.04039414  1
  O  O397  1  0.73418326  0.25008777  0.28821403  1
  O  O398  1  0.73356359  0.25030389  0.53785088  1
  O  O399  1  0.73231324  0.24928338  0.78731930  1
  O  O400  1  0.73364940  0.58341092  0.03721989  1
  O  O401  1  0.73608165  0.58323174  0.28795861  1
  O  O402  1  0.73498197  0.58382108  0.53894659  1
  O  O403  1  0.73554611  0.58388521  0.78814626  1
  O  O404  1  0.73315529  0.91750315  0.04045436  1
  O  O405  1  0.73424746  0.91614536  0.29091150  1
  O  O406  1  0.73357314  0.91618962  0.53780141  1
  O  O407  1  0.73265069  0.91646914  0.78711937  1
  O  O408  1  0.26573495  0.08311529  0.20953728  1
  O  O409  1  0.26791470  0.08246975  0.46020340  1
  O  O410  1  0.26816034  0.08374047  0.71350204  1
  O  O411  1  0.26596834  0.08335830  0.95957372  1
  O  O412  1  0.26346415  0.41702684  0.21125812  1
  O  O413  1  0.26460685  0.41691876  0.45856414  1
  O  O414  1  0.26725802  0.41713708  0.71302858  1
  O  O415  1  0.26463903  0.41647728  0.96224662  1
  O  O416  1  0.26628611  0.74980402  0.21001909  1
  O  O417  1  0.26536788  0.75028172  0.46270110  1
  O  O418  1  0.26722606  0.74928748  0.71039951  1
  O  O419  1  0.26742547  0.74968789  0.96244441  1
  O  O420  1  0.76535620  0.08383185  0.21239521  1
  O  O421  1  0.76454443  0.08328699  0.46147048  1
  O  O422  1  0.76390290  0.08317158  0.71064554  1
  O  O423  1  0.76720805  0.08346096  0.95918142  1
  O  O424  1  0.76728035  0.41682148  0.20917545  1
  O  O425  1  0.76893743  0.41709722  0.46039500  1
  O  O426  1  0.76525536  0.41710827  0.71241401  1
  O  O427  1  0.76570294  0.41648621  0.95838333  1
  O  O428  1  0.76612784  0.74997389  0.20892901  1
  O  O429  1  0.76873525  0.74946721  0.46076222  1
  O  O430  1  0.76695855  0.74999055  0.71230985  1
  O  O431  1  0.76437828  0.74994590  0.96125755  1
  O  O432  1  0.01491328  0.08388642  0.16317908  1
  O  O433  1  0.01560099  0.08347767  0.41620160  1
  O  O434  1  0.01567833  0.08299651  0.66525937  1
  O  O435  1  0.01718876  0.08366035  0.91444610  1
  O  O436  1  0.01765458  0.41704618  0.16432377  1
  O  O437  1  0.01676026  0.41675389  0.41622853  1
  O  O438  1  0.01482651  0.41687032  0.66326480  1
  O  O439  1  0.01842739  0.41706396  0.91388400  1
  O  O440  1  0.01795226  0.74941731  0.16501914  1
  O  O441  1  0.01555911  0.74975149  0.41606933  1
  O  O442  1  0.01596585  0.75046208  0.66291939  1
  O  O443  1  0.01537075  0.74929350  0.91304816  1
  O  O444  1  0.51645250  0.08380049  0.16567492  1
  O  O445  1  0.51777802  0.08345933  0.41509182  1
  O  O446  1  0.51683486  0.08331799  0.66198181  1
  O  O447  1  0.51796133  0.08378694  0.91221965  1
  O  O448  1  0.51648253  0.41673344  0.16573866  1
  O  O449  1  0.51700037  0.41632702  0.41462509  1
  O  O450  1  0.51598453  0.41723787  0.66475724  1
  O  O451  1  0.51675409  0.41641697  0.91259278  1
  O  O452  1  0.51647340  0.74955992  0.16376888  1
  O  O453  1  0.51414870  0.74993238  0.41318085  1
  O  O454  1  0.51477800  0.74942929  0.66223377  1
  O  O455  1  0.51618315  0.74974154  0.91199673  1
  O  O456  1  0.48295280  0.25008603  0.08710508  1
  O  O457  1  0.48607414  0.24999591  0.33734313  1
  O  O458  1  0.48577347  0.24991527  0.58581828  1
  O  O459  1  0.48331403  0.25035443  0.83441225  1
  O  O460  1  0.48445204  0.58320316  0.08418846  1
  O  O461  1  0.48459279  0.58370184  0.33757648  1
  O  O462  1  0.48399962  0.58338664  0.58403587  1
  O  O463  1  0.48307157  0.58345465  0.83667799  1
  O  O464  1  0.48348048  0.91610531  0.08419381  1
  O  O465  1  0.48439800  0.91665673  0.33759663  1
  O  O466  1  0.48548885  0.91637975  0.58602457  1
  O  O467  1  0.48493887  0.91639101  0.83299637  1
  O  O468  1  0.98280447  0.25049853  0.08429151  1
  O  O469  1  0.98127069  0.25067196  0.33586526  1
  O  O470  1  0.98142274  0.24968431  0.58683183  1
  O  O471  1  0.98489639  0.25026516  0.83634496  1
  O  O472  1  0.98362150  0.58298268  0.08651978  1
  O  O473  1  0.98322016  0.58344965  0.33806174  1
  O  O474  1  0.98372430  0.58379187  0.58830706  1
  O  O475  1  0.98314901  0.58349023  0.83425857  1
  O  O476  1  0.98485953  0.91618302  0.08653715  1
  O  O477  1  0.98322174  0.91660759  0.33766858  1
  O  O478  1  0.98240955  0.91624265  0.58590576  1
  O  O479  1  0.98343855  0.91707626  0.83478400  1
  O  O480  1  0.08681267  0.31597778  0.07711673  1
  O  O481  1  0.08518584  0.31572401  0.32820995  1
  O  O482  1  0.08524606  0.31462764  0.57771208  1
  O  O483  1  0.08862980  0.31498949  0.82808486  1
  O  O484  1  0.08680012  0.64899148  0.07762989  1
  O  O485  1  0.08734081  0.64729548  0.32768516  1
  O  O486  1  0.08695403  0.64975590  0.57793857  1
  O  O487  1  0.08756719  0.64747527  0.82618207  1
  O  O488  1  0.08873857  0.98029981  0.07821470  1
  O  O489  1  0.08691620  0.98189280  0.32753297  1
  O  O490  1  0.08661963  0.98084194  0.57682335  1
  O  O491  1  0.08700843  0.98294946  0.82760564  1
  O  O492  1  0.58645126  0.31520013  0.07756083  1
  O  O493  1  0.59037437  0.31379821  0.32720976  1
  O  O494  1  0.58972177  0.31436761  0.57690650  1
  O  O495  1  0.58740463  0.31529950  0.82687166  1
  O  O496  1  0.58778640  0.64962815  0.07704417  1
  O  O497  1  0.58812243  0.64856072  0.32779574  1
  O  O498  1  0.58798894  0.64859948  0.57574756  1
  O  O499  1  0.58659248  0.64863630  0.82736661  1
  O  O500  1  0.58737506  0.98062410  0.07772745  1
  O  O501  1  0.58780840  0.98229275  0.32912886  1
  O  O502  1  0.58917431  0.98188823  0.57787761  1
  O  O503  1  0.58907601  0.98116332  0.82694930  1
  O  O504  1  0.41276118  0.01905258  0.17295399  1
  O  O505  1  0.41388367  0.01830997  0.42426524  1
  O  O506  1  0.41323883  0.01814723  0.67277556  1
  O  O507  1  0.41428627  0.01921757  0.92186521  1
  O  O508  1  0.41285627  0.35083297  0.17259317  1
  O  O509  1  0.41321492  0.35159390  0.42275557  1
  O  O510  1  0.41215868  0.35206852  0.67306840  1
  O  O511  1  0.41315254  0.35144378  0.92149832  1
  O  O512  1  0.41262187  0.68470000  0.17320766  1
  O  O513  1  0.41017233  0.68504908  0.42301206  1
  O  O514  1  0.41095749  0.68473987  0.67238077  1
  O  O515  1  0.41265724  0.68395739  0.92233102  1
  O  O516  1  0.91125989  0.01940149  0.17190966  1
  O  O517  1  0.91194061  0.01816402  0.42248573  1
  O  O518  1  0.91205708  0.01748800  0.67234359  1
  O  O519  1  0.91329788  0.01840916  0.92363349  1
  O  O520  1  0.91409517  0.35152932  0.17175646  1
  O  O521  1  0.91246156  0.35198622  0.42311198  1
  O  O522  1  0.91137395  0.35144276  0.67197748  1
  O  O523  1  0.91420782  0.35298688  0.92239816  1
  O  O524  1  0.91438373  0.68380626  0.17207813  1
  O  O525  1  0.91151550  0.68512436  0.42302506  1
  O  O526  1  0.91214757  0.68544161  0.67238416  1
  O  O527  1  0.91185384  0.68393548  0.92101516  1
  O  O528  1  0.16225176  0.01720359  0.20303885  1
  O  O529  1  0.16367310  0.01757735  0.45342981  1
  O  O530  1  0.16459333  0.01846470  0.70280794  1
  O  O531  1  0.16131310  0.01995948  0.95143432  1
  O  O532  1  0.15949105  0.35279877  0.20204767  1
  O  O533  1  0.16063805  0.35197133  0.45209510  1
  O  O534  1  0.16353186  0.35257785  0.70283154  1
  O  O535  1  0.16134767  0.35049600  0.95273544  1
  O  O536  1  0.16223607  0.68483202  0.20172259  1
  O  O537  1  0.16168683  0.68556401  0.45356640  1
  O  O538  1  0.16333066  0.68350812  0.70265370  1
  O  O539  1  0.16376125  0.68488018  0.95206807  1
  O  O540  1  0.66179536  0.01925899  0.20336285  1
  O  O541  1  0.66087976  0.01804662  0.45334113  1
  O  O542  1  0.66017434  0.01811789  0.70263689  1
  O  O543  1  0.66278515  0.01895558  0.95169572  1
  O  O544  1  0.66394803  0.35055966  0.20245027  1
  O  O545  1  0.66479900  0.35272149  0.45285195  1
  O  O546  1  0.66220028  0.35105672  0.70297525  1
  O  O547  1  0.66098547  0.35293378  0.95170772  1
  O  O548  1  0.66227590  0.68485852  0.20157323  1
  O  O549  1  0.66505520  0.68418559  0.45245547  1
  O  O550  1  0.66342072  0.68527881  0.70206978  1
  O  O551  1  0.66122950  0.68355952  0.95206440  1
  O  O552  1  0.33744574  0.31497638  0.04815312  1
  O  O553  1  0.33717667  0.31534553  0.29723537  1
  O  O554  1  0.33771755  0.31424077  0.54723298  1
  O  O555  1  0.33919639  0.31562425  0.79820155  1
  O  O556  1  0.33816184  0.64880945  0.04682109  1
  O  O557  1  0.33478733  0.64924229  0.29712470  1
  O  O558  1  0.33461360  0.64877407  0.54729866  1
  O  O559  1  0.33729522  0.64831546  0.79774159  1
  O  O560  1  0.33788271  0.98115469  0.04737450  1
  O  O561  1  0.33532825  0.98041803  0.29806001  1
  O  O562  1  0.33641113  0.98169630  0.54736364  1
  O  O563  1  0.33815440  0.98142841  0.79740037  1
  O  O564  1  0.83872092  0.31385235  0.04770365  1
  O  O565  1  0.83789275  0.31518975  0.29810070  1
  O  O566  1  0.83720356  0.31584193  0.54763489  1
  O  O567  1  0.83575217  0.31469818  0.79764934  1
  O  O568  1  0.83768843  0.64787258  0.04742055  1
  O  O569  1  0.83964807  0.64839188  0.29730516  1
  O  O570  1  0.83901334  0.64841138  0.54750111  1
  O  O571  1  0.83890397  0.64986432  0.79747831  1
  O  O572  1  0.83685464  0.98296488  0.04663871  1
  O  O573  1  0.83798120  0.98147689  0.29887082  1
  O  O574  1  0.83724583  0.98087260  0.54841068  1
  O  O575  1  0.83628250  0.98082847  0.79722885  1
  O  O576  1  0.41277277  0.14930805  0.17239313  1
  O  O577  1  0.41378277  0.14829642  0.42395580  1
  O  O578  1  0.41307896  0.14814216  0.67255718  1
  O  O579  1  0.41439524  0.14933786  0.92126853  1
  O  O580  1  0.41249357  0.48103674  0.17297235  1
  O  O581  1  0.41328886  0.48173496  0.42299175  1
  O  O582  1  0.41194166  0.48203062  0.67308838  1
  O  O583  1  0.41318854  0.48164107  0.92213352  1
  O  O584  1  0.41264678  0.81463512  0.17333575  1
  O  O585  1  0.41042378  0.81497443  0.42306188  1
  O  O586  1  0.41129412  0.81469405  0.67236114  1
  O  O587  1  0.41232331  0.81401457  0.92245410  1
  O  O588  1  0.91164742  0.14974055  0.17090723  1
  O  O589  1  0.91161454  0.14834667  0.42216735  1
  O  O590  1  0.91172801  0.14787086  0.67254731  1
  O  O591  1  0.91294925  0.14831698  0.92312565  1
  O  O592  1  0.91387305  0.48172792  0.17192313  1
  O  O593  1  0.91290992  0.48199522  0.42329566  1
  O  O594  1  0.91127596  0.48181920  0.67156788  1
  O  O595  1  0.91504391  0.48307557  0.92219261  1
  O  O596  1  0.91402584  0.81394987  0.17255106  1
  O  O597  1  0.91179554  0.81521581  0.42319247  1
  O  O598  1  0.91207513  0.81556257  0.67249019  1
  O  O599  1  0.91175424  0.81412015  0.92217329  1
  O  O600  1  0.08711951  0.18606138  0.07627764  1
  O  O601  1  0.08499507  0.18564537  0.32722649  1
  O  O602  1  0.08513169  0.18451404  0.57742788  1
  O  O603  1  0.08819086  0.18455596  0.82796480  1
  O  O604  1  0.08772571  0.51893293  0.07854250  1
  O  O605  1  0.08646443  0.51725347  0.32867570  1
  O  O606  1  0.08772418  0.51961980  0.57776877  1
  O  O607  1  0.08693891  0.51748844  0.82652880  1
  O  O608  1  0.08794429  0.84997385  0.07830017  1
  O  O609  1  0.08710325  0.85187386  0.32771599  1
  O  O610  1  0.08634123  0.85085139  0.57709785  1
  O  O611  1  0.08734128  0.85260395  0.82724680  1
  O  O612  1  0.58661710  0.18523483  0.07766743  1
  O  O613  1  0.58918358  0.18371573  0.32843111  1
  O  O614  1  0.58937143  0.18432032  0.57788735  1
  O  O615  1  0.58734998  0.18527233  0.82671189  1
  O  O616  1  0.58904091  0.51964672  0.07659621  1
  O  O617  1  0.58815164  0.51845388  0.32783777  1
  O  O618  1  0.58836059  0.51879837  0.57619360  1
  O  O619  1  0.58675582  0.51850512  0.82761712  1
  O  O620  1  0.58697603  0.85042257  0.07793165  1
  O  O621  1  0.58798040  0.85204615  0.32807798  1
  O  O622  1  0.58936853  0.85181747  0.57657572  1
  O  O623  1  0.58865131  0.85089842  0.82675953  1
  O  O624  1  0.33737635  0.18493052  0.04773733  1
  O  O625  1  0.33794794  0.18524172  0.29675828  1
  O  O626  1  0.33733958  0.18400329  0.54685130  1
  O  O627  1  0.33974219  0.18544900  0.79812831  1
  O  O628  1  0.33812236  0.51856533  0.04753891  1
  O  O629  1  0.33439025  0.51916630  0.29804794  1
  O  O630  1  0.33478778  0.51875053  0.54748992  1
  O  O631  1  0.33720724  0.51831080  0.79848245  1
  O  O632  1  0.33745961  0.85080170  0.04727670  1
  O  O633  1  0.33527786  0.85032121  0.29734375  1
  O  O634  1  0.33597930  0.85163014  0.54749707  1
  O  O635  1  0.33825518  0.85100241  0.79660071  1
  O  O636  1  0.83755375  0.18370068  0.04711210  1
  O  O637  1  0.83787080  0.18535035  0.29826158  1
  O  O638  1  0.83725813  0.18570164  0.54827063  1
  O  O639  1  0.83617098  0.18476054  0.79720470  1
  O  O640  1  0.83726467  0.51790061  0.04738051  1
  O  O641  1  0.83990928  0.51852337  0.29740431  1
  O  O642  1  0.83855721  0.51830272  0.54772739  1
  O  O643  1  0.83955324  0.51982510  0.79817219  1
  O  O644  1  0.83693441  0.85271345  0.04744761  1
  O  O645  1  0.83849350  0.85160673  0.29825706  1
  O  O646  1  0.83734284  0.85087568  0.54779936  1
  O  O647  1  0.83600999  0.85071907  0.79704926  1
  O  O648  1  0.16173835  0.14751555  0.20227597  1
  O  O649  1  0.16418274  0.14771207  0.45235613  1
  O  O650  1  0.16449298  0.14848649  0.70257085  1
  O  O651  1  0.16269729  0.14998079  0.95171272  1
  O  O652  1  0.16013499  0.48306959  0.20304920  1
  O  O653  1  0.16046142  0.48204736  0.45294361  1
  O  O654  1  0.16356890  0.48259767  0.70373623  1
  O  O655  1  0.16062147  0.48054320  0.95216152  1
  O  O656  1  0.16221958  0.81482679  0.20212486  1
  O  O657  1  0.16204814  0.81575071  0.45381503  1
  O  O658  1  0.16274299  0.81344328  0.70186869  1
  O  O659  1  0.16387442  0.81485784  0.95223923  1
  O  O660  1  0.66215936  0.14951435  0.20380304  1
  O  O661  1  0.66092601  0.14833224  0.45345596  1
  O  O662  1  0.66019205  0.14833615  0.70236492  1
  O  O663  1  0.66326064  0.14878758  0.95159324  1
  O  O664  1  0.66310974  0.48074070  0.20231161  1
  O  O665  1  0.66553956  0.48292492  0.45258687  1
  O  O666  1  0.66169076  0.48136166  0.70269527  1
  O  O667  1  0.66221831  0.48299836  0.95166107  1
  O  O668  1  0.66196873  0.81473429  0.20180849  1
  O  O669  1  0.66469472  0.81429899  0.45249054  1
  O  O670  1  0.66342120  0.81527774  0.70262370  1
  O  O671  1  0.66005384  0.81356832  0.95191577  1
