# generated using pymatgen
data_Na2MnFe(PO4)2
_symmetry_space_group_name_H-M   'P 1'
_cell_length_a   21.08392601
_cell_length_b   18.93586406
_cell_length_c   20.04317757
_cell_angle_alpha   89.99993124
_cell_angle_beta   89.99771809
_cell_angle_gamma   90.00133986
_symmetry_Int_Tables_number   1
_chemical_formula_structural   Na2MnFe(PO4)2
_chemical_formula_sum   'Na96 Mn48 Fe48 P96 O384'
_cell_volume   8002.08543850
_cell_formula_units_Z   48
loop_
 _symmetry_equiv_pos_site_id
 _symmetry_equiv_pos_as_xyz
  1  'x, y, z'
loop_
 _atom_site_type_symbol
 _atom_site_label
 _atom_site_symmetry_multiplicity
 _atom_site_fract_x
 _atom_site_fract_y
 _atom_site_fract_z
 _atom_site_occupancy
  Na  Na0  1  0.00182345  -0.00011470  0.00039246  1
  Na  Na1  1  -0.00039091  -0.00047643  0.25011587  1
  Na  Na2  1  -0.00241367  -0.00154173  0.50015633  1
  Na  Na3  1  0.00011051  -0.00032315  0.75021243  1
  Na  Na4  1  0.00180518  0.33396976  -0.00051095  1
  Na  Na5  1  0.00008958  0.33322473  0.25114628  1
  Na  Na6  1  -0.00081042  0.33368276  0.49943335  1
  Na  Na7  1  -0.00155039  0.33286636  0.74990425  1
  Na  Na8  1  -0.00113284  0.66578985  0.00001076  1
  Na  Na9  1  0.00166604  0.66679551  0.25048111  1
  Na  Na10  1  0.00084077  0.66673697  0.49985557  1
  Na  Na11  1  -0.00012667  0.66687844  0.74956830  1
  Na  Na12  1  0.50028049  -0.00015979  0.00045258  1
  Na  Na13  1  0.49880543  -0.00077681  0.25030016  1
  Na  Na14  1  0.50144443  0.00076667  0.49879662  1
  Na  Na15  1  0.50066017  -0.00035407  0.75049705  1
  Na  Na16  1  0.49668001  0.33284672  0.00079612  1
  Na  Na17  1  0.49854702  0.33312830  0.25011395  1
  Na  Na18  1  0.49876533  0.33307744  0.49904167  1
  Na  Na19  1  0.49674704  0.33270709  0.74941395  1
  Na  Na20  1  0.49947904  0.66734561  0.00038770  1
  Na  Na21  1  0.50067874  0.66741283  0.24986038  1
  Na  Na22  1  0.49955106  0.66652757  0.50019309  1
  Na  Na23  1  0.50041649  0.66806279  0.74963024  1
  Na  Na24  1  0.24822604  -0.00057267  0.12385324  1
  Na  Na25  1  0.24938032  0.00017439  0.37551842  1
  Na  Na26  1  0.24941536  -0.00040702  0.62545008  1
  Na  Na27  1  0.24841387  -0.00085707  0.87614863  1
  Na  Na28  1  0.25034290  0.33306233  0.12481788  1
  Na  Na29  1  0.25285690  0.33420838  0.37438012  1
  Na  Na30  1  0.25325812  0.33354479  0.62501497  1
  Na  Na31  1  0.25270544  0.33383532  0.87513979  1
  Na  Na32  1  0.24940514  0.66634484  0.12549740  1
  Na  Na33  1  0.24862579  0.66681780  0.37539237  1
  Na  Na34  1  0.24787177  0.66600466  0.62410326  1
  Na  Na35  1  0.25139701  0.66777797  0.87454695  1
  Na  Na36  1  0.75114146  -0.00038780  0.12483419  1
  Na  Na37  1  0.75278051  0.00066506  0.37581801  1
  Na  Na38  1  0.75100625  -0.00032649  0.62435932  1
  Na  Na39  1  0.75056294  -0.00092521  0.87447061  1
  Na  Na40  1  0.74989287  0.33343651  0.12544801  1
  Na  Na41  1  0.74922791  0.33327670  0.37471278  1
  Na  Na42  1  0.75133584  0.33418205  0.62547350  1
  Na  Na43  1  0.75051690  0.33344378  0.87469782  1
  Na  Na44  1  0.74978848  0.66725181  0.12567389  1
  Na  Na45  1  0.74995139  0.66664567  0.37422360  1
  Na  Na46  1  0.75096525  0.66748985  0.62540843  1
  Na  Na47  1  0.74907543  0.66685702  0.87490090  1
  Na  Na48  1  0.00402226  0.16562668  0.00006024  1
  Na  Na49  1  0.00123684  0.16692367  0.25056669  1
  Na  Na50  1  0.00065646  0.16675431  0.49878618  1
  Na  Na51  1  0.00077759  0.16728411  0.75023552  1
  Na  Na52  1  -0.00016623  0.49955088  0.00007728  1
  Na  Na53  1  -0.00012221  0.50024790  0.25150902  1
  Na  Na54  1  -0.00121396  0.50015499  0.49967678  1
  Na  Na55  1  -0.00246882  0.50054653  0.74907142  1
  Na  Na56  1  -0.00070964  0.83421651  -0.00009383  1
  Na  Na57  1  -0.00035477  0.83355359  0.24934894  1
  Na  Na58  1  -0.00101337  0.83313165  0.50124232  1
  Na  Na59  1  -0.00099872  0.83356188  0.75010849  1
  Na  Na60  1  0.49756427  0.16734954  0.00116352  1
  Na  Na61  1  0.49802055  0.16780123  0.25110005  1
  Na  Na62  1  0.50109507  0.16660145  0.49831816  1
  Na  Na63  1  0.49918240  0.16722756  0.75010086  1
  Na  Na64  1  0.49701776  0.50051219  0.00002580  1
  Na  Na65  1  0.49822136  0.49993930  0.24957734  1
  Na  Na66  1  0.49938641  0.49933028  0.49992980  1
  Na  Na67  1  0.49714796  0.50070235  0.74942748  1
  Na  Na68  1  0.50119424  0.83295976  0.00022149  1
  Na  Na69  1  0.50234838  0.83205204  0.24960134  1
  Na  Na70  1  0.50050166  0.83267507  0.50000764  1
  Na  Na71  1  0.50043035  0.83315861  0.74994281  1
  Na  Na72  1  0.24957384  0.16676780  0.12444406  1
  Na  Na73  1  0.25125004  0.16702743  0.37457163  1
  Na  Na74  1  0.25033488  0.16713248  0.62554075  1
  Na  Na75  1  0.24943614  0.16683878  0.87505502  1
  Na  Na76  1  0.25163326  0.49946474  0.12398531  1
  Na  Na77  1  0.24978641  0.50048495  0.37550928  1
  Na  Na78  1  0.25200301  0.49959641  0.62413617  1
  Na  Na79  1  0.25260522  0.49934860  0.87608155  1
  Na  Na80  1  0.24804511  0.83382858  0.12550604  1
  Na  Na81  1  0.24844288  0.83319573  0.37561384  1
  Na  Na82  1  0.24880559  0.83323091  0.62482417  1
  Na  Na83  1  0.24988570  0.83328867  0.87475352  1
  Na  Na84  1  0.75049967  0.16647073  0.12475260  1
  Na  Na85  1  0.74935964  0.16718206  0.37599252  1
  Na  Na86  1  0.74868640  0.16772233  0.62534555  1
  Na  Na87  1  0.74946632  0.16686647  0.87424112  1
  Na  Na88  1  0.75083404  0.49916498  0.12594351  1
  Na  Na89  1  0.75131161  0.49936445  0.37446926  1
  Na  Na90  1  0.75234302  0.49919055  0.62478248  1
  Na  Na91  1  0.75111995  0.49987152  0.87462141  1
  Na  Na92  1  0.74944962  0.83373801  0.12535966  1
  Na  Na93  1  0.75104630  0.83285849  0.37443275  1
  Na  Na94  1  0.75158132  0.83262316  0.62507102  1
  Na  Na95  1  0.75053374  0.83309021  0.87503500  1
  Mn  Mn96  1  0.10826341  0.41694567  0.37297488  1
  Mn  Mn97  1  0.89171789  0.24958465  0.37747205  1
  Mn  Mn98  1  0.89267828  0.58422567  0.37744775  1
  Mn  Mn99  1  0.35763826  0.75021351  0.75151854  1
  Mn  Mn100  1  0.85762620  0.08427535  0.50315890  1
  Mn  Mn101  1  0.60735584  0.41647539  0.62271525  1
  Mn  Mn102  1  0.64332484  0.91659583  0.49775089  1
  Mn  Mn103  1  0.14327590  0.25044454  0.24769984  1
  Mn  Mn104  1  0.85872730  0.08354213  0.00233000  1
  Mn  Mn105  1  0.64204147  0.58300888  0.74796599  1
  Mn  Mn106  1  0.64143459  0.25045290  0.74782585  1
  Mn  Mn107  1  0.39253130  0.91727202  0.62705152  1
  Mn  Mn108  1  0.89323863  0.25013930  0.12715747  1
  Mn  Mn109  1  0.60781479  0.08312750  0.12330578  1
  Mn  Mn110  1  0.14254114  0.58329052  0.99762798  1
  Mn  Mn111  1  0.64179900  0.58336016  0.99758569  1
  Mn  Mn112  1  0.89281815  0.24892793  0.87772932  1
  Mn  Mn113  1  0.35819518  0.08305143  0.50276627  1
  Mn  Mn114  1  0.60619566  0.41723553  0.87299477  1
  Mn  Mn115  1  0.60726091  0.08334245  0.87294527  1
  Mn  Mn116  1  0.14309499  0.25049926  0.74714727  1
  Mn  Mn117  1  0.60683879  0.41681069  0.12277856  1
  Mn  Mn118  1  0.60797683  0.08332482  0.37164663  1
  Mn  Mn119  1  0.14258732  0.58324487  0.74762180  1
  Mn  Mn120  1  0.85803579  0.08344772  0.75236864  1
  Mn  Mn121  1  0.39180681  0.58362331  0.62700897  1
  Mn  Mn122  1  0.39171361  0.58383694  0.12788954  1
  Mn  Mn123  1  0.64117898  0.24975449  0.99790849  1
  Mn  Mn124  1  0.35803435  0.08275541  0.75242042  1
  Mn  Mn125  1  0.10788363  0.08248724  0.37270942  1
  Mn  Mn126  1  0.35682568  0.08264567  0.00246844  1
  Mn  Mn127  1  0.64196820  0.58243319  0.24792419  1
  Mn  Mn128  1  0.14127476  0.91693775  0.49777204  1
  Mn  Mn129  1  0.10747885  0.08364539  0.62256716  1
  Mn  Mn130  1  0.35717412  0.75029683  0.25280549  1
  Mn  Mn131  1  0.10871787  0.41667781  0.87206288  1
  Mn  Mn132  1  0.64308001  0.91777744  0.24806303  1
  Mn  Mn133  1  0.64256797  0.91659951  0.74797058  1
  Mn  Mn134  1  0.85793467  0.75003009  0.25231571  1
  Mn  Mn135  1  0.10758955  0.74963768  0.12224551  1
  Mn  Mn136  1  0.85717501  0.74980899  0.00224849  1
  Mn  Mn137  1  0.10771829  0.41693979  0.62283338  1
  Mn  Mn138  1  0.39172470  0.91590446  0.37698804  1
  Mn  Mn139  1  0.10781662  0.74997404  0.87272628  1
  Mn  Mn140  1  0.64262575  0.58278050  0.49755528  1
  Mn  Mn141  1  0.89172951  0.58363491  0.87753657  1
  Mn  Mn142  1  0.85829380  0.41641622  0.00290396  1
  Mn  Mn143  1  0.39184786  0.91696945  0.12734373  1
  Fe  Fe144  1  0.60766798  0.08330802  0.62351130  1
  Fe  Fe145  1  0.39235715  0.58438211  0.87682285  1
  Fe  Fe146  1  0.35667168  0.74989885  0.50144552  1
  Fe  Fe147  1  0.35752123  0.41725212  0.50110606  1
  Fe  Fe148  1  0.89354772  0.91719797  0.87704989  1
  Fe  Fe149  1  0.35688987  0.41696159  0.00210244  1
  Fe  Fe150  1  0.14242107  0.91635542  0.74852105  1
  Fe  Fe151  1  0.39163812  0.24929632  0.12757703  1
  Fe  Fe152  1  0.10722475  0.75033217  0.37393776  1
  Fe  Fe153  1  0.64261115  0.24981549  0.24843545  1
  Fe  Fe154  1  0.14337575  0.25079026  0.49887922  1
  Fe  Fe155  1  0.85802631  0.74909188  0.50202907  1
  Fe  Fe156  1  0.89238187  0.25009509  0.62633360  1
  Fe  Fe157  1  0.60678777  0.41718273  0.37333402  1
  Fe  Fe158  1  0.14361445  0.25011713  0.99832683  1
  Fe  Fe159  1  0.85746761  0.41679139  0.75168062  1
  Fe  Fe160  1  0.35758643  0.75048895  0.00164064  1
  Fe  Fe161  1  0.14302008  0.58294238  0.24812152  1
  Fe  Fe162  1  0.85851016  0.08438275  0.25112602  1
  Fe  Fe163  1  0.39230987  0.91627215  0.87719992  1
  Fe  Fe164  1  0.64235057  0.25085247  0.49870347  1
  Fe  Fe165  1  0.85750740  0.41579605  0.25150739  1
  Fe  Fe166  1  0.39194037  0.24939034  0.87741009  1
  Fe  Fe167  1  0.39214150  0.58348431  0.37648432  1
  Fe  Fe168  1  0.89289037  0.58292089  0.12696339  1
  Fe  Fe169  1  0.14178615  0.91653994  0.24829265  1
  Fe  Fe170  1  0.89314608  0.91606284  0.37627895  1
  Fe  Fe171  1  0.60740634  0.74911674  0.37416377  1
  Fe  Fe172  1  0.85701379  0.41685499  0.50155360  1
  Fe  Fe173  1  0.64302484  0.91705799  0.99826363  1
  Fe  Fe174  1  0.60742208  0.75014543  0.12291715  1
  Fe  Fe175  1  0.85741880  0.74957704  0.75200099  1
  Fe  Fe176  1  0.35792800  0.41695818  0.75205341  1
  Fe  Fe177  1  0.89290293  0.91649202  0.62757830  1
  Fe  Fe178  1  0.10774697  0.41659802  0.12393166  1
  Fe  Fe179  1  0.89317606  0.91681821  0.12654760  1
  Fe  Fe180  1  0.14258137  0.58258705  0.49850724  1
  Fe  Fe181  1  0.39315298  0.25034113  0.37716723  1
  Fe  Fe182  1  0.35701889  0.41686174  0.25212335  1
  Fe  Fe183  1  0.60810185  0.75038569  0.62261072  1
  Fe  Fe184  1  0.10779507  0.08390748  0.12390539  1
  Fe  Fe185  1  0.10621207  0.74973212  0.62330155  1
  Fe  Fe186  1  0.10777761  0.08310296  0.87282126  1
  Fe  Fe187  1  0.89279947  0.58335880  0.62645502  1
  Fe  Fe188  1  0.14217112  0.91638194  0.99780827  1
  Fe  Fe189  1  0.35656146  0.08291599  0.25108396  1
  Fe  Fe190  1  0.60644882  0.74992748  0.87346211  1
  Fe  Fe191  1  0.39306126  0.24899648  0.62581929  1
  P  P192  1  0.05494805  0.25073339  0.10986624  1
  P  P193  1  0.05489473  0.25026240  0.36121989  1
  P  P194  1  0.05257019  0.25069133  0.60912115  1
  P  P195  1  0.05550931  0.24950594  0.86090192  1
  P  P196  1  0.05352553  0.58197950  0.11134179  1
  P  P197  1  0.05574800  0.58404846  0.36097516  1
  P  P198  1  0.05276757  0.58363049  0.60961907  1
  P  P199  1  0.05313062  0.58316233  0.85948792  1
  P  P200  1  0.05427377  0.91729780  0.11070616  1
  P  P201  1  0.05262437  0.91552034  0.35970665  1
  P  P202  1  0.05291717  0.91585399  0.61165290  1
  P  P203  1  0.05443444  0.91705766  0.86049349  1
  P  P204  1  0.55244106  0.24983101  0.11158783  1
  P  P205  1  0.55431859  0.25154535  0.36060708  1
  P  P206  1  0.55254845  0.24962408  0.60910205  1
  P  P207  1  0.55100231  0.25049801  0.86028257  1
  P  P208  1  0.55293155  0.58372735  0.10999050  1
  P  P209  1  0.55193453  0.58287934  0.36036838  1
  P  P210  1  0.55336453  0.58381433  0.60983139  1
  P  P211  1  0.55140236  0.58422556  0.86007852  1
  P  P212  1  0.55422508  0.91640797  0.10967338  1
  P  P213  1  0.55358850  0.91543262  0.36002835  1
  P  P214  1  0.55398238  0.91682011  0.60979774  1
  P  P215  1  0.55320748  0.91575008  0.86150962  1
  P  P216  1  0.44562260  0.08357570  0.14108644  1
  P  P217  1  0.44513291  0.08379375  0.38837958  1
  P  P218  1  0.44836055  0.08390091  0.63973574  1
  P  P219  1  0.44608375  0.08284482  0.89041665  1
  P  P220  1  0.44375624  0.41588464  0.13980038  1
  P  P221  1  0.44539703  0.41706369  0.38887217  1
  P  P222  1  0.44435791  0.41568929  0.63872115  1
  P  P223  1  0.44388921  0.41692092  0.88949072  1
  P  P224  1  0.44652543  0.75066848  0.13927023  1
  P  P225  1  0.44686327  0.74899674  0.39040796  1
  P  P226  1  0.44696288  0.75033054  0.63856125  1
  P  P227  1  0.44653481  0.75044046  0.89034318  1
  P  P228  1  0.94826504  0.08308617  0.14031403  1
  P  P229  1  0.94537927  0.08249277  0.38888311  1
  P  P230  1  0.94659598  0.08398370  0.63998710  1
  P  P231  1  0.94849622  0.08240544  0.89014386  1
  P  P232  1  0.94788605  0.41696976  0.14107548  1
  P  P233  1  0.94480754  0.41666585  0.38965545  1
  P  P234  1  0.94457761  0.41657339  0.63879367  1
  P  P235  1  0.94593867  0.41648583  0.88911916  1
  P  P236  1  0.94643775  0.74977140  0.13974048  1
  P  P237  1  0.94741200  0.75065493  0.39053352  1
  P  P238  1  0.94562449  0.74923516  0.63932770  1
  P  P239  1  0.94557463  0.75090405  0.88903966  1
  P  P240  1  0.19704016  0.08279935  0.23450402  1
  P  P241  1  0.19667323  0.08467273  0.48522586  1
  P  P242  1  0.19570672  0.08233150  0.73611087  1
  P  P243  1  0.19413672  0.08348918  0.98588678  1
  P  P244  1  0.19772441  0.41764309  0.23462089  1
  P  P245  1  0.19798415  0.41618870  0.48538507  1
  P  P246  1  0.19902203  0.41684166  0.73459945  1
  P  P247  1  0.19681182  0.41595089  0.98632496  1
  P  P248  1  0.19481792  0.74977386  0.23655037  1
  P  P249  1  0.19499891  0.74918024  0.48596407  1
  P  P250  1  0.19561636  0.75074069  0.73407799  1
  P  P251  1  0.19771978  0.75040888  0.98495603  1
  P  P252  1  0.69865733  0.08425849  0.23508917  1
  P  P253  1  0.69524774  0.08422243  0.48626610  1
  P  P254  1  0.69609423  0.08305444  0.73423200  1
  P  P255  1  0.69697147  0.08240379  0.98475447  1
  P  P256  1  0.69615858  0.41563389  0.23635560  1
  P  P257  1  0.69697389  0.41623100  0.48450320  1
  P  P258  1  0.69752582  0.41696251  0.73502865  1
  P  P259  1  0.69652564  0.41669526  0.98468448  1
  P  P260  1  0.69464863  0.74993656  0.23568192  1
  P  P261  1  0.69704011  0.74975051  0.48536814  1
  P  P262  1  0.69601130  0.75007940  0.73567105  1
  P  P263  1  0.69446651  0.75098884  0.98544202  1
  P  P264  1  0.30414171  0.25007186  0.01457101  1
  P  P265  1  0.30548913  0.24979804  0.26422624  1
  P  P266  1  0.30451207  0.25074148  0.51417818  1
  P  P267  1  0.30575339  0.25017887  0.76430736  1
  P  P268  1  0.30485192  0.58439515  0.01385297  1
  P  P269  1  0.30259790  0.58289319  0.26575887  1
  P  P270  1  0.30353769  0.58392201  0.51319305  1
  P  P271  1  0.30403569  0.58315595  0.76539830  1
  P  P272  1  0.30288295  0.91560126  0.01398189  1
  P  P273  1  0.30111761  0.91736594  0.26491710  1
  P  P274  1  0.30291356  0.91553138  0.51512186  1
  P  P275  1  0.30260659  0.91653439  0.76569827  1
  P  P276  1  0.80306891  0.24979348  0.01542283  1
  P  P277  1  0.80269191  0.24985863  0.26486744  1
  P  P278  1  0.80230988  0.25119731  0.51562090  1
  P  P279  1  0.80455628  0.25067084  0.76404289  1
  P  P280  1  0.80355707  0.58346500  0.01635662  1
  P  P281  1  0.80486123  0.58250861  0.26390944  1
  P  P282  1  0.80423036  0.58351606  0.51520681  1
  P  P283  1  0.80474879  0.58363656  0.76364834  1
  P  P284  1  0.80431812  0.91660371  0.01451910  1
  P  P285  1  0.80597006  0.91773350  0.26436451  1
  P  P286  1  0.80613155  0.91531985  0.51430615  1
  P  P287  1  0.80585248  0.91564041  0.76455166  1
  O  O288  1  0.05750228  0.25071476  0.18671690  1
  O  O289  1  0.05956486  0.25078613  0.43791019  1
  O  O290  1  0.05680437  0.25098019  0.68585967  1
  O  O291  1  0.05991103  0.25065857  0.93762861  1
  O  O292  1  0.05845788  0.58257943  0.18801409  1
  O  O293  1  0.05977334  0.58259719  0.43776675  1
  O  O294  1  0.05650563  0.58272327  0.68630948  1
  O  O295  1  0.05674244  0.58296587  0.93631551  1
  O  O296  1  0.05880718  0.91658519  0.18743129  1
  O  O297  1  0.05580764  0.91631766  0.43650692  1
  O  O298  1  0.05774032  0.91639932  0.68824138  1
  O  O299  1  0.05893488  0.91600353  0.93728305  1
  O  O300  1  0.55794032  0.24982499  0.18822287  1
  O  O301  1  0.55916571  0.25089022  0.43726598  1
  O  O302  1  0.55575946  0.25062821  0.68589103  1
  O  O303  1  0.55478491  0.25060982  0.93700695  1
  O  O304  1  0.55617211  0.58289582  0.18678545  1
  O  O305  1  0.55569271  0.58253069  0.43703482  1
  O  O306  1  0.55634137  0.58340679  0.68661434  1
  O  O307  1  0.55505532  0.58324663  0.93674934  1
  O  O308  1  0.55738878  0.91727383  0.18646490  1
  O  O309  1  0.55709293  0.91645249  0.43673555  1
  O  O310  1  0.55659343  0.91649124  0.68662690  1
  O  O311  1  0.55810635  0.91667363  0.93807530  1
  O  O312  1  0.44232682  0.08280567  0.06433562  1
  O  O313  1  0.44036204  0.08281041  0.31172671  1
  O  O314  1  0.44477628  0.08323189  0.56301457  1
  O  O315  1  0.44374405  0.08255995  0.81357182  1
  O  O316  1  0.43957511  0.41661868  0.06297512  1
  O  O317  1  0.44097504  0.41728923  0.31216031  1
  O  O318  1  0.44062560  0.41682363  0.56188596  1
  O  O319  1  0.44104961  0.41694398  0.81257248  1
  O  O320  1  0.44130870  0.75081945  0.06266850  1
  O  O321  1  0.44314713  0.74984503  0.31363858  1
  O  O322  1  0.44133089  0.75004067  0.56200680  1
  O  O323  1  0.44321202  0.75085903  0.81360120  1
  O  O324  1  0.94497360  0.08367021  0.06359894  1
  O  O325  1  0.94173339  0.08412360  0.31213919  1
  O  O326  1  0.94389637  0.08396269  0.56310308  1
  O  O327  1  0.94428823  0.08336693  0.81350526  1
  O  O328  1  0.94448017  0.41630752  0.06429761  1
  O  O329  1  0.94048132  0.41616340  0.31291813  1
  O  O330  1  0.94077795  0.41647032  0.56198662  1
  O  O331  1  0.94121221  0.41655274  0.81235974  1
  O  O332  1  0.94346135  0.74980031  0.06297991  1
  O  O333  1  0.94382205  0.74963263  0.31385111  1
  O  O334  1  0.94176006  0.74914324  0.56257967  1
  O  O335  1  0.94180829  0.74993370  0.81229070  1
  O  O336  1  0.19045718  0.08342034  0.06272238  1
  O  O337  1  0.19374304  0.08345684  0.31125831  1
  O  O338  1  0.19341559  0.08394444  0.56203428  1
  O  O339  1  0.19186114  0.08283923  0.81288000  1
  O  O340  1  0.19196226  0.41668609  0.06294476  1
  O  O341  1  0.19407715  0.41690757  0.31133052  1
  O  O342  1  0.19439333  0.41609962  0.56203711  1
  O  O343  1  0.19522978  0.41672279  0.81132366  1
  O  O344  1  0.19371356  0.74978774  0.06169233  1
  O  O345  1  0.19105735  0.75025602  0.31328700  1
  O  O346  1  0.19012821  0.74984782  0.56264065  1
  O  O347  1  0.19300221  0.75005929  0.81087518  1
  O  O348  1  0.69387980  0.08291005  0.06153313  1
  O  O349  1  0.69473358  0.08337678  0.31183189  1
  O  O350  1  0.69106868  0.08343842  0.56298532  1
  O  O351  1  0.69268180  0.08281385  0.81103968  1
  O  O352  1  0.69287304  0.41673110  0.06149478  1
  O  O353  1  0.69109160  0.41693285  0.31298317  1
  O  O354  1  0.69324773  0.41695377  0.56119973  1
  O  O355  1  0.69290325  0.41701879  0.81165729  1
  O  O356  1  0.69071449  0.75018935  0.06226803  1
  O  O357  1  0.69030328  0.74951538  0.31249241  1
  O  O358  1  0.69199454  0.74993770  0.56209757  1
  O  O359  1  0.69061178  0.75010736  0.81234584  1
  O  O360  1  0.30824151  0.24954390  0.18734082  1
  O  O361  1  0.30903497  0.25002679  0.43742716  1
  O  O362  1  0.30979730  0.24884651  0.68753487  1
  O  O363  1  0.30842006  0.24925030  0.93780157  1
  O  O364  1  0.30617486  0.58370251  0.18900349  1
  O  O365  1  0.30798187  0.58417791  0.43654452  1
  O  O366  1  0.30650069  0.58408277  0.68852681  1
  O  O367  1  0.30870939  0.58467864  0.93710392  1
  O  O368  1  0.30491998  0.91665210  0.18822296  1
  O  O369  1  0.30611592  0.91614166  0.43836171  1
  O  O370  1  0.30677739  0.91677960  0.68897941  1
  O  O371  1  0.30815360  0.91608193  0.93735586  1
  O  O372  1  0.80654756  0.24995084  0.18821010  1
  O  O373  1  0.80594050  0.25010481  0.43893044  1
  O  O374  1  0.80875422  0.24984044  0.68731590  1
  O  O375  1  0.80670876  0.24958849  0.93865944  1
  O  O376  1  0.80914028  0.58320012  0.18719413  1
  O  O377  1  0.80675409  0.58402537  0.43838169  1
  O  O378  1  0.80868760  0.58385919  0.68692394  1
  O  O379  1  0.80657680  0.58372954  0.93949724  1
  O  O380  1  0.80994475  0.91670278  0.18753893  1
  O  O381  1  0.80981350  0.91577332  0.43750096  1
  O  O382  1  0.81001118  0.91648927  0.68768974  1
  O  O383  1  0.80924908  0.91679247  0.93782180  1
  O  O384  1  0.23378482  0.24956923  0.03832331  1
  O  O385  1  0.23558681  0.25057237  0.28902682  1
  O  O386  1  0.23427487  0.25041914  0.53838958  1
  O  O387  1  0.23572161  0.25002963  0.78853932  1
  O  O388  1  0.23496704  0.58350680  0.03857437  1
  O  O389  1  0.23252761  0.58337690  0.29014717  1
  O  O390  1  0.23326516  0.58297672  0.53742295  1
  O  O391  1  0.23449284  0.58353847  0.79104217  1
  O  O392  1  0.23238034  0.91640708  0.03725195  1
  O  O393  1  0.23108111  0.91689700  0.28967501  1
  O  O394  1  0.23315697  0.91609053  0.54006155  1
  O  O395  1  0.23243249  0.91616008  0.78976303  1
  O  O396  1  0.73334630  0.24988237  0.04028157  1
  O  O397  1  0.73273947  0.24995105  0.28980770  1
  O  O398  1  0.73218953  0.25108518  0.54005344  1
  O  O399  1  0.73447616  0.25019595  0.78826007  1
  O  O400  1  0.73383920  0.58334368  0.04128890  1
  O  O401  1  0.73483764  0.58286746  0.28820811  1
  O  O402  1  0.73464749  0.58335331  0.54075612  1
  O  O403  1  0.73487588  0.58351344  0.78850402  1
  O  O404  1  0.73397199  0.91648833  0.03812042  1
  O  O405  1  0.73595528  0.91695452  0.28873731  1
  O  O406  1  0.73611693  0.91623696  0.53865965  1
  O  O407  1  0.73569383  0.91616670  0.78837500  1
  O  O408  1  0.26694896  0.08320225  0.20946086  1
  O  O409  1  0.26632539  0.08388525  0.46018352  1
  O  O410  1  0.26563720  0.08290489  0.71148623  1
  O  O411  1  0.26419317  0.08321164  0.96162267  1
  O  O412  1  0.26788717  0.41665199  0.21037874  1
  O  O413  1  0.26801755  0.41705993  0.46056825  1
  O  O414  1  0.26905286  0.41684626  0.71018117  1
  O  O415  1  0.26726718  0.41657346  0.96283851  1
  O  O416  1  0.26471963  0.74967288  0.21176659  1
  O  O417  1  0.26535458  0.74986736  0.46217731  1
  O  O418  1  0.26530752  0.74983578  0.70886673  1
  O  O419  1  0.26766914  0.75055069  0.96031679  1
  O  O420  1  0.76860831  0.08379304  0.21032776  1
  O  O421  1  0.76541142  0.08390199  0.46232779  1
  O  O422  1  0.76591426  0.08334774  0.70959968  1
  O  O423  1  0.76656941  0.08289640  0.95926195  1
  O  O424  1  0.76655745  0.41584837  0.21270358  1
  O  O425  1  0.76718040  0.41663450  0.46027499  1
  O  O426  1  0.76769605  0.41685230  0.71104641  1
  O  O427  1  0.76632860  0.41668208  0.96003408  1
  O  O428  1  0.76489182  0.75029484  0.21210115  1
  O  O429  1  0.76750401  0.74944445  0.46202621  1
  O  O430  1  0.76657786  0.75020276  0.71264305  1
  O  O431  1  0.76449082  0.75004191  0.96120080  1
  O  O432  1  0.01839284  0.08342751  0.16496248  1
  O  O433  1  0.01524765  0.08238698  0.41359411  1
  O  O434  1  0.01612807  0.08369369  0.66555447  1
  O  O435  1  0.01855858  0.08235941  0.91441782  1
  O  O436  1  0.01788581  0.41648819  0.16593614  1
  O  O437  1  0.01503179  0.41705756  0.41328018  1
  O  O438  1  0.01461316  0.41687625  0.66333851  1
  O  O439  1  0.01605152  0.41671395  0.91286917  1
  O  O440  1  0.01611716  0.74999689  0.16494298  1
  O  O441  1  0.01743972  0.75004319  0.41513055  1
  O  O442  1  0.01595184  0.74970156  0.66348658  1
  O  O443  1  0.01538657  0.75039362  0.91392196  1
  O  O444  1  0.51536513  0.08330830  0.16610261  1
  O  O445  1  0.51535868  0.08384384  0.41195121  1
  O  O446  1  0.51819560  0.08376651  0.66482715  1
  O  O447  1  0.51549888  0.08338126  0.91634806  1
  O  O448  1  0.51385169  0.41656642  0.16373070  1
  O  O449  1  0.51573049  0.41652636  0.41285418  1
  O  O450  1  0.51430101  0.41667819  0.66328751  1
  O  O451  1  0.51360182  0.41670397  0.91487475  1
  O  O452  1  0.51696349  0.75027557  0.16252821  1
  O  O453  1  0.51708332  0.74937048  0.41466236  1
  O  O454  1  0.51739250  0.75050014  0.66192883  1
  O  O455  1  0.51659426  0.75012895  0.91501019  1
  O  O456  1  0.48194991  0.24979266  0.08840998  1
  O  O457  1  0.48369270  0.25100570  0.33759257  1
  O  O458  1  0.48259285  0.24974611  0.58413135  1
  O  O459  1  0.48091586  0.24999793  0.83594982  1
  O  O460  1  0.48314453  0.58384527  0.08529223  1
  O  O461  1  0.48194918  0.58336375  0.33543495  1
  O  O462  1  0.48362885  0.58322691  0.58479407  1
  O  O463  1  0.48141523  0.58461974  0.83528645  1
  O  O464  1  0.48437810  0.91674620  0.08493453  1
  O  O465  1  0.48382529  0.91530590  0.33501261  1
  O  O466  1  0.48446267  0.91668010  0.58404448  1
  O  O467  1  0.48287301  0.91598993  0.83757098  1
  O  O468  1  0.98535978  0.25015047  0.08425568  1
  O  O469  1  0.98477260  0.25006105  0.33743061  1
  O  O470  1  0.98236626  0.25048643  0.58503567  1
  O  O471  1  0.98549787  0.24972157  0.83677900  1
  O  O472  1  0.98323639  0.58255425  0.08744022  1
  O  O473  1  0.98559541  0.58359614  0.33716923  1
  O  O474  1  0.98261070  0.58327094  0.58531533  1
  O  O475  1  0.98340611  0.58345506  0.83481640  1
  O  O476  1  0.98379874  0.91687420  0.08713073  1
  O  O477  1  0.98268646  0.91620160  0.33493318  1
  O  O478  1  0.98249519  0.91586837  0.58803808  1
  O  O479  1  0.98411974  0.91691413  0.83678117  1
  O  O480  1  0.08899170  0.31603347  0.07762222  1
  O  O481  1  0.08823516  0.31526131  0.32777073  1
  O  O482  1  0.08645187  0.31567842  0.57615482  1
  O  O483  1  0.08905805  0.31427736  0.82710228  1
  O  O484  1  0.08699757  0.64690563  0.07767964  1
  O  O485  1  0.08889180  0.64949192  0.32844804  1
  O  O486  1  0.08656854  0.64886765  0.57728621  1
  O  O487  1  0.08713246  0.64836261  0.82727158  1
  O  O488  1  0.08757515  0.98245251  0.07782882  1
  O  O489  1  0.08704654  0.98023878  0.32679670  1
  O  O490  1  0.08590474  0.98088402  0.57782284  1
  O  O491  1  0.08797867  0.98216440  0.82761421  1
  O  O492  1  0.58534478  0.31488325  0.07787607  1
  O  O493  1  0.58718548  0.31679064  0.32727479  1
  O  O494  1  0.58648260  0.31468886  0.57614113  1
  O  O495  1  0.58437950  0.31559188  0.82712770  1
  O  O496  1  0.58703056  0.64884892  0.07789401  1
  O  O497  1  0.58624910  0.64788869  0.32811319  1
  O  O498  1  0.58731436  0.64895544  0.57752996  1
  O  O499  1  0.58568747  0.64930295  0.82793054  1
  O  O500  1  0.58853198  0.98129572  0.07690474  1
  O  O501  1  0.58742808  0.98057893  0.32709446  1
  O  O502  1  0.58802594  0.98212080  0.57777985  1
  O  O503  1  0.58677580  0.98056336  0.82784502  1
  O  O504  1  0.41121046  0.01860877  0.17370458  1
  O  O505  1  0.41192803  0.01881954  0.42207287  1
  O  O506  1  0.41431784  0.01894294  0.67262826  1
  O  O507  1  0.41198741  0.01761826  0.92265811  1
  O  O508  1  0.41040426  0.35075310  0.17271473  1
  O  O509  1  0.41162522  0.35203167  0.42192413  1
  O  O510  1  0.41120142  0.35007451  0.67094796  1
  O  O511  1  0.40965401  0.35192058  0.92207205  1
  O  O512  1  0.41314036  0.68576469  0.17279405  1
  O  O513  1  0.41307272  0.68378832  0.42289557  1
  O  O514  1  0.41385518  0.68527423  0.67216024  1
  O  O515  1  0.41245557  0.68538382  0.92286051  1
  O  O516  1  0.91418616  0.01806142  0.17261346  1
  O  O517  1  0.91160325  0.01715793  0.42095309  1
  O  O518  1  0.91230051  0.01888572  0.67209354  1
  O  O519  1  0.91472827  0.01722602  0.92268058  1
  O  O520  1  0.91358911  0.35195106  0.17376735  1
  O  O521  1  0.91127121  0.35181641  0.42311666  1
  O  O522  1  0.91104754  0.35143371  0.67186128  1
  O  O523  1  0.91275234  0.35136584  0.92245836  1
  O  O524  1  0.91262123  0.68467129  0.17240786  1
  O  O525  1  0.91316285  0.68591647  0.42369966  1
  O  O526  1  0.91242250  0.68395868  0.67244537  1
  O  O527  1  0.91150225  0.68619376  0.92226946  1
  O  O528  1  0.16285407  0.01777705  0.20221504  1
  O  O529  1  0.16222939  0.01958877  0.45290272  1
  O  O530  1  0.16228693  0.01697436  0.70344935  1
  O  O531  1  0.16034997  0.01842681  0.95300564  1
  O  O532  1  0.16339609  0.35296981  0.20162812  1
  O  O533  1  0.16478073  0.35094160  0.45233126  1
  O  O534  1  0.16523671  0.35190329  0.70168517  1
  O  O535  1  0.16421481  0.35058908  0.95293764  1
  O  O536  1  0.16129459  0.68438898  0.20381746  1
  O  O537  1  0.16191620  0.68390546  0.45293081  1
  O  O538  1  0.16075434  0.68607817  0.70154783  1
  O  O539  1  0.16400597  0.68531894  0.95210710  1
  O  O540  1  0.66468131  0.01931273  0.20225482  1
  O  O541  1  0.66195409  0.01927648  0.45261042  1
  O  O542  1  0.66229439  0.01792563  0.70157247  1
  O  O543  1  0.66311907  0.01701050  0.95258067  1
  O  O544  1  0.66297354  0.35033231  0.20338027  1
  O  O545  1  0.66305266  0.35116122  0.45199868  1
  O  O546  1  0.66381456  0.35192911  0.70204474  1
  O  O547  1  0.66241453  0.35166326  0.95219435  1
  O  O548  1  0.66121370  0.68493676  0.20232543  1
  O  O549  1  0.66343841  0.68478663  0.45202513  1
  O  O550  1  0.66281279  0.68514028  0.70199586  1
  O  O551  1  0.66025511  0.68632064  0.95208074  1
  O  O552  1  0.33741233  0.31523215  0.04749917  1
  O  O553  1  0.33976551  0.31476984  0.29676991  1
  O  O554  1  0.33805830  0.31594770  0.54673577  1
  O  O555  1  0.33924730  0.31559157  0.79668320  1
  O  O556  1  0.33788498  0.64975995  0.04702837  1
  O  O557  1  0.33681285  0.64765978  0.29876962  1
  O  O558  1  0.33629357  0.64925040  0.54674263  1
  O  O559  1  0.33861311  0.64811486  0.79772886  1
  O  O560  1  0.33613944  0.98061066  0.04754388  1
  O  O561  1  0.33488307  0.98250765  0.29733777  1
  O  O562  1  0.33706726  0.98056395  0.54774409  1
  O  O563  1  0.33630441  0.98147276  0.79886670  1
  O  O564  1  0.83718217  0.31478645  0.04799356  1
  O  O565  1  0.83662980  0.31488084  0.29765035  1
  O  O566  1  0.83635854  0.31632554  0.54777407  1
  O  O567  1  0.83799433  0.31594413  0.79669770  1
  O  O568  1  0.83782443  0.64844914  0.04878613  1
  O  O569  1  0.83840473  0.64756578  0.29724781  1
  O  O570  1  0.83865845  0.64840414  0.54774099  1
  O  O571  1  0.83812596  0.64892508  0.79674216  1
  O  O572  1  0.83797157  0.98148306  0.04795406  1
  O  O573  1  0.83930805  0.98308983  0.29685455  1
  O  O574  1  0.84027043  0.98014709  0.54747941  1
  O  O575  1  0.83969700  0.98049383  0.79794833  1
  O  O576  1  0.41131358  0.14858512  0.17326647  1
  O  O577  1  0.41206749  0.14923879  0.42131263  1
  O  O578  1  0.41421893  0.14899576  0.67189540  1
  O  O579  1  0.41144289  0.14788196  0.92229283  1
  O  O580  1  0.40982688  0.48073605  0.17309982  1
  O  O581  1  0.41215082  0.48216954  0.42229593  1
  O  O582  1  0.40995042  0.48023872  0.67201876  1
  O  O583  1  0.41001925  0.48222168  0.92186852  1
  O  O584  1  0.41355480  0.81572612  0.17295259  1
  O  O585  1  0.41264415  0.81375523  0.42342130  1
  O  O586  1  0.41370928  0.81525337  0.67219909  1
  O  O587  1  0.41268247  0.81537160  0.92351687  1
  O  O588  1  0.91429383  0.14807116  0.17330291  1
  O  O589  1  0.91167819  0.14731537  0.42248479  1
  O  O590  1  0.91272100  0.14934999  0.67204419  1
  O  O591  1  0.91499735  0.14736908  0.92349833  1
  O  O592  1  0.91372199  0.48194021  0.17349919  1
  O  O593  1  0.91112746  0.48168238  0.42260457  1
  O  O594  1  0.91071167  0.48173256  0.67154365  1
  O  O595  1  0.91241057  0.48149536  0.92235411  1
  O  O596  1  0.91238060  0.81502157  0.17191595  1
  O  O597  1  0.91365037  0.81583904  0.42290277  1
  O  O598  1  0.91175311  0.81403948  0.67252102  1
  O  O599  1  0.91214460  0.81635882  0.92148670  1
  O  O600  1  0.08967877  0.18580501  0.07787067  1
  O  O601  1  0.08838736  0.18518042  0.32819869  1
  O  O602  1  0.08667462  0.18572571  0.57650719  1
  O  O603  1  0.08880132  0.18399011  0.82840812  1
  O  O604  1  0.08670419  0.51671759  0.07826289  1
  O  O605  1  0.08960686  0.51939068  0.32727102  1
  O  O606  1  0.08691791  0.51886443  0.57639605  1
  O  O607  1  0.08706523  0.51821880  0.82666319  1
  O  O608  1  0.08767804  0.85240700  0.07688393  1
  O  O609  1  0.08631300  0.85024504  0.32741793  1
  O  O610  1  0.08604584  0.85076423  0.57834258  1
  O  O611  1  0.08784247  0.85218439  0.82682556  1
  O  O612  1  0.58550976  0.18472518  0.07808578  1
  O  O613  1  0.58780604  0.18673826  0.32671952  1
  O  O614  1  0.58675624  0.18461068  0.57691436  1
  O  O615  1  0.58516730  0.18556181  0.82773230  1
  O  O616  1  0.58654106  0.51856938  0.07717668  1
  O  O617  1  0.58553491  0.51767550  0.32741278  1
  O  O618  1  0.58748545  0.51874688  0.57734572  1
  O  O619  1  0.58487258  0.51910220  0.82689688  1
  O  O620  1  0.58827914  0.85126710  0.07744236  1
  O  O621  1  0.58775969  0.85026214  0.32822351  1
  O  O622  1  0.58848757  0.85181413  0.57756107  1
  O  O623  1  0.58647426  0.85049063  0.82837167  1
  O  O624  1  0.33770244  0.18520403  0.04808689  1
  O  O625  1  0.33895813  0.18461526  0.29706289  1
  O  O626  1  0.33814411  0.18589346  0.54787287  1
  O  O627  1  0.33939242  0.18536382  0.79802140  1
  O  O628  1  0.33883838  0.51932171  0.04644623  1
  O  O629  1  0.33636620  0.51763888  0.29813832  1
  O  O630  1  0.33750345  0.51905635  0.54602669  1
  O  O631  1  0.33833964  0.51800889  0.79720278  1
  O  O632  1  0.33572827  0.85051567  0.04760668  1
  O  O633  1  0.33506434  0.85237130  0.29784311  1
  O  O634  1  0.33669651  0.85020041  0.54727082  1
  O  O635  1  0.33663260  0.85146591  0.79826319  1
  O  O636  1  0.83722146  0.18475476  0.04787995  1
  O  O637  1  0.83655296  0.18470894  0.29756268  1
  O  O638  1  0.83634403  0.18637397  0.54885481  1
  O  O639  1  0.83820456  0.18566806  0.79743864  1
  O  O640  1  0.83808416  0.51852868  0.04864855  1
  O  O641  1  0.83833449  0.51735821  0.29662044  1
  O  O642  1  0.83862220  0.51830346  0.54705833  1
  O  O643  1  0.83847597  0.51844127  0.79634449  1
  O  O644  1  0.83772595  0.85162139  0.04795413  1
  O  O645  1  0.83996005  0.85290022  0.29774840  1
  O  O646  1  0.83932885  0.84996178  0.54715607  1
  O  O647  1  0.83915961  0.85040488  0.79734512  1
  O  O648  1  0.16290266  0.14781932  0.20182591  1
  O  O649  1  0.16297184  0.14990244  0.45295869  1
  O  O650  1  0.16189315  0.14727080  0.70302186  1
  O  O651  1  0.16081834  0.14870516  0.95291000  1
  O  O652  1  0.16435079  0.48298761  0.20194121  1
  O  O653  1  0.16361660  0.48104083  0.45287587  1
  O  O654  1  0.16518415  0.48188570  0.70191015  1
  O  O655  1  0.16350716  0.48078749  0.95252171  1
  O  O656  1  0.16116221  0.81478576  0.20346788  1
  O  O657  1  0.16117877  0.81396348  0.45239130  1
  O  O658  1  0.16173223  0.81617769  0.70209977  1
  O  O659  1  0.16359279  0.81538138  0.95253437  1
  O  O660  1  0.66465203  0.14940499  0.20278926  1
  O  O661  1  0.66195723  0.14956369  0.45356593  1
  O  O662  1  0.66158206  0.14799874  0.70199219  1
  O  O663  1  0.66244782  0.14736185  0.95240894  1
  O  O664  1  0.66281516  0.48047886  0.20253961  1
  O  O665  1  0.66302140  0.48110740  0.45124859  1
  O  O666  1  0.66406674  0.48196012  0.70184808  1
  O  O667  1  0.66268468  0.48191453  0.95209829  1
  O  O668  1  0.66113748  0.81495808  0.20254585  1
  O  O669  1  0.66377936  0.81467404  0.45181176  1
  O  O670  1  0.66293058  0.81512471  0.70197257  1
  O  O671  1  0.66138297  0.81644404  0.95264490  1
