# generated using pymatgen
data_Na2MnFe(PO4)2
_symmetry_space_group_name_H-M   'P 1'
_cell_length_a   21.08773224
_cell_length_b   18.94091497
_cell_length_c   20.04644910
_cell_angle_alpha   89.99986050
_cell_angle_beta   90.00462353
_cell_angle_gamma   90.00351529
_symmetry_Int_Tables_number   1
_chemical_formula_structural   Na2MnFe(PO4)2
_chemical_formula_sum   'Na96 Mn48 Fe48 P96 O384'
_cell_volume   8006.97156666
_cell_formula_units_Z   48
loop_
 _symmetry_equiv_pos_site_id
 _symmetry_equiv_pos_as_xyz
  1  'x, y, z'
loop_
 _atom_site_type_symbol
 _atom_site_label
 _atom_site_symmetry_multiplicity
 _atom_site_fract_x
 _atom_site_fract_y
 _atom_site_fract_z
 _atom_site_occupancy
  Na  Na0  1  -0.00102707  0.00018002  0.00046988  1
  Na  Na1  1  -0.00046277  0.00109622  0.24902350  1
  Na  Na2  1  -0.00059460  0.00050144  0.49953615  1
  Na  Na3  1  -0.00195721  -0.00077428  0.75103218  1
  Na  Na4  1  -0.00079254  0.33383036  -0.00006385  1
  Na  Na5  1  -0.00047819  0.33379524  0.24985397  1
  Na  Na6  1  -0.00170565  0.33316964  0.49993018  1
  Na  Na7  1  0.00032911  0.33458360  0.74940569  1
  Na  Na8  1  0.00089698  0.66617163  0.00108041  1
  Na  Na9  1  -0.00027653  0.66586148  0.24945578  1
  Na  Na10  1  0.00080934  0.66628437  0.49942774  1
  Na  Na11  1  0.00144721  0.66647600  0.75076391  1
  Na  Na12  1  0.49846758  0.00004406  -0.00001480  1
  Na  Na13  1  0.49999667  0.00001537  0.25034338  1
  Na  Na14  1  0.49994396  -0.00024262  0.49896835  1
  Na  Na15  1  0.49844397  -0.00039542  0.75045867  1
  Na  Na16  1  0.49889783  0.33298126  -0.00028497  1
  Na  Na17  1  0.49891798  0.33298161  0.25037711  1
  Na  Na18  1  0.50048960  0.33352176  0.50066102  1
  Na  Na19  1  0.50104238  0.33407348  0.75018856  1
  Na  Na20  1  0.49907874  0.66610922  0.00037794  1
  Na  Na21  1  0.50038996  0.66667754  0.24933936  1
  Na  Na22  1  0.50338066  0.66747162  0.49987334  1
  Na  Na23  1  0.49977832  0.66573283  0.75049696  1
  Na  Na24  1  0.25053823  -0.00011662  0.12581684  1
  Na  Na25  1  0.25037858  0.00055017  0.37497537  1
  Na  Na26  1  0.25070361  0.00066237  0.62447071  1
  Na  Na27  1  0.25135798  0.00059955  0.87410562  1
  Na  Na28  1  0.25095148  0.33339810  0.12429855  1
  Na  Na29  1  0.25092622  0.33410232  0.37353502  1
  Na  Na30  1  0.25175529  0.33422783  0.62613395  1
  Na  Na31  1  0.25134961  0.33396503  0.87580092  1
  Na  Na32  1  0.24983132  0.66607617  0.12383161  1
  Na  Na33  1  0.24838019  0.66611045  0.37618979  1
  Na  Na34  1  0.24816970  0.66593441  0.62617433  1
  Na  Na35  1  0.25044022  0.66694138  0.87443610  1
  Na  Na36  1  0.75013997  0.00000050  0.12324635  1
  Na  Na37  1  0.74956757  -0.00000033  0.37503623  1
  Na  Na38  1  0.75101244  -0.00001521  0.62610874  1
  Na  Na39  1  0.75201482  0.00050437  0.87558248  1
  Na  Na40  1  0.75179551  0.33454006  0.12468868  1
  Na  Na41  1  0.75084610  0.33355869  0.37506362  1
  Na  Na42  1  0.74765441  0.33348896  0.62575934  1
  Na  Na43  1  0.74696055  0.33283759  0.87488603  1
  Na  Na44  1  0.74966563  0.66592774  0.12509526  1
  Na  Na45  1  0.74997146  0.66645177  0.37501115  1
  Na  Na46  1  0.74960375  0.66584057  0.62462686  1
  Na  Na47  1  0.75023457  0.66563008  0.87456263  1
  Na  Na48  1  -0.00255335  0.16767208  0.00021700  1
  Na  Na49  1  -0.00271993  0.16691039  0.24970040  1
  Na  Na50  1  0.00078866  0.16546607  0.49968310  1
  Na  Na51  1  0.00121948  0.16592183  0.74958547  1
  Na  Na52  1  0.00076312  0.49943133  0.00113977  1
  Na  Na53  1  0.00003244  0.49979713  0.24955144  1
  Na  Na54  1  -0.00171002  0.50054563  0.49954106  1
  Na  Na55  1  -0.00195408  0.50099130  0.75020153  1
  Na  Na56  1  0.00010854  0.83371235  0.00018939  1
  Na  Na57  1  0.00081645  0.83324645  0.24885218  1
  Na  Na58  1  -0.00030700  0.83331320  0.49959890  1
  Na  Na59  1  -0.00016273  0.83336917  0.75113818  1
  Na  Na60  1  0.49885844  0.16670547  -0.00062261  1
  Na  Na61  1  0.49936421  0.16711745  0.25027154  1
  Na  Na62  1  0.50159478  0.16640020  0.49995435  1
  Na  Na63  1  0.49851484  0.16770576  0.75089337  1
  Na  Na64  1  0.50054859  0.49984215  -0.00060946  1
  Na  Na65  1  0.50045650  0.49979477  0.24994959  1
  Na  Na66  1  0.50087716  0.50004701  0.50076599  1
  Na  Na67  1  0.50135281  0.49962501  0.75003653  1
  Na  Na68  1  0.49718554  0.83391607  0.00134085  1
  Na  Na69  1  0.49971485  0.83313128  0.24988276  1
  Na  Na70  1  0.50128522  0.83335180  0.49870137  1
  Na  Na71  1  0.49935137  0.83361827  0.75019412  1
  Na  Na72  1  0.25346450  0.16538430  0.12480829  1
  Na  Na73  1  0.24870634  0.16734554  0.37485245  1
  Na  Na74  1  0.25008968  0.16663703  0.62437171  1
  Na  Na75  1  0.25333641  0.16567265  0.87530037  1
  Na  Na76  1  0.24710552  0.50094035  0.12369558  1
  Na  Na77  1  0.24870483  0.50034713  0.37439939  1
  Na  Na78  1  0.25151525  0.49898655  0.62651147  1
  Na  Na79  1  0.25091971  0.49900392  0.87556460  1
  Na  Na80  1  0.25222078  0.83229034  0.12517840  1
  Na  Na81  1  0.25090659  0.83288768  0.37585323  1
  Na  Na82  1  0.24989219  0.83275187  0.62569885  1
  Na  Na83  1  0.24866018  0.83419257  0.87371253  1
  Na  Na84  1  0.75006605  0.16674521  0.12453805  1
  Na  Na85  1  0.75100077  0.16606576  0.37390316  1
  Na  Na86  1  0.74826969  0.16730187  0.62530344  1
  Na  Na87  1  0.74888588  0.16681650  0.87595016  1
  Na  Na88  1  0.75131251  0.50000714  0.12430139  1
  Na  Na89  1  0.75274838  0.49921684  0.37611586  1
  Na  Na90  1  0.74903683  0.50090400  0.62587430  1
  Na  Na91  1  0.74946255  0.50017002  0.87413302  1
  Na  Na92  1  0.75080551  0.83283530  0.12436307  1
  Na  Na93  1  0.74692565  0.83482456  0.37496027  1
  Na  Na94  1  0.75034905  0.83348187  0.62569917  1
  Na  Na95  1  0.75185764  0.83266675  0.87453897  1
  Mn  Mn96  1  0.39122916  0.91606717  0.87779163  1
  Mn  Mn97  1  0.60775913  0.74972290  0.87350294  1
  Mn  Mn98  1  0.60879598  0.08307931  0.37250457  1
  Mn  Mn99  1  0.64254792  0.91645002  0.74802352  1
  Mn  Mn100  1  0.14276054  0.24935574  0.99769957  1
  Mn  Mn101  1  0.35755659  0.08387173  0.50223953  1
  Mn  Mn102  1  0.39230805  0.25056105  0.37758636  1
  Mn  Mn103  1  0.10879607  0.75008614  0.12227000  1
  Mn  Mn104  1  0.85881830  0.74948677  0.75237650  1
  Mn  Mn105  1  0.10793605  0.75060551  0.37233228  1
  Mn  Mn106  1  0.60706252  0.08330046  0.87312317  1
  Mn  Mn107  1  0.10792699  0.41678843  0.62262465  1
  Mn  Mn108  1  0.39170931  0.58311668  0.12720246  1
  Mn  Mn109  1  0.89276027  0.58292884  0.12675301  1
  Mn  Mn110  1  0.14156822  0.91638568  0.49803400  1
  Mn  Mn111  1  0.60716762  0.75037519  0.12204187  1
  Mn  Mn112  1  0.35753979  0.74979689  0.75232545  1
  Mn  Mn113  1  0.39279862  0.24966445  0.62722445  1
  Mn  Mn114  1  0.14222726  0.25015881  0.24692136  1
  Mn  Mn115  1  0.89137858  0.91613075  0.37692128  1
  Mn  Mn116  1  0.89156555  0.24982780  0.62750997  1
  Mn  Mn117  1  0.85738994  0.75029651  0.50241388  1
  Mn  Mn118  1  0.85800282  0.08425738  0.75225082  1
  Mn  Mn119  1  0.89173311  0.25011885  0.37760692  1
  Mn  Mn120  1  0.85658721  0.41623862  0.75232610  1
  Mn  Mn121  1  0.39310000  0.91630430  0.37742870  1
  Mn  Mn122  1  0.89131296  0.25057396  0.87718527  1
  Mn  Mn123  1  0.14312835  0.91632409  0.24779937  1
  Mn  Mn124  1  0.10793587  0.08389717  0.87348841  1
  Mn  Mn125  1  0.60765190  0.08311455  0.62283014  1
  Mn  Mn126  1  0.35795382  0.74899683  0.50267344  1
  Mn  Mn127  1  0.10725508  0.41598560  0.37314845  1
  Mn  Mn128  1  0.64231173  0.91609712  0.99764643  1
  Mn  Mn129  1  0.35730761  0.41753265  0.25178032  1
  Mn  Mn130  1  0.60832397  0.75040593  0.62282379  1
  Mn  Mn131  1  0.89221631  0.91719374  0.12722368  1
  Mn  Mn132  1  0.64314209  0.58319943  0.24781042  1
  Mn  Mn133  1  0.14156792  0.91767029  0.74743575  1
  Mn  Mn134  1  0.39286126  0.58387064  0.62693864  1
  Mn  Mn135  1  0.64284549  0.24984276  0.24687955  1
  Mn  Mn136  1  0.60830810  0.41586133  0.12239013  1
  Mn  Mn137  1  0.14221651  0.58253722  0.74840051  1
  Mn  Mn138  1  0.14195458  0.25107948  0.49788982  1
  Mn  Mn139  1  0.60856574  0.41720073  0.37299185  1
  Mn  Mn140  1  0.14303271  0.24984548  0.74849367  1
  Mn  Mn141  1  0.85739754  0.75042048  0.25252146  1
  Mn  Mn142  1  0.39188503  0.58327321  0.37755845  1
  Mn  Mn143  1  0.10766629  0.08435073  0.12262464  1
  Fe  Fe144  1  0.10717042  0.41665803  0.87386520  1
  Fe  Fe145  1  0.89305959  0.58377285  0.37698046  1
  Fe  Fe146  1  0.85730149  0.08344603  0.50174097  1
  Fe  Fe147  1  0.39216985  0.91740507  0.12716630  1
  Fe  Fe148  1  0.10719877  0.74964806  0.87436747  1
  Fe  Fe149  1  0.64363354  0.58335186  0.49787820  1
  Fe  Fe150  1  0.10663907  0.08329703  0.37289502  1
  Fe  Fe151  1  0.85660121  0.41641370  0.50242467  1
  Fe  Fe152  1  0.35653786  0.74992776  0.00128554  1
  Fe  Fe153  1  0.35755439  0.41722107  0.50169776  1
  Fe  Fe154  1  0.14212179  0.58342143  0.24874875  1
  Fe  Fe155  1  0.39316271  0.58289174  0.87688659  1
  Fe  Fe156  1  0.89274372  0.58346669  0.87724700  1
  Fe  Fe157  1  0.60777735  0.74972854  0.37272702  1
  Fe  Fe158  1  0.14316559  0.58352602  0.99736258  1
  Fe  Fe159  1  0.85701844  0.41662361  0.00084578  1
  Fe  Fe160  1  0.10677845  0.41570349  0.12287105  1
  Fe  Fe161  1  0.60692067  0.41704145  0.87393092  1
  Fe  Fe162  1  0.85675651  0.08400879  0.00191562  1
  Fe  Fe163  1  0.89165722  0.25048512  0.12593125  1
  Fe  Fe164  1  0.89266419  0.58406106  0.62643922  1
  Fe  Fe165  1  0.64130543  0.24993894  0.74841969  1
  Fe  Fe166  1  0.60709282  0.41684876  0.62293564  1
  Fe  Fe167  1  0.64302724  0.58301774  0.99806113  1
  Fe  Fe168  1  0.85638730  0.08308479  0.25141103  1
  Fe  Fe169  1  0.10724764  0.08281236  0.62318388  1
  Fe  Fe170  1  0.85821575  0.41652482  0.25179368  1
  Fe  Fe171  1  0.85810411  0.74935130  0.00131302  1
  Fe  Fe172  1  0.64235538  0.25056483  0.99886671  1
  Fe  Fe173  1  0.39317775  0.24967927  0.12646974  1
  Fe  Fe174  1  0.35746541  0.08380040  0.75115716  1
  Fe  Fe175  1  0.14345259  0.91670451  0.99877827  1
  Fe  Fe176  1  0.64265795  0.91687605  0.49897944  1
  Fe  Fe177  1  0.35780079  0.08285146  0.00255559  1
  Fe  Fe178  1  0.89326904  0.91593877  0.87752708  1
  Fe  Fe179  1  0.14209814  0.58253815  0.49883557  1
  Fe  Fe180  1  0.39314107  0.25094146  0.87711694  1
  Fe  Fe181  1  0.35859342  0.41635999  0.75272242  1
  Fe  Fe182  1  0.10680506  0.75018432  0.62364127  1
  Fe  Fe183  1  0.64237978  0.91703231  0.24733583  1
  Fe  Fe184  1  0.89243595  0.91609816  0.62617218  1
  Fe  Fe185  1  0.64331330  0.24992355  0.49831342  1
  Fe  Fe186  1  0.35736650  0.74945639  0.25208405  1
  Fe  Fe187  1  0.64271698  0.58340415  0.74830758  1
  Fe  Fe188  1  0.60656050  0.08339812  0.12335801  1
  Fe  Fe189  1  0.39271516  0.91655380  0.62586157  1
  Fe  Fe190  1  0.35768464  0.08294831  0.25213721  1
  Fe  Fe191  1  0.35718646  0.41684125  0.00205642  1
  P  P192  1  0.05170298  0.25060629  0.10978151  1
  P  P193  1  0.05303807  0.24918180  0.35966715  1
  P  P194  1  0.05311599  0.24948542  0.61011066  1
  P  P195  1  0.05295850  0.25109258  0.86009037  1
  P  P196  1  0.05603017  0.58234303  0.11056573  1
  P  P197  1  0.05373963  0.58289068  0.36040156  1
  P  P198  1  0.05270461  0.58355670  0.60981514  1
  P  P199  1  0.05374441  0.58285087  0.86197886  1
  P  P200  1  0.05448518  0.91724049  0.10916460  1
  P  P201  1  0.05288431  0.91778584  0.35938630  1
  P  P202  1  0.05173528  0.91664712  0.61025546  1
  P  P203  1  0.05394395  0.91632347  0.86199390  1
  P  P204  1  0.55274271  0.24888955  0.10945710  1
  P  P205  1  0.55525234  0.25032431  0.36086890  1
  P  P206  1  0.55529514  0.25067946  0.61061028  1
  P  P207  1  0.55393943  0.25108709  0.86134422  1
  P  P208  1  0.55412475  0.58302355  0.10910165  1
  P  P209  1  0.55473481  0.58378163  0.36083598  1
  P  P210  1  0.55570567  0.58274315  0.61058650  1
  P  P211  1  0.55432941  0.58261176  0.86101078  1
  P  P212  1  0.55277031  0.91780260  0.11105211  1
  P  P213  1  0.55607406  0.91594071  0.36014757  1
  P  P214  1  0.55257946  0.91691303  0.60931064  1
  P  P215  1  0.55279127  0.91634328  0.86032291  1
  P  P216  1  0.44568158  0.08345968  0.13948787  1
  P  P217  1  0.44612034  0.08349512  0.38917455  1
  P  P218  1  0.44625852  0.08256185  0.64043216  1
  P  P219  1  0.44431339  0.08417938  0.88950200  1
  P  P220  1  0.44584766  0.41603508  0.13873636  1
  P  P221  1  0.44635194  0.41714715  0.39106631  1
  P  P222  1  0.44636745  0.41689991  0.63969939  1
  P  P223  1  0.44597898  0.41700514  0.88950488  1
  P  P224  1  0.44404250  0.75053456  0.13938554  1
  P  P225  1  0.44706988  0.74949751  0.38905475  1
  P  P226  1  0.44710289  0.75066222  0.63999113  1
  P  P227  1  0.44589455  0.74884010  0.89093951  1
  P  P228  1  0.94415051  0.08465443  0.13919772  1
  P  P229  1  0.94522400  0.08308252  0.38933252  1
  P  P230  1  0.94631422  0.08256270  0.63883075  1
  P  P231  1  0.94580670  0.08310883  0.89084918  1
  P  P232  1  0.94554292  0.41600177  0.13896595  1
  P  P233  1  0.94447844  0.41746306  0.38963514  1
  P  P234  1  0.94489735  0.41762212  0.63890983  1
  P  P235  1  0.94679319  0.41769866  0.89044534  1
  P  P236  1  0.94594864  0.74979502  0.13892049  1
  P  P237  1  0.94663463  0.74936337  0.38976178  1
  P  P238  1  0.94773411  0.74956148  0.63976015  1
  P  P239  1  0.94756868  0.74928893  0.89084938  1
  P  P240  1  0.19695330  0.08338569  0.23586920  1
  P  P241  1  0.19443825  0.08335295  0.48513533  1
  P  P242  1  0.19735030  0.08381220  0.73439636  1
  P  P243  1  0.19859519  0.08263309  0.98534154  1
  P  P244  1  0.19543322  0.41729525  0.23386478  1
  P  P245  1  0.19794924  0.41748884  0.48505104  1
  P  P246  1  0.19712113  0.41635202  0.73681782  1
  P  P247  1  0.19585653  0.41666476  0.98569796  1
  P  P248  1  0.19807708  0.74933830  0.23497025  1
  P  P249  1  0.19493726  0.74899081  0.48675660  1
  P  P250  1  0.19411382  0.74991170  0.73588704  1
  P  P251  1  0.19737224  0.75024204  0.98429654  1
  P  P252  1  0.69687553  0.08256589  0.23360462  1
  P  P253  1  0.69790233  0.08327666  0.48542982  1
  P  P254  1  0.69630288  0.08364823  0.73554062  1
  P  P255  1  0.69598564  0.08408132  0.98654275  1
  P  P256  1  0.69871449  0.41689243  0.23490462  1
  P  P257  1  0.69662461  0.41685736  0.48672349  1
  P  P258  1  0.69358928  0.41705271  0.73616772  1
  P  P259  1  0.69695397  0.41676535  0.98455040  1
  P  P260  1  0.69538469  0.75073090  0.23555953  1
  P  P261  1  0.69597635  0.75003048  0.48465940  1
  P  P262  1  0.69715369  0.74897786  0.73532276  1
  P  P263  1  0.69827200  0.74909819  0.98492189  1
  P  P264  1  0.30583990  0.25029460  0.01417195  1
  P  P265  1  0.30497813  0.24929089  0.26349344  1
  P  P266  1  0.30332317  0.25136411  0.51505414  1
  P  P267  1  0.30494789  0.25004418  0.76569952  1
  P  P268  1  0.30362847  0.58301972  0.01302849  1
  P  P269  1  0.30178444  0.58407571  0.26485763  1
  P  P270  1  0.30181476  0.58240459  0.51555685  1
  P  P271  1  0.30458057  0.58245216  0.76589957  1
  P  P272  1  0.30292495  0.91646404  0.01539187  1
  P  P273  1  0.30533386  0.91642662  0.26416754  1
  P  P274  1  0.30381526  0.91638866  0.51565345  1
  P  P275  1  0.30441831  0.91746211  0.76327693  1
  P  P276  1  0.80239240  0.25079478  0.01492389  1
  P  P277  1  0.80479423  0.24996542  0.26330134  1
  P  P278  1  0.80224109  0.24982437  0.51510965  1
  P  P279  1  0.80085392  0.25034174  0.76526453  1
  P  P280  1  0.80392429  0.58294522  0.01326864  1
  P  P281  1  0.80476655  0.58255124  0.26553765  1
  P  P282  1  0.80417265  0.58296171  0.51452013  1
  P  P283  1  0.80426659  0.58318036  0.76442015  1
  P  P284  1  0.80510153  0.91609824  0.01345597  1
  P  P285  1  0.80169438  0.91763241  0.26446990  1
  P  P286  1  0.80245472  0.91729100  0.51550621  1
  P  P287  1  0.80589316  0.91655330  0.76488316  1
  O  O288  1  0.05565864  0.24978431  0.18644775  1
  O  O289  1  0.05618941  0.25008801  0.43642593  1
  O  O290  1  0.05664321  0.25040865  0.68686162  1
  O  O291  1  0.05637842  0.25033179  0.93683692  1
  O  O292  1  0.05963378  0.58351839  0.18736035  1
  O  O293  1  0.05845942  0.58261990  0.43707509  1
  O  O294  1  0.05645436  0.58238983  0.68656347  1
  O  O295  1  0.05873044  0.58281648  0.93866882  1
  O  O296  1  0.05793809  0.91718656  0.18592480  1
  O  O297  1  0.05579284  0.91700013  0.43614019  1
  O  O298  1  0.05500362  0.91701295  0.68701541  1
  O  O299  1  0.05931694  0.91721056  0.93858580  1
  O  O300  1  0.55654922  0.24991944  0.18619586  1
  O  O301  1  0.56012012  0.25014461  0.43763277  1
  O  O302  1  0.55857947  0.24982857  0.68746716  1
  O  O303  1  0.55876276  0.25027538  0.93802667  1
  O  O304  1  0.55767518  0.58292441  0.18587162  1
  O  O305  1  0.55935093  0.58303422  0.43757800  1
  O  O306  1  0.55916755  0.58352546  0.68739204  1
  O  O307  1  0.55936266  0.58337696  0.93769700  1
  O  O308  1  0.55777065  0.91707971  0.18769531  1
  O  O309  1  0.56030808  0.91709569  0.43692490  1
  O  O310  1  0.55645554  0.91697271  0.68601654  1
  O  O311  1  0.55629407  0.91636262  0.93709968  1
  O  O312  1  0.44134578  0.08287971  0.06269920  1
  O  O313  1  0.44175795  0.08357641  0.31242970  1
  O  O314  1  0.44358582  0.08355677  0.56360875  1
  O  O315  1  0.44059323  0.08340446  0.81277557  1
  O  O316  1  0.44155797  0.41722530  0.06200391  1
  O  O317  1  0.44261890  0.41732990  0.31426284  1
  O  O318  1  0.44143243  0.41704434  0.56305491  1
  O  O319  1  0.44216670  0.41696838  0.81273039  1
  O  O320  1  0.43937279  0.74961754  0.06263952  1
  O  O321  1  0.44175787  0.74896881  0.31240563  1
  O  O322  1  0.44435437  0.74972814  0.56318740  1
  O  O323  1  0.44319730  0.74957063  0.81415117  1
  O  O324  1  0.93968746  0.08394894  0.06243383  1
  O  O325  1  0.94015863  0.08301051  0.31266483  1
  O  O326  1  0.94116275  0.08354620  0.56215499  1
  O  O327  1  0.94328423  0.08407934  0.81400741  1
  O  O328  1  0.94059625  0.41664133  0.06231105  1
  O  O329  1  0.94120927  0.41658161  0.31278704  1
  O  O330  1  0.94032401  0.41654195  0.56215871  1
  O  O331  1  0.94278446  0.41709960  0.81374360  1
  O  O332  1  0.94147744  0.74959625  0.06221082  1
  O  O333  1  0.94350455  0.75009856  0.31297889  1
  O  O334  1  0.94406211  0.74946941  0.56309584  1
  O  O335  1  0.94436919  0.74905244  0.81411660  1
  O  O336  1  0.19437858  0.08355124  0.06198259  1
  O  O337  1  0.19156644  0.08372111  0.31246855  1
  O  O338  1  0.19000830  0.08306901  0.56194232  1
  O  O339  1  0.19344948  0.08353421  0.81112267  1
  O  O340  1  0.19085379  0.41573599  0.06230715  1
  O  O341  1  0.19238576  0.41625433  0.31065852  1
  O  O342  1  0.19446805  0.41667133  0.56179892  1
  O  O343  1  0.19146929  0.41652925  0.81338661  1
  O  O344  1  0.19443093  0.75003169  0.06111680  1
  O  O345  1  0.19427971  0.75012635  0.31169861  1
  O  O346  1  0.19041018  0.74999509  0.56350476  1
  O  O347  1  0.18972172  0.75000157  0.81264502  1
  O  O348  1  0.69096014  0.08339023  0.06313207  1
  O  O349  1  0.69375994  0.08327037  0.31039156  1
  O  O350  1  0.69423602  0.08310531  0.56208335  1
  O  O351  1  0.69320555  0.08287702  0.81231672  1
  O  O352  1  0.69404753  0.41696469  0.06129690  1
  O  O353  1  0.69474650  0.41679415  0.31157472  1
  O  O354  1  0.69207997  0.41713895  0.56337281  1
  O  O355  1  0.68997055  0.41707098  0.81295914  1
  O  O356  1  0.69401592  0.74978986  0.06161311  1
  O  O357  1  0.69156355  0.75002103  0.31230592  1
  O  O358  1  0.69371004  0.75006418  0.56149080  1
  O  O359  1  0.69397550  0.74951671  0.81203723  1
  O  O360  1  0.30926090  0.24958273  0.18674150  1
  O  O361  1  0.30605865  0.25060590  0.43826571  1
  O  O362  1  0.30734279  0.25037318  0.68889574  1
  O  O363  1  0.30958425  0.25063887  0.93740327  1
  O  O364  1  0.30554269  0.58335162  0.18814885  1
  O  O365  1  0.30541834  0.58331282  0.43885025  1
  O  O366  1  0.30761971  0.58312260  0.68913698  1
  O  O367  1  0.30849866  0.58272548  0.93645576  1
  O  O368  1  0.30880574  0.91686349  0.18736489  1
  O  O369  1  0.30729514  0.91637553  0.43883447  1
  O  O370  1  0.30868386  0.91650729  0.68663917  1
  O  O371  1  0.30572716  0.91672251  0.93858343  1
  O  O372  1  0.80819289  0.25047808  0.18655730  1
  O  O373  1  0.80583436  0.24977273  0.43838053  1
  O  O374  1  0.80522326  0.25045114  0.68862920  1
  O  O375  1  0.80549038  0.25058272  0.93821567  1
  O  O376  1  0.80745896  0.58332960  0.18868501  1
  O  O377  1  0.80892735  0.58380339  0.43789369  1
  O  O378  1  0.80912017  0.58375870  0.68774867  1
  O  O379  1  0.80850669  0.58313742  0.93657899  1
  O  O380  1  0.80577949  0.91673734  0.18780594  1
  O  O381  1  0.80580340  0.91656313  0.43879076  1
  O  O382  1  0.81011645  0.91619354  0.68806487  1
  O  O383  1  0.80922638  0.91594901  0.93667512  1
  O  O384  1  0.23580744  0.24984627  0.03859642  1
  O  O385  1  0.23495552  0.25036421  0.28765507  1
  O  O386  1  0.23386735  0.25079984  0.54077022  1
  O  O387  1  0.23540530  0.25006119  0.79144975  1
  O  O388  1  0.23316939  0.58318475  0.03659296  1
  O  O389  1  0.23175406  0.58351633  0.28943330  1
  O  O390  1  0.23200451  0.58246619  0.54078665  1
  O  O391  1  0.23473297  0.58282982  0.79062825  1
  O  O392  1  0.23298695  0.91619493  0.04049886  1
  O  O393  1  0.23556886  0.91660417  0.28921399  1
  O  O394  1  0.23396942  0.91643204  0.54021946  1
  O  O395  1  0.23439319  0.91739997  0.78756481  1
  O  O396  1  0.73234600  0.25090786  0.03982799  1
  O  O397  1  0.73503795  0.24970915  0.28837290  1
  O  O398  1  0.73222387  0.25016761  0.53979748  1
  O  O399  1  0.73076445  0.25019719  0.78943918  1
  O  O400  1  0.73366379  0.58274243  0.03738431  1
  O  O401  1  0.73510375  0.58280231  0.29072509  1
  O  O402  1  0.73371484  0.58349492  0.53799380  1
  O  O403  1  0.73377180  0.58277135  0.78762685  1
  O  O404  1  0.73508938  0.91622725  0.03780109  1
  O  O405  1  0.73171494  0.91763890  0.28895446  1
  O  O406  1  0.73237042  0.91665822  0.54019678  1
  O  O407  1  0.73580118  0.91656025  0.78885617  1
  O  O408  1  0.26737795  0.08274301  0.21253542  1
  O  O409  1  0.26465892  0.08365630  0.46155198  1
  O  O410  1  0.26748731  0.08380344  0.71021563  1
  O  O411  1  0.26880256  0.08309348  0.96128683  1
  O  O412  1  0.26522061  0.41705802  0.20895344  1
  O  O413  1  0.26770549  0.41738054  0.45974184  1
  O  O414  1  0.26771569  0.41638938  0.71402183  1
  O  O415  1  0.26648181  0.41648097  0.96265217  1
  O  O416  1  0.26796370  0.74930554  0.21016670  1
  O  O417  1  0.26495924  0.74945978  0.46257608  1
  O  O418  1  0.26431646  0.74936515  0.71228830  1
  O  O419  1  0.26739190  0.75030694  0.95942903  1
  O  O420  1  0.76687089  0.08315580  0.20899784  1
  O  O421  1  0.76785661  0.08315971  0.46041337  1
  O  O422  1  0.76594583  0.08379520  0.71034234  1
  O  O423  1  0.76645119  0.08396007  0.96301944  1
  O  O424  1  0.76876290  0.41702513  0.21053142  1
  O  O425  1  0.76692217  0.41660104  0.46270292  1
  O  O426  1  0.76360476  0.41722827  0.71174712  1
  O  O427  1  0.76691476  0.41651189  0.95946037  1
  O  O428  1  0.76530047  0.74983979  0.21103650  1
  O  O429  1  0.76559583  0.75036149  0.45910531  1
  O  O430  1  0.76678911  0.74930128  0.71008279  1
  O  O431  1  0.76834430  0.74917921  0.96050367  1
  O  O432  1  0.01434473  0.08390262  0.16289739  1
  O  O433  1  0.01560798  0.08320890  0.41271303  1
  O  O434  1  0.01661900  0.08264307  0.66271932  1
  O  O435  1  0.01549647  0.08387861  0.91617334  1
  O  O436  1  0.01595279  0.41670940  0.16250199  1
  O  O437  1  0.01441011  0.41658708  0.41422057  1
  O  O438  1  0.01495189  0.41770454  0.66298588  1
  O  O439  1  0.01689085  0.41714777  0.91483768  1
  O  O440  1  0.01609345  0.74973469  0.16278441  1
  O  O441  1  0.01626659  0.74978190  0.41484514  1
  O  O442  1  0.01760335  0.74969518  0.66495924  1
  O  O443  1  0.01766953  0.74954302  0.91558065  1
  O  O444  1  0.51597465  0.08359956  0.16356462  1
  O  O445  1  0.51620119  0.08314382  0.41312431  1
  O  O446  1  0.51581833  0.08356326  0.66597061  1
  O  O447  1  0.51434241  0.08325775  0.91385132  1
  O  O448  1  0.51581699  0.41619312  0.16321465  1
  O  O449  1  0.51623657  0.41685657  0.41542716  1
  O  O450  1  0.51679846  0.41688942  0.66309309  1
  O  O451  1  0.51631764  0.41681662  0.91355796  1
  O  O452  1  0.51432328  0.74984368  0.16281435  1
  O  O453  1  0.51744676  0.75022013  0.41238594  1
  O  O454  1  0.51662700  0.75004643  0.66558431  1
  O  O455  1  0.51549505  0.74991770  0.91641817  1
  O  O456  1  0.48267578  0.24933724  0.08511643  1
  O  O457  1  0.48514839  0.25044934  0.33722643  1
  O  O458  1  0.48537431  0.24974288  0.58605136  1
  O  O459  1  0.48349563  0.25106651  0.83783990  1
  O  O460  1  0.48413614  0.58310015  0.08490954  1
  O  O461  1  0.48475459  0.58327084  0.33651249  1
  O  O462  1  0.48574657  0.58368020  0.58605059  1
  O  O463  1  0.48387359  0.58269725  0.83760255  1
  O  O464  1  0.48231008  0.91739428  0.08762433  1
  O  O465  1  0.48591127  0.91641829  0.33638318  1
  O  O466  1  0.48262686  0.91666616  0.58456312  1
  O  O467  1  0.48296483  0.91629912  0.83578134  1
  O  O468  1  0.98162836  0.25060122  0.08535862  1
  O  O469  1  0.98329588  0.24986716  0.33480429  1
  O  O470  1  0.98338673  0.24950836  0.58504411  1
  O  O471  1  0.98327829  0.25061637  0.83487551  1
  O  O472  1  0.98590421  0.58273074  0.08655220  1
  O  O473  1  0.98342994  0.58295040  0.33664437  1
  O  O474  1  0.98258323  0.58330515  0.58539813  1
  O  O475  1  0.98340209  0.58322249  0.83815068  1
  O  O476  1  0.98454273  0.91717999  0.08497881  1
  O  O477  1  0.98335230  0.91711617  0.33378651  1
  O  O478  1  0.98185564  0.91656785  0.58497487  1
  O  O479  1  0.98344746  0.91623067  0.83863352  1
  O  O480  1  0.08563005  0.31562879  0.07730301  1
  O  O481  1  0.08729306  0.31413591  0.32714455  1
  O  O482  1  0.08689405  0.31470855  0.57730821  1
  O  O483  1  0.08679598  0.31646170  0.82798598  1
  O  O484  1  0.08994516  0.64708173  0.07702754  1
  O  O485  1  0.08727460  0.64790077  0.32707904  1
  O  O486  1  0.08651257  0.64875100  0.57755800  1
  O  O487  1  0.08721389  0.64789531  0.82897749  1
  O  O488  1  0.08850093  0.98218527  0.07645586  1
  O  O489  1  0.08682425  0.98308981  0.32733162  1
  O  O490  1  0.08580440  0.98153102  0.57757359  1
  O  O491  1  0.08672533  0.98146492  0.82803133  1
  O  O492  1  0.58691626  0.31367552  0.07634300  1
  O  O493  1  0.58864577  0.31534634  0.32759024  1
  O  O494  1  0.58855238  0.31619168  0.57812721  1
  O  O495  1  0.58721897  0.31620670  0.82831799  1
  O  O496  1  0.58817504  0.64797254  0.07633087  1
  O  O497  1  0.58809210  0.64907578  0.32804581  1
  O  O498  1  0.59014895  0.64723884  0.57743757  1
  O  O499  1  0.58768617  0.64747947  0.82725765  1
  O  O500  1  0.58581741  0.98294412  0.07782630  1
  O  O501  1  0.58972899  0.98082473  0.32659000  1
  O  O502  1  0.58646772  0.98193282  0.57641310  1
  O  O503  1  0.58664351  0.98140627  0.82776256  1
  O  O504  1  0.41208895  0.01856815  0.17289970  1
  O  O505  1  0.41245605  0.01853235  0.42210891  1
  O  O506  1  0.41237283  0.01714969  0.67227679  1
  O  O507  1  0.41013062  0.01951046  0.92292765  1
  O  O508  1  0.41241432  0.35066433  0.17112938  1
  O  O509  1  0.41216229  0.35227264  0.42373228  1
  O  O510  1  0.41317244  0.35179195  0.67314383  1
  O  O511  1  0.41227010  0.35209326  0.92260326  1
  O  O512  1  0.41041538  0.68564579  0.17298545  1
  O  O513  1  0.41418326  0.68449662  0.42297771  1
  O  O514  1  0.41259793  0.68581676  0.67248013  1
  O  O515  1  0.41218812  0.68337505  0.92298539  1
  O  O516  1  0.91036516  0.01982896  0.17272472  1
  O  O517  1  0.91182711  0.01814605  0.42282101  1
  O  O518  1  0.91298768  0.01740060  0.67163484  1
  O  O519  1  0.91187387  0.01781207  0.92277513  1
  O  O520  1  0.91240393  0.35085620  0.17221015  1
  O  O521  1  0.91010924  0.35282373  0.42281945  1
  O  O522  1  0.91146106  0.35261389  0.67245352  1
  O  O523  1  0.91252176  0.35286094  0.92329470  1
  O  O524  1  0.91250301  0.68474733  0.17190485  1
  O  O525  1  0.91279184  0.68414599  0.42205954  1
  O  O526  1  0.91405133  0.68436465  0.67255188  1
  O  O527  1  0.91367051  0.68426393  0.92363555  1
  O  O528  1  0.16343880  0.01851262  0.20257477  1
  O  O529  1  0.16108636  0.01826116  0.45186632  1
  O  O530  1  0.16330462  0.01894932  0.70136676  1
  O  O531  1  0.16523033  0.01741634  0.95261350  1
  O  O532  1  0.16113538  0.35246179  0.20085535  1
  O  O533  1  0.16388433  0.35257732  0.45208962  1
  O  O534  1  0.16409896  0.35145329  0.70302826  1
  O  O535  1  0.16261869  0.35182409  0.95182516  1
  O  O536  1  0.16393787  0.68440155  0.20257856  1
  O  O537  1  0.16169997  0.68350652  0.45422078  1
  O  O538  1  0.16033423  0.68496752  0.70292994  1
  O  O539  1  0.16324593  0.68521203  0.95174267  1
  O  O540  1  0.66286162  0.01752639  0.20113332  1
  O  O541  1  0.66393114  0.01819253  0.45284967  1
  O  O542  1  0.66253628  0.01854609  0.70276054  1
  O  O543  1  0.66287301  0.01916287  0.95273957  1
  O  O544  1  0.66498186  0.35184865  0.20195996  1
  O  O545  1  0.66329852  0.35181353  0.45348994  1
  O  O546  1  0.65993413  0.35193687  0.70333700  1
  O  O547  1  0.66241110  0.35173820  0.95250627  1
  O  O548  1  0.66138838  0.68590570  0.20253457  1
  O  O549  1  0.66188513  0.68476144  0.45242936  1
  O  O550  1  0.66315074  0.68378098  0.70320423  1
  O  O551  1  0.66446017  0.68401260  0.95238517  1
  O  O552  1  0.33937755  0.31545293  0.04717921  1
  O  O553  1  0.33891486  0.31430199  0.29633303  1
  O  O554  1  0.33742465  0.31659072  0.54706231  1
  O  O555  1  0.33948265  0.31495127  0.79816045  1
  O  O556  1  0.33663805  0.64821559  0.04630156  1
  O  O557  1  0.33545353  0.64914235  0.29767192  1
  O  O558  1  0.33584099  0.64738164  0.54843920  1
  O  O559  1  0.33888214  0.64735809  0.79850926  1
  O  O560  1  0.33705365  0.98145914  0.04813012  1
  O  O561  1  0.33928063  0.98143124  0.29691629  1
  O  O562  1  0.33800104  0.98144410  0.54799944  1
  O  O563  1  0.33793241  0.98263692  0.79603820  1
  O  O564  1  0.83657450  0.31595143  0.04719649  1
  O  O565  1  0.83845769  0.31495826  0.29636865  1
  O  O566  1  0.83611058  0.31478232  0.54789532  1
  O  O567  1  0.83436492  0.31543127  0.79821150  1
  O  O568  1  0.83737960  0.64780042  0.04675492  1
  O  O569  1  0.83907826  0.64745828  0.29822278  1
  O  O570  1  0.83764815  0.64786509  0.54824337  1
  O  O571  1  0.83763321  0.64800205  0.79813742  1
  O  O572  1  0.83844609  0.98144045  0.04620102  1
  O  O573  1  0.83549332  0.98279986  0.29686284  1
  O  O574  1  0.83631797  0.98239543  0.54792902  1
  O  O575  1  0.83960238  0.98154416  0.79776789  1
  O  O576  1  0.41223902  0.14871518  0.17225536  1
  O  O577  1  0.41284838  0.14853426  0.42243093  1
  O  O578  1  0.41141920  0.14723419  0.67301072  1
  O  O579  1  0.41133632  0.14964162  0.92225097  1
  O  O580  1  0.41228378  0.48098559  0.17218283  1
  O  O581  1  0.41245102  0.48214957  0.42392176  1
  O  O582  1  0.41305004  0.48182327  0.67322838  1
  O  O583  1  0.41247107  0.48198459  0.92278280  1
  O  O584  1  0.41108306  0.81589137  0.17233617  1
  O  O585  1  0.41353446  0.81443091  0.42222616  1
  O  O586  1  0.41304077  0.81594056  0.67187554  1
  O  O587  1  0.41083286  0.81344430  0.92339245  1
  O  O588  1  0.91089521  0.14991239  0.17192759  1
  O  O589  1  0.91185543  0.14805979  0.42295635  1
  O  O590  1  0.91308999  0.14757780  0.67263453  1
  O  O591  1  0.91088709  0.14786149  0.92317644  1
  O  O592  1  0.91207292  0.48088292  0.17259727  1
  O  O593  1  0.91105417  0.48282298  0.42208400  1
  O  O594  1  0.91134289  0.48284108  0.67146223  1
  O  O595  1  0.91310231  0.48271120  0.92335924  1
  O  O596  1  0.91255493  0.81490030  0.17202233  1
  O  O597  1  0.91233941  0.81428290  0.42231477  1
  O  O598  1  0.91377693  0.81463136  0.67223542  1
  O  O599  1  0.91340849  0.81422137  0.92332405  1
  O  O600  1  0.08550810  0.18565387  0.07666637  1
  O  O601  1  0.08665126  0.18385398  0.32727531  1
  O  O602  1  0.08714622  0.18432028  0.57808647  1
  O  O603  1  0.08732560  0.18606292  0.82777253  1
  O  O604  1  0.08938393  0.51707102  0.07793337  1
  O  O605  1  0.08715570  0.51792938  0.32703117  1
  O  O606  1  0.08667827  0.51877358  0.57646216  1
  O  O607  1  0.08669399  0.51765111  0.82842302  1
  O  O608  1  0.08850780  0.85216426  0.07657854  1
  O  O609  1  0.08747388  0.85283272  0.32706972  1
  O  O610  1  0.08563707  0.85142106  0.57797157  1
  O  O611  1  0.08699357  0.85116901  0.82882436  1
  O  O612  1  0.58641513  0.18369637  0.07696761  1
  O  O613  1  0.58850770  0.18518651  0.32759458  1
  O  O614  1  0.58968460  0.18611856  0.57743725  1
  O  O615  1  0.58705603  0.18611517  0.82754073  1
  O  O616  1  0.58816797  0.51805401  0.07641888  1
  O  O617  1  0.58842835  0.51883724  0.32754465  1
  O  O618  1  0.58895009  0.51730120  0.57785580  1
  O  O619  1  0.58754600  0.51745776  0.82793212  1
  O  O620  1  0.58608736  0.85285144  0.07736974  1
  O  O621  1  0.58926065  0.85067593  0.32725362  1
  O  O622  1  0.58687762  0.85207952  0.57664996  1
  O  O623  1  0.58678072  0.85131047  0.82784639  1
  O  O624  1  0.33979463  0.18524767  0.04691353  1
  O  O625  1  0.33801585  0.18401390  0.29667606  1
  O  O626  1  0.33784600  0.18643085  0.54739702  1
  O  O627  1  0.33932291  0.18482646  0.79747108  1
  O  O628  1  0.33662879  0.51802507  0.04688974  1
  O  O629  1  0.33575058  0.51910235  0.29765067  1
  O  O630  1  0.33609570  0.51732904  0.54767071  1
  O  O631  1  0.33870205  0.51741024  0.79825890  1
  O  O632  1  0.33726401  0.85143739  0.04747931  1
  O  O633  1  0.33881460  0.85091547  0.29656501  1
  O  O634  1  0.33800177  0.85147715  0.54825472  1
  O  O635  1  0.33773999  0.85245978  0.79693272  1
  O  O636  1  0.83653893  0.18595103  0.04768119  1
  O  O637  1  0.83843206  0.18456490  0.29571497  1
  O  O638  1  0.83576107  0.18455093  0.54774890  1
  O  O639  1  0.83480597  0.18548966  0.79800769  1
  O  O640  1  0.83728813  0.51764425  0.04615943  1
  O  O641  1  0.83896010  0.51741208  0.29748114  1
  O  O642  1  0.83720961  0.51784703  0.54785067  1
  O  O643  1  0.83764733  0.51824080  0.79777602  1
  O  O644  1  0.83852961  0.85098814  0.04648499  1
  O  O645  1  0.83536019  0.85268609  0.29772615  1
  O  O646  1  0.83674046  0.85241725  0.54838444  1
  O  O647  1  0.83968808  0.85154858  0.79791939  1
  O  O648  1  0.16420112  0.14847828  0.20186175  1
  O  O649  1  0.16073895  0.14830375  0.45202237  1
  O  O650  1  0.16352136  0.14883403  0.70176294  1
  O  O651  1  0.16485420  0.14755299  0.95213026  1
  O  O652  1  0.16136966  0.48252612  0.20203724  1
  O  O653  1  0.16364850  0.48257904  0.45297456  1
  O  O654  1  0.16406935  0.48133528  0.70306310  1
  O  O655  1  0.16271181  0.48181245  0.95233301  1
  O  O656  1  0.16437227  0.81441649  0.20201657  1
  O  O657  1  0.16135366  0.81383258  0.45314180  1
  O  O658  1  0.16082138  0.81496145  0.70252337  1
  O  O659  1  0.16326362  0.81530204  0.95202795  1
  O  O660  1  0.66253595  0.14743665  0.20092329  1
  O  O661  1  0.66416103  0.14837123  0.45260102  1
  O  O662  1  0.66196237  0.14870980  0.70361133  1
  O  O663  1  0.66287813  0.14938868  0.95360265  1
  O  O664  1  0.66482207  0.48172955  0.20205766  1
  O  O665  1  0.66366475  0.48206679  0.45320380  1
  O  O666  1  0.65999044  0.48216510  0.70319787  1
  O  O667  1  0.66286612  0.48170240  0.95179387  1
  O  O668  1  0.66219537  0.81613576  0.20268407  1
  O  O669  1  0.66137563  0.81498181  0.45269018  1
  O  O670  1  0.66300151  0.81401517  0.70282181  1
  O  O671  1  0.66448358  0.81412238  0.95200667  1
