# generated using pymatgen
data_Na2MnFe(PO4)2
_symmetry_space_group_name_H-M   'P 1'
_cell_length_a   21.08528509
_cell_length_b   18.93804281
_cell_length_c   20.04453157
_cell_angle_alpha   89.99988704
_cell_angle_beta   89.99876670
_cell_angle_gamma   89.99787154
_symmetry_Int_Tables_number   1
_chemical_formula_structural   Na2MnFe(PO4)2
_chemical_formula_sum   'Na96 Mn48 Fe48 P96 O384'
_cell_volume   8004.06270787
_cell_formula_units_Z   48
loop_
 _symmetry_equiv_pos_site_id
 _symmetry_equiv_pos_as_xyz
  1  'x, y, z'
loop_
 _atom_site_type_symbol
 _atom_site_label
 _atom_site_symmetry_multiplicity
 _atom_site_fract_x
 _atom_site_fract_y
 _atom_site_fract_z
 _atom_site_occupancy
  Na  Na0  1  -0.00160387  -0.00107776  -0.00026027  1
  Na  Na1  1  0.00077907  -0.00020076  0.25154561  1
  Na  Na2  1  0.00240056  0.00030829  0.49956095  1
  Na  Na3  1  0.00128972  0.00004919  0.74911438  1
  Na  Na4  1  0.00053056  0.33381088  0.00078584  1
  Na  Na5  1  -0.00159702  0.33295700  0.25063001  1
  Na  Na6  1  0.00116655  0.33380987  0.49943221  1
  Na  Na7  1  -0.00016369  0.33250840  0.74919367  1
  Na  Na8  1  -0.00026430  0.66703263  -0.00105481  1
  Na  Na9  1  0.00048534  0.66716791  0.24993695  1
  Na  Na10  1  -0.00079319  0.66575373  0.50113391  1
  Na  Na11  1  -0.00034039  0.66670971  0.75008218  1
  Na  Na12  1  0.50021077  -0.00037312  -0.00055718  1
  Na  Na13  1  0.49838511  -0.00056337  0.24922260  1
  Na  Na14  1  0.49772488  -0.00068599  0.50103853  1
  Na  Na15  1  0.50023329  0.00014004  0.75008232  1
  Na  Na16  1  0.49929431  0.33352893  0.00071897  1
  Na  Na17  1  0.50234627  0.33358633  0.24944453  1
  Na  Na18  1  0.50143918  0.33368645  0.49987819  1
  Na  Na19  1  0.49705370  0.33244223  0.75002225  1
  Na  Na20  1  0.49832790  0.66639919  0.00002219  1
  Na  Na21  1  0.49946006  0.66668684  0.25082987  1
  Na  Na22  1  0.49723452  0.66585795  0.49914004  1
  Na  Na23  1  0.49664021  0.66584260  0.74964933  1
  Na  Na24  1  0.24861845  -0.00070831  0.12397674  1
  Na  Na25  1  0.24952558  -0.00003382  0.37580824  1
  Na  Na26  1  0.24891596  -0.00060181  0.62491372  1
  Na  Na27  1  0.25084445  0.00051075  0.87502516  1
  Na  Na28  1  0.25047318  0.33396904  0.12489971  1
  Na  Na29  1  0.24760880  0.33253876  0.37570019  1
  Na  Na30  1  0.25051029  0.33388054  0.62565145  1
  Na  Na31  1  0.25134266  0.33377811  0.87396549  1
  Na  Na32  1  0.24956639  0.66646370  0.12374045  1
  Na  Na33  1  0.25444930  0.66833943  0.37568410  1
  Na  Na34  1  0.25254182  0.66697023  0.62559247  1
  Na  Na35  1  0.24923123  0.66618113  0.87514151  1
  Na  Na36  1  0.75176582  -0.00006058  0.12492017  1
  Na  Na37  1  0.75127637  0.00102168  0.37562431  1
  Na  Na38  1  0.74902772  -0.00036038  0.62464572  1
  Na  Na39  1  0.75053292  -0.00084857  0.87511386  1
  Na  Na40  1  0.75036532  0.33344447  0.12460003  1
  Na  Na41  1  0.74892165  0.33302513  0.37584761  1
  Na  Na42  1  0.74964482  0.33323501  0.62589858  1
  Na  Na43  1  0.74987172  0.33271480  0.87356198  1
  Na  Na44  1  0.75104185  0.66698941  0.12525816  1
  Na  Na45  1  0.74778564  0.66515154  0.37467803  1
  Na  Na46  1  0.75071472  0.66700825  0.62572829  1
  Na  Na47  1  0.75300829  0.66805081  0.87447630  1
  Na  Na48  1  -0.00104808  0.16634795  -0.00100266  1
  Na  Na49  1  -0.00086860  0.16688386  0.25111259  1
  Na  Na50  1  -0.00029504  0.16680451  0.49942319  1
  Na  Na51  1  -0.00132616  0.16692869  0.75009301  1
  Na  Na52  1  -0.00048698  0.50031117  0.00026644  1
  Na  Na53  1  -0.00114670  0.50012587  0.25036253  1
  Na  Na54  1  0.00128362  0.49936986  0.49983167  1
  Na  Na55  1  0.00311499  0.49896384  0.74948440  1
  Na  Na56  1  0.00057560  0.83289799  0.00029163  1
  Na  Na57  1  0.00082725  0.83371577  0.25036188  1
  Na  Na58  1  0.00198582  0.83344589  0.50082496  1
  Na  Na59  1  -0.00021156  0.83359285  0.74908408  1
  Na  Na60  1  0.49826882  0.16742258  0.00095783  1
  Na  Na61  1  0.50126479  0.16618566  0.25018714  1
  Na  Na62  1  0.49985305  0.16681764  0.49935989  1
  Na  Na63  1  0.49847613  0.16683709  0.74984906  1
  Na  Na64  1  0.49915145  0.50013947  0.00040893  1
  Na  Na65  1  0.50070833  0.50036011  0.24940357  1
  Na  Na66  1  0.49977932  0.50031315  0.50018342  1
  Na  Na67  1  0.49833378  0.49997421  0.75005121  1
  Na  Na68  1  0.50008313  0.83319761  -0.00122671  1
  Na  Na69  1  0.49826075  0.83397320  0.24974692  1
  Na  Na70  1  0.49711944  0.83394550  0.50055821  1
  Na  Na71  1  0.49813873  0.83411141  0.75007236  1
  Na  Na72  1  0.24932131  0.16691100  0.12411265  1
  Na  Na73  1  0.25119791  0.16564595  0.37576134  1
  Na  Na74  1  0.25010218  0.16699406  0.62583243  1
  Na  Na75  1  0.25153425  0.16652751  0.87472865  1
  Na  Na76  1  0.25037170  0.49946084  0.12516489  1
  Na  Na77  1  0.24935108  0.49999913  0.37603022  1
  Na  Na78  1  0.25037796  0.49960704  0.62447163  1
  Na  Na79  1  0.25023694  0.49964919  0.87396965  1
  Na  Na80  1  0.24924969  0.83364562  0.12335904  1
  Na  Na81  1  0.25091325  0.83354679  0.37533880  1
  Na  Na82  1  0.25175294  0.83315776  0.62588204  1
  Na  Na83  1  0.24976834  0.83328982  0.87529666  1
  Na  Na84  1  0.75052353  0.16735666  0.12414093  1
  Na  Na85  1  0.74994211  0.16702672  0.37657894  1
  Na  Na86  1  0.74959740  0.16702248  0.62484764  1
  Na  Na87  1  0.75308814  0.16528719  0.87412803  1
  Na  Na88  1  0.75162199  0.49932425  0.12525135  1
  Na  Na89  1  0.74803702  0.50064483  0.37506758  1
  Na  Na90  1  0.74913130  0.49975078  0.62628747  1
  Na  Na91  1  0.74885702  0.50125682  0.87385593  1
  Na  Na92  1  0.75085491  0.83369260  0.12539369  1
  Na  Na93  1  0.74993502  0.83343089  0.37452212  1
  Na  Na94  1  0.75039730  0.83329873  0.62488500  1
  Na  Na95  1  0.75159376  0.83363623  0.87509594  1
  Mn  Mn96  1  0.14151144  0.24927727  0.24757880  1
  Mn  Mn97  1  0.89147358  0.58319325  0.37790213  1
  Mn  Mn98  1  0.89204050  0.24983127  0.12792048  1
  Mn  Mn99  1  0.60666527  0.41641693  0.62322324  1
  Mn  Mn100  1  0.60766666  0.74937007  0.87267710  1
  Mn  Mn101  1  0.35761270  0.41591017  0.50186049  1
  Mn  Mn102  1  0.14245860  0.25033113  0.99766515  1
  Mn  Mn103  1  0.85846795  0.41665682  0.75249838  1
  Mn  Mn104  1  0.39193667  0.91652249  0.12679536  1
  Mn  Mn105  1  0.35715703  0.08280809  0.25207402  1
  Mn  Mn106  1  0.39233760  0.25000037  0.12786079  1
  Mn  Mn107  1  0.89319009  0.91654486  0.37760027  1
  Mn  Mn108  1  0.85833599  0.74976806  0.25288903  1
  Mn  Mn109  1  0.14254875  0.58425617  0.24788920  1
  Mn  Mn110  1  0.64200635  0.24897319  0.74800666  1
  Mn  Mn111  1  0.10834078  0.74983689  0.62291797  1
  Mn  Mn112  1  0.10955365  0.74887787  0.37290337  1
  Mn  Mn113  1  0.60722233  0.08308518  0.37264085  1
  Mn  Mn114  1  0.60626485  0.75028929  0.37303259  1
  Mn  Mn115  1  0.60752567  0.08399645  0.87273053  1
  Mn  Mn116  1  0.64240289  0.24954972  0.99662680  1
  Mn  Mn117  1  0.35794164  0.41684610  0.25334789  1
  Mn  Mn118  1  0.39272543  0.25030029  0.37735360  1
  Mn  Mn119  1  0.64084388  0.91616179  0.49767319  1
  Mn  Mn120  1  0.14295486  0.58366607  0.49791863  1
  Mn  Mn121  1  0.85750382  0.74950702  0.50188005  1
  Mn  Mn122  1  0.85849993  0.08264917  0.00253259  1
  Mn  Mn123  1  0.60665450  0.75012227  0.62321896  1
  Mn  Mn124  1  0.60869149  0.41693011  0.12234941  1
  Mn  Mn125  1  0.89302447  0.91686597  0.62715164  1
  Mn  Mn126  1  0.10830610  0.08408089  0.37281483  1
  Mn  Mn127  1  0.14235839  0.24998254  0.74742374  1
  Mn  Mn128  1  0.60870239  0.08262134  0.12292894  1
  Mn  Mn129  1  0.85811361  0.41749807  0.00110037  1
  Mn  Mn130  1  0.14174043  0.58245522  0.99778898  1
  Mn  Mn131  1  0.60807347  0.75038382  0.12268457  1
  Mn  Mn132  1  0.39185740  0.58356781  0.12766467  1
  Mn  Mn133  1  0.89330261  0.58304555  0.87689481  1
  Mn  Mn134  1  0.64277495  0.58421634  0.99724767  1
  Mn  Mn135  1  0.85710843  0.41721672  0.50242639  1
  Mn  Mn136  1  0.85752296  0.08330999  0.50303454  1
  Mn  Mn137  1  0.14149519  0.91718419  0.99712372  1
  Mn  Mn138  1  0.64163772  0.58454047  0.74795784  1
  Mn  Mn139  1  0.10720426  0.41666491  0.12295626  1
  Mn  Mn140  1  0.64218385  0.91718200  0.24804888  1
  Mn  Mn141  1  0.10748801  0.08317598  0.87245145  1
  Mn  Mn142  1  0.35778521  0.08333564  0.75232786  1
  Mn  Mn143  1  0.35704266  0.74996563  0.00201084  1
  Fe  Fe144  1  0.60599977  0.41673433  0.87373305  1
  Fe  Fe145  1  0.14447008  0.91668427  0.49885473  1
  Fe  Fe146  1  0.14297691  0.91627138  0.24822880  1
  Fe  Fe147  1  0.64278964  0.91667712  0.74881983  1
  Fe  Fe148  1  0.39231424  0.25004591  0.62589608  1
  Fe  Fe149  1  0.89277597  0.91675632  0.87599779  1
  Fe  Fe150  1  0.39187465  0.58290745  0.87677448  1
  Fe  Fe151  1  0.35695207  0.41733568  0.75211334  1
  Fe  Fe152  1  0.60674650  0.08328967  0.62385043  1
  Fe  Fe153  1  0.89336351  0.91643153  0.12723967  1
  Fe  Fe154  1  0.64264382  0.58313513  0.24796591  1
  Fe  Fe155  1  0.14245344  0.24934728  0.49889731  1
  Fe  Fe156  1  0.89266203  0.58397604  0.12695790  1
  Fe  Fe157  1  0.64145133  0.58327033  0.49893915  1
  Fe  Fe158  1  0.10758151  0.41593370  0.62333069  1
  Fe  Fe159  1  0.89218250  0.25034016  0.37723096  1
  Fe  Fe160  1  0.35665695  0.74979468  0.75240148  1
  Fe  Fe161  1  0.14350776  0.58372644  0.74801308  1
  Fe  Fe162  1  0.35790061  0.75065694  0.50237423  1
  Fe  Fe163  1  0.39207462  0.91722870  0.62792334  1
  Fe  Fe164  1  0.39204437  0.58279046  0.62705614  1
  Fe  Fe165  1  0.64218669  0.25048295  0.49863585  1
  Fe  Fe166  1  0.89281346  0.25027079  0.62590628  1
  Fe  Fe167  1  0.60769653  0.41699442  0.37333536  1
  Fe  Fe168  1  0.85674314  0.41618931  0.25225390  1
  Fe  Fe169  1  0.89319817  0.25028371  0.87608796  1
  Fe  Fe170  1  0.85841042  0.75022633  0.00188167  1
  Fe  Fe171  1  0.64394938  0.24988901  0.24888394  1
  Fe  Fe172  1  0.10667079  0.41679906  0.37302228  1
  Fe  Fe173  1  0.10711754  0.75030482  0.12365195  1
  Fe  Fe174  1  0.35705211  0.75023298  0.25096576  1
  Fe  Fe175  1  0.39331899  0.58290602  0.37647343  1
  Fe  Fe176  1  0.39281216  0.91707381  0.87669793  1
  Fe  Fe177  1  0.39233732  0.25003757  0.87727583  1
  Fe  Fe178  1  0.35735970  0.41625224  0.00141527  1
  Fe  Fe179  1  0.89265294  0.58272489  0.62684144  1
  Fe  Fe180  1  0.64386044  0.91624673  0.99809408  1
  Fe  Fe181  1  0.85795401  0.08399779  0.25176852  1
  Fe  Fe182  1  0.35734330  0.08371867  0.00195245  1
  Fe  Fe183  1  0.14298233  0.91614791  0.74869082  1
  Fe  Fe184  1  0.35709891  0.08362918  0.50227506  1
  Fe  Fe185  1  0.39100849  0.91679837  0.37665179  1
  Fe  Fe186  1  0.10751750  0.08434700  0.62345204  1
  Fe  Fe187  1  0.10837484  0.41672409  0.87315651  1
  Fe  Fe188  1  0.85780936  0.75107703  0.75153624  1
  Fe  Fe189  1  0.10678773  0.74982605  0.87263372  1
  Fe  Fe190  1  0.10679833  0.08304345  0.12346661  1
  Fe  Fe191  1  0.85768108  0.08226395  0.75053319  1
  P  P192  1  0.05296917  0.24871426  0.11004339  1
  P  P193  1  0.05323586  0.25073547  0.36141046  1
  P  P194  1  0.05289070  0.24967590  0.60958772  1
  P  P195  1  0.05268273  0.25052662  0.85989881  1
  P  P196  1  0.05204572  0.58414918  0.11023338  1
  P  P197  1  0.05330942  0.58258340  0.36015132  1
  P  P198  1  0.05394076  0.58273224  0.61135981  1
  P  P199  1  0.05466036  0.58337966  0.85921178  1
  P  P200  1  0.05374662  0.91691064  0.11147662  1
  P  P201  1  0.05660247  0.91635058  0.36098827  1
  P  P202  1  0.05621491  0.91754763  0.61072830  1
  P  P203  1  0.05265843  0.91579759  0.85914487  1
  P  P204  1  0.55541567  0.24972231  0.11100923  1
  P  P205  1  0.55541472  0.25080474  0.36052233  1
  P  P206  1  0.55240334  0.24908797  0.60988419  1
  P  P207  1  0.55145508  0.25072122  0.86013600  1
  P  P208  1  0.55454813  0.58376418  0.11055343  1
  P  P209  1  0.55406647  0.58271652  0.36067307  1
  P  P210  1  0.55161962  0.58379299  0.60986737  1
  P  P211  1  0.55149733  0.58279439  0.86009685  1
  P  P212  1  0.55416511  0.91646887  0.10864969  1
  P  P213  1  0.55062578  0.91678106  0.35997772  1
  P  P214  1  0.55270240  0.91707721  0.61177478  1
  P  P215  1  0.55400333  0.91648738  0.86041372  1
  P  P216  1  0.44588791  0.08313853  0.13922805  1
  P  P217  1  0.44530255  0.08263700  0.39072302  1
  P  P218  1  0.44596730  0.08366803  0.63883183  1
  P  P219  1  0.44571563  0.08321278  0.89052825  1
  P  P220  1  0.44578985  0.41671555  0.13945889  1
  P  P221  1  0.44837623  0.41721027  0.38991361  1
  P  P222  1  0.44517047  0.41629216  0.64028493  1
  P  P223  1  0.44528817  0.41685612  0.88936985  1
  P  P224  1  0.44596136  0.75019183  0.14062304  1
  P  P225  1  0.44376315  0.75025621  0.38908955  1
  P  P226  1  0.44370502  0.75009694  0.63971003  1
  P  P227  1  0.44469634  0.74992019  0.88846440  1
  P  P228  1  0.94736692  0.08219997  0.14092477  1
  P  P229  1  0.94537173  0.08413396  0.38934342  1
  P  P230  1  0.94764663  0.08398383  0.63990813  1
  P  P231  1  0.94524488  0.08271904  0.88799448  1
  P  P232  1  0.94547228  0.41758464  0.14078530  1
  P  P233  1  0.94580830  0.41597252  0.38923448  1
  P  P234  1  0.94778171  0.41653438  0.63944166  1
  P  P235  1  0.94893058  0.41603113  0.88957345  1
  P  P236  1  0.94677537  0.75025064  0.13889930  1
  P  P237  1  0.94791125  0.74997164  0.39078266  1
  P  P238  1  0.94615816  0.74927477  0.64032106  1
  P  P239  1  0.94604389  0.75121248  0.88889163  1
  P  P240  1  0.19595463  0.08229094  0.23408588  1
  P  P241  1  0.19651550  0.08382206  0.48697627  1
  P  P242  1  0.19607031  0.08257959  0.73463230  1
  P  P243  1  0.19659114  0.08374408  0.98560405  1
  P  P244  1  0.19555758  0.41690519  0.23607745  1
  P  P245  1  0.19434787  0.41541025  0.48594647  1
  P  P246  1  0.19602369  0.41751928  0.73547172  1
  P  P247  1  0.19745890  0.41638059  0.98402231  1
  P  P248  1  0.19772343  0.75075749  0.23411387  1
  P  P249  1  0.19890455  0.75056803  0.48583581  1
  P  P250  1  0.19659573  0.74989589  0.73660658  1
  P  P251  1  0.19393593  0.74989683  0.98504815  1
  P  P252  1  0.69850624  0.08435895  0.23535927  1
  P  P253  1  0.69456568  0.08400948  0.48660357  1
  P  P254  1  0.69710385  0.08225288  0.73462105  1
  P  P255  1  0.69727519  0.08209657  0.98461749  1
  P  P256  1  0.69653389  0.41631470  0.23646716  1
  P  P257  1  0.69513773  0.41690290  0.48529638  1
  P  P258  1  0.69493442  0.41645976  0.73647037  1
  P  P259  1  0.69639795  0.41703636  0.98331846  1
  P  P260  1  0.69646390  0.74956026  0.23524488  1
  P  P261  1  0.69586009  0.74898326  0.48504262  1
  P  P262  1  0.69765628  0.75132154  0.73526592  1
  P  P263  1  0.69857479  0.75092977  0.98489812  1
  P  P264  1  0.30497067  0.25028839  0.01371734  1
  P  P265  1  0.30271513  0.24986758  0.26556166  1
  P  P266  1  0.30260184  0.24944754  0.51561063  1
  P  P267  1  0.30531942  0.25086033  0.76415858  1
  P  P268  1  0.30422438  0.58213441  0.01367045  1
  P  P269  1  0.30390707  0.58423123  0.26584632  1
  P  P270  1  0.30562030  0.58335744  0.51446402  1
  P  P271  1  0.30411930  0.58312099  0.76415255  1
  P  P272  1  0.30429780  0.91750738  0.01332371  1
  P  P273  1  0.30229464  0.91592528  0.26502534  1
  P  P274  1  0.30461027  0.91730900  0.51479740  1
  P  P275  1  0.30388530  0.91626361  0.76472005  1
  P  P276  1  0.80494299  0.25045217  0.01339782  1
  P  P277  1  0.80329596  0.25005311  0.26590606  1
  P  P278  1  0.80340924  0.25061376  0.51492883  1
  P  P279  1  0.80568731  0.24874719  0.76373495  1
  P  P280  1  0.80465553  0.58439196  0.01529388  1
  P  P281  1  0.80335021  0.58254195  0.26410009  1
  P  P282  1  0.80174527  0.58290091  0.51611177  1
  P  P283  1  0.80490247  0.58411336  0.76374125  1
  P  P284  1  0.80519813  0.91557430  0.01450273  1
  P  P285  1  0.80499091  0.91762023  0.26430166  1
  P  P286  1  0.80300276  0.91646977  0.51516008  1
  P  P287  1  0.80328043  0.91703752  0.76485993  1
  O  O288  1  0.05567779  0.24935847  0.18684614  1
  O  O289  1  0.05822153  0.24963674  0.43802035  1
  O  O290  1  0.05638575  0.24939420  0.68631599  1
  O  O291  1  0.05630260  0.25004562  0.93658327  1
  O  O292  1  0.05589354  0.58369162  0.18689442  1
  O  O293  1  0.05690855  0.58351567  0.43692756  1
  O  O294  1  0.05918143  0.58378296  0.68796663  1
  O  O295  1  0.05666771  0.58316867  0.93605114  1
  O  O296  1  0.05829786  0.91662190  0.18814503  1
  O  O297  1  0.06140611  0.91629253  0.43776383  1
  O  O298  1  0.06010670  0.91628995  0.68750698  1
  O  O299  1  0.05585221  0.91654120  0.93593398  1
  O  O300  1  0.56033943  0.24945341  0.18774907  1
  O  O301  1  0.55906022  0.25013380  0.43732644  1
  O  O302  1  0.55584761  0.24949624  0.68661330  1
  O  O303  1  0.55552372  0.25009754  0.93681125  1
  O  O304  1  0.55934761  0.58369308  0.18734259  1
  O  O305  1  0.55812610  0.58335425  0.43740720  1
  O  O306  1  0.55573653  0.58407602  0.68656624  1
  O  O307  1  0.55571639  0.58382986  0.93676074  1
  O  O308  1  0.55736238  0.91666071  0.18548520  1
  O  O309  1  0.55455087  0.91664477  0.43669990  1
  O  O310  1  0.55812465  0.91651447  0.68837695  1
  O  O311  1  0.55941985  0.91609595  0.93699717  1
  O  O312  1  0.44133684  0.08324854  0.06250438  1
  O  O313  1  0.44255014  0.08325695  0.31390222  1
  O  O314  1  0.44140698  0.08359610  0.56218942  1
  O  O315  1  0.44309776  0.08297220  0.81367559  1
  O  O316  1  0.44114169  0.41664362  0.06272588  1
  O  O317  1  0.44487951  0.41650669  0.31321523  1
  O  O318  1  0.44293166  0.41620179  0.56348128  1
  O  O319  1  0.44093090  0.41699874  0.81263643  1
  O  O320  1  0.44252999  0.75007450  0.06382585  1
  O  O321  1  0.44043386  0.75072747  0.31232127  1
  O  O322  1  0.44036036  0.75034970  0.56278822  1
  O  O323  1  0.44062980  0.75003883  0.81167803  1
  O  O324  1  0.94391844  0.08280760  0.06411154  1
  O  O325  1  0.94118991  0.08367376  0.31262084  1
  O  O326  1  0.94408594  0.08289013  0.56317338  1
  O  O327  1  0.94162299  0.08223079  0.81128140  1
  O  O328  1  0.94291629  0.41684506  0.06398514  1
  O  O329  1  0.94063873  0.41649636  0.31261053  1
  O  O330  1  0.94402523  0.41696155  0.56279243  1
  O  O331  1  0.94518605  0.41646869  0.81288039  1
  O  O332  1  0.94263148  0.75016572  0.06218208  1
  O  O333  1  0.94435827  0.75020725  0.31396967  1
  O  O334  1  0.94315045  0.75000206  0.56355952  1
  O  O335  1  0.94130168  0.75090456  0.81220268  1
  O  O336  1  0.19114649  0.08337337  0.06218615  1
  O  O337  1  0.19355303  0.08349778  0.31097446  1
  O  O338  1  0.19193543  0.08433624  0.56360243  1
  O  O339  1  0.19315660  0.08356707  0.81144538  1
  O  O340  1  0.19310968  0.41647591  0.06073992  1
  O  O341  1  0.19087592  0.41680460  0.31283193  1
  O  O342  1  0.19051605  0.41622526  0.56280290  1
  O  O343  1  0.19137566  0.41639497  0.81216988  1
  O  O344  1  0.18956231  0.74999198  0.06183359  1
  O  O345  1  0.19497896  0.74980047  0.31089819  1
  O  O346  1  0.19492162  0.74966455  0.56250247  1
  O  O347  1  0.19173996  0.74998891  0.81324331  1
  O  O348  1  0.69433484  0.08306811  0.06137375  1
  O  O349  1  0.69441485  0.08344459  0.31206300  1
  O  O350  1  0.69000940  0.08328295  0.56334465  1
  O  O351  1  0.69350819  0.08322085  0.81133701  1
  O  O352  1  0.69389279  0.41683173  0.06019825  1
  O  O353  1  0.69199287  0.41686662  0.31314182  1
  O  O354  1  0.69234219  0.41664087  0.56212871  1
  O  O355  1  0.68986183  0.41652879  0.81313141  1
  O  O356  1  0.69459397  0.75026436  0.06153195  1
  O  O357  1  0.69252019  0.74996361  0.31198614  1
  O  O358  1  0.69283696  0.74992132  0.56182039  1
  O  O359  1  0.69382878  0.75042796  0.81194438  1
  O  O360  1  0.30609354  0.25033915  0.18877073  1
  O  O361  1  0.30645326  0.25012116  0.43893384  1
  O  O362  1  0.30924827  0.24997214  0.68742872  1
  O  O363  1  0.30869488  0.25019895  0.93687950  1
  O  O364  1  0.30617471  0.58302101  0.18898452  1
  O  O365  1  0.30974385  0.58230395  0.43774524  1
  O  O366  1  0.30833252  0.58282009  0.68741868  1
  O  O367  1  0.30800596  0.58282646  0.93688583  1
  O  O368  1  0.30570164  0.91670094  0.18830414  1
  O  O369  1  0.30820602  0.91734067  0.43804218  1
  O  O370  1  0.30832899  0.91723852  0.68795441  1
  O  O371  1  0.30863642  0.91695049  0.93660244  1
  O  O372  1  0.80645960  0.25012010  0.18909258  1
  O  O373  1  0.80842266  0.25052477  0.43828213  1
  O  O374  1  0.80977553  0.25013266  0.68694484  1
  O  O375  1  0.80966033  0.25048522  0.93664125  1
  O  O376  1  0.80862995  0.58345609  0.18748328  1
  O  O377  1  0.80553553  0.58268482  0.43933092  1
  O  O378  1  0.80914348  0.58265528  0.68701424  1
  O  O379  1  0.80779355  0.58369317  0.93845739  1
  O  O380  1  0.80932569  0.91683662  0.18751416  1
  O  O381  1  0.80681292  0.91674452  0.43842760  1
  O  O382  1  0.80677782  0.91697615  0.68817693  1
  O  O383  1  0.80963031  0.91631298  0.93779001  1
  O  O384  1  0.23510661  0.25048260  0.03844097  1
  O  O385  1  0.23302023  0.24917335  0.29051571  1
  O  O386  1  0.23254982  0.25006058  0.54019444  1
  O  O387  1  0.23517964  0.25001200  0.78823411  1
  O  O388  1  0.23433164  0.58262121  0.03833548  1
  O  O389  1  0.23442109  0.58424309  0.29163643  1
  O  O390  1  0.23555470  0.58298699  0.53870231  1
  O  O391  1  0.23377845  0.58316359  0.78803584  1
  O  O392  1  0.23419182  0.91664080  0.03721865  1
  O  O393  1  0.23237484  0.91664845  0.28997518  1
  O  O394  1  0.23431121  0.91695808  0.53904633  1
  O  O395  1  0.23349195  0.91678709  0.78846374  1
  O  O396  1  0.73491131  0.25019346  0.03734327  1
  O  O397  1  0.73332199  0.25005788  0.29078278  1
  O  O398  1  0.73292962  0.25064363  0.53824848  1
  O  O399  1  0.73553491  0.24896510  0.78780840  1
  O  O400  1  0.73495314  0.58351338  0.04034297  1
  O  O401  1  0.73288904  0.58277490  0.28749934  1
  O  O402  1  0.73164872  0.58302294  0.54054781  1
  O  O403  1  0.73487457  0.58460667  0.78801615  1
  O  O404  1  0.73490537  0.91643136  0.03838730  1
  O  O405  1  0.73497640  0.91710265  0.28866238  1
  O  O406  1  0.73313959  0.91641983  0.53965872  1
  O  O407  1  0.73326262  0.91673237  0.78970518  1
  O  O408  1  0.26550278  0.08288975  0.20859317  1
  O  O409  1  0.26675476  0.08335260  0.46287898  1
  O  O410  1  0.26589244  0.08305989  0.70987318  1
  O  O411  1  0.26691686  0.08370374  0.96204257  1
  O  O412  1  0.26560453  0.41700296  0.21215100  1
  O  O413  1  0.26447325  0.41601314  0.46184070  1
  O  O414  1  0.26649472  0.41725330  0.71207670  1
  O  O415  1  0.26755784  0.41641917  0.95989465  1
  O  O416  1  0.26752819  0.75007848  0.20875311  1
  O  O417  1  0.26903535  0.75087586  0.46160809  1
  O  O418  1  0.26697498  0.74979981  0.71289810  1
  O  O419  1  0.26412781  0.75005644  0.96150448  1
  O  O420  1  0.76850258  0.08424218  0.21058185  1
  O  O421  1  0.76471206  0.08380705  0.46283879  1
  O  O422  1  0.76717826  0.08285904  0.70999871  1
  O  O423  1  0.76698495  0.08221185  0.95964102  1
  O  O424  1  0.76679290  0.41612105  0.21229739  1
  O  O425  1  0.76480551  0.41693448  0.45999673  1
  O  O426  1  0.76517671  0.41632090  0.71290009  1
  O  O427  1  0.76605587  0.41722988  0.95800072  1
  O  O428  1  0.76635823  0.75006107  0.21075947  1
  O  O429  1  0.76538457  0.74925162  0.45937864  1
  O  O430  1  0.76775425  0.75093804  0.71087718  1
  O  O431  1  0.76866659  0.75062251  0.96049344  1
  O  O432  1  0.01726387  0.08290112  0.16582060  1
  O  O433  1  0.01549555  0.08364503  0.41330488  1
  O  O434  1  0.01773291  0.08383374  0.66440004  1
  O  O435  1  0.01508757  0.08273116  0.91301058  1
  O  O436  1  0.01518250  0.41653138  0.16601959  1
  O  O437  1  0.01613908  0.41639615  0.41283666  1
  O  O438  1  0.01793134  0.41586668  0.66398038  1
  O  O439  1  0.01889386  0.41695940  0.91441849  1
  O  O440  1  0.01698545  0.75052395  0.16332400  1
  O  O441  1  0.01760639  0.74951729  0.41575638  1
  O  O442  1  0.01604508  0.74998126  0.66499954  1
  O  O443  1  0.01647324  0.74999120  0.91238337  1
  O  O444  1  0.51587227  0.08265639  0.16340644  1
  O  O445  1  0.51501577  0.08305087  0.41580310  1
  O  O446  1  0.51614946  0.08354453  0.66322318  1
  O  O447  1  0.51541927  0.08358959  0.91575819  1
  O  O448  1  0.51592748  0.41686743  0.16310272  1
  O  O449  1  0.51824662  0.41712017  0.41484402  1
  O  O450  1  0.51479901  0.41634158  0.66579146  1
  O  O451  1  0.51556230  0.41688592  0.91362166  1
  O  O452  1  0.51566039  0.75041829  0.16547671  1
  O  O453  1  0.51362961  0.74994201  0.41409501  1
  O  O454  1  0.51361942  0.75013829  0.66439845  1
  O  O455  1  0.51464579  0.74968436  0.91301208  1
  O  O456  1  0.48523515  0.25027012  0.08751669  1
  O  O457  1  0.48542232  0.24984677  0.33606768  1
  O  O458  1  0.48230470  0.25014020  0.58523030  1
  O  O459  1  0.48127045  0.24987683  0.83599540  1
  O  O460  1  0.48441758  0.58361106  0.08695142  1
  O  O461  1  0.48370497  0.58329588  0.33673074  1
  O  O462  1  0.48135794  0.58313869  0.58604221  1
  O  O463  1  0.48132911  0.58291974  0.83590200  1
  O  O464  1  0.48434559  0.91626508  0.08401294  1
  O  O465  1  0.48055678  0.91687421  0.33561463  1
  O  O466  1  0.48215114  0.91662745  0.58861414  1
  O  O467  1  0.48337010  0.91704728  0.83740605  1
  O  O468  1  0.98335609  0.24961612  0.08473249  1
  O  O469  1  0.98293441  0.25038330  0.33761502  1
  O  O470  1  0.98277021  0.25010178  0.58496099  1
  O  O471  1  0.98270292  0.24992502  0.83514660  1
  O  O472  1  0.98210153  0.58378906  0.08538466  1
  O  O473  1  0.98358602  0.58315822  0.33529714  1
  O  O474  1  0.98354375  0.58280898  0.58771494  1
  O  O475  1  0.98503009  0.58308250  0.83376219  1
  O  O476  1  0.98355823  0.91648947  0.08717586  1
  O  O477  1  0.98638153  0.91660394  0.33757662  1
  O  O478  1  0.98610989  0.91688131  0.58656301  1
  O  O479  1  0.98267272  0.91656354  0.83441411  1
  O  O480  1  0.08761658  0.31365287  0.07783465  1
  O  O481  1  0.08639396  0.31590208  0.32827054  1
  O  O482  1  0.08717336  0.31457990  0.57717528  1
  O  O483  1  0.08640353  0.31562840  0.82724563  1
  O  O484  1  0.08589389  0.64914633  0.07762275  1
  O  O485  1  0.08762760  0.64748495  0.32745435  1
  O  O486  1  0.08719019  0.64772112  0.57757428  1
  O  O487  1  0.08871568  0.64869897  0.82702985  1
  O  O488  1  0.08671618  0.98230914  0.07812773  1
  O  O489  1  0.09002538  0.98140899  0.32775978  1
  O  O490  1  0.08945589  0.98301830  0.57824457  1
  O  O491  1  0.08733450  0.98043618  0.82652840  1
  O  O492  1  0.58892452  0.31469390  0.07777926  1
  O  O493  1  0.58874051  0.31623855  0.32794451  1
  O  O494  1  0.58690077  0.31388081  0.57722952  1
  O  O495  1  0.58475680  0.31585642  0.82732397  1
  O  O496  1  0.58767883  0.64892699  0.07721217  1
  O  O497  1  0.58770112  0.64756223  0.32719900  1
  O  O498  1  0.58490673  0.64886907  0.57666603  1
  O  O499  1  0.58513986  0.64781440  0.82678460  1
  O  O500  1  0.58841065  0.98138884  0.07610321  1
  O  O501  1  0.58457778  0.98178341  0.32721681  1
  O  O502  1  0.58555201  0.98223969  0.57833536  1
  O  O503  1  0.58742693  0.98145509  0.82694985  1
  O  O504  1  0.41205382  0.01808981  0.17202339  1
  O  O505  1  0.41109466  0.01754676  0.42290117  1
  O  O506  1  0.41249329  0.01870781  0.67231229  1
  O  O507  1  0.41162985  0.01802034  0.92277971  1
  O  O508  1  0.41249190  0.35174883  0.17293569  1
  O  O509  1  0.41439232  0.35222061  0.42279004  1
  O  O510  1  0.41082300  0.35127340  0.67242886  1
  O  O511  1  0.41191448  0.35167417  0.92249858  1
  O  O512  1  0.41177360  0.68534485  0.17334221  1
  O  O513  1  0.40991186  0.68499959  0.42158198  1
  O  O514  1  0.40987561  0.68482994  0.67214402  1
  O  O515  1  0.41092796  0.68481059  0.92122963  1
  O  O516  1  0.91357106  0.01703614  0.17331485  1
  O  O517  1  0.91193068  0.01918050  0.42271662  1
  O  O518  1  0.91364738  0.01910474  0.67305927  1
  O  O519  1  0.91178502  0.01753556  0.92110006  1
  O  O520  1  0.91067556  0.35287690  0.17340689  1
  O  O521  1  0.91273334  0.35082291  0.42254554  1
  O  O522  1  0.91373533  0.35147078  0.67184374  1
  O  O523  1  0.91525175  0.35094094  0.92214320  1
  O  O524  1  0.91342778  0.68507745  0.17207185  1
  O  O525  1  0.91342999  0.68491035  0.42280063  1
  O  O526  1  0.91231406  0.68410746  0.67259777  1
  O  O527  1  0.91218872  0.68644303  0.92233549  1
  O  O528  1  0.16199021  0.01681572  0.20234581  1
  O  O529  1  0.16305151  0.01875290  0.45395004  1
  O  O530  1  0.16215897  0.01738741  0.70264326  1
  O  O531  1  0.16324496  0.01877201  0.95202463  1
  O  O532  1  0.16214082  0.35184732  0.20284090  1
  O  O533  1  0.16099642  0.35005686  0.45338893  1
  O  O534  1  0.16261258  0.35254497  0.70183936  1
  O  O535  1  0.16367835  0.35144490  0.95093033  1
  O  O536  1  0.16297705  0.68611093  0.20136969  1
  O  O537  1  0.16569231  0.68541683  0.45251213  1
  O  O538  1  0.16356092  0.68480692  0.70298558  1
  O  O539  1  0.16061037  0.68481450  0.95191591  1
  O  O540  1  0.66460848  0.01933043  0.20245361  1
  O  O541  1  0.66116679  0.01909789  0.45295480  1
  O  O542  1  0.66320217  0.01694989  0.70242173  1
  O  O543  1  0.66328155  0.01678229  0.95270150  1
  O  O544  1  0.66336756  0.35095078  0.20355260  1
  O  O545  1  0.66092923  0.35186028  0.45287863  1
  O  O546  1  0.66171676  0.35130455  0.70321344  1
  O  O547  1  0.66190399  0.35212117  0.95097211  1
  O  O548  1  0.66293010  0.68429641  0.20262955  1
  O  O549  1  0.66178828  0.68353351  0.45339781  1
  O  O550  1  0.66353012  0.68648821  0.70230392  1
  O  O551  1  0.66472245  0.68598304  0.95168364  1
  O  O552  1  0.33862919  0.31553417  0.04637422  1
  O  O553  1  0.33646004  0.31491623  0.29848539  1
  O  O554  1  0.33688656  0.31430793  0.54842139  1
  O  O555  1  0.33840587  0.31631511  0.79688047  1
  O  O556  1  0.33794880  0.64719739  0.04662556  1
  O  O557  1  0.33845483  0.64954429  0.29706742  1
  O  O558  1  0.33901888  0.64859364  0.54724447  1
  O  O559  1  0.33759156  0.64808203  0.79745580  1
  O  O560  1  0.33729699  0.98274466  0.04647636  1
  O  O561  1  0.33662655  0.98058578  0.29821623  1
  O  O562  1  0.33781755  0.98247755  0.54811502  1
  O  O563  1  0.33766224  0.98110968  0.79800810  1
  O  O564  1  0.83810929  0.31557735  0.04660383  1
  O  O565  1  0.83719634  0.31511991  0.29867372  1
  O  O566  1  0.83677955  0.31558018  0.54835959  1
  O  O567  1  0.83950289  0.31349761  0.79746929  1
  O  O568  1  0.83846526  0.64977131  0.04755109  1
  O  O569  1  0.83652827  0.64747880  0.29793744  1
  O  O570  1  0.83617818  0.64776516  0.54842235  1
  O  O571  1  0.83879731  0.64932580  0.79593210  1
  O  O572  1  0.83923140  0.98023645  0.04802725  1
  O  O573  1  0.83824907  0.98300601  0.29693032  1
  O  O574  1  0.83692134  0.98144022  0.54802376  1
  O  O575  1  0.83706078  0.98226905  0.79745893  1
  O  O576  1  0.41263382  0.14814893  0.17261115  1
  O  O577  1  0.41089813  0.14758594  0.42336803  1
  O  O578  1  0.41258119  0.14885044  0.67175070  1
  O  O579  1  0.41119008  0.14820143  0.92265722  1
  O  O580  1  0.41231254  0.48176044  0.17259730  1
  O  O581  1  0.41418193  0.48216706  0.42221460  1
  O  O582  1  0.41088102  0.48138857  0.67263835  1
  O  O583  1  0.41172678  0.48187134  0.92259245  1
  O  O584  1  0.41151182  0.81512600  0.17299859  1
  O  O585  1  0.41007816  0.81529187  0.42229663  1
  O  O586  1  0.40971324  0.81502949  0.67260708  1
  O  O587  1  0.41132036  0.81523609  0.92129168  1
  O  O588  1  0.91287070  0.14709564  0.17352120  1
  O  O589  1  0.91201828  0.14940502  0.42217646  1
  O  O590  1  0.91350580  0.14905596  0.67196036  1
  O  O591  1  0.91162580  0.14797407  0.92063845  1
  O  O592  1  0.91175330  0.48301164  0.17286271  1
  O  O593  1  0.91255635  0.48097318  0.42287369  1
  O  O594  1  0.91434644  0.48155755  0.67268005  1
  O  O595  1  0.91468156  0.48102037  0.92208156  1
  O  O596  1  0.91328909  0.81526590  0.17207935  1
  O  O597  1  0.91408510  0.81505629  0.42334163  1
  O  O598  1  0.91181742  0.81420905  0.67304190  1
  O  O599  1  0.91337431  0.81656356  0.92228017  1
  O  O600  1  0.08661271  0.18331830  0.07784137  1
  O  O601  1  0.08660939  0.18575166  0.32782854  1
  O  O602  1  0.08666868  0.18457025  0.57670028  1
  O  O603  1  0.08666655  0.18559484  0.82703244  1
  O  O604  1  0.08596221  0.51896829  0.07751762  1
  O  O605  1  0.08702640  0.51729809  0.32790903  1
  O  O606  1  0.08722666  0.51757939  0.57842545  1
  O  O607  1  0.08940478  0.51858481  0.82706850  1
  O  O608  1  0.08743860  0.85207478  0.07813687  1
  O  O609  1  0.08992459  0.85139427  0.32745318  1
  O  O610  1  0.09034230  0.85283032  0.57739495  1
  O  O611  1  0.08649466  0.85057249  0.82671697  1
  O  O612  1  0.58837251  0.18455056  0.07746826  1
  O  O613  1  0.58966613  0.18607263  0.32737198  1
  O  O614  1  0.58603321  0.18395063  0.57728406  1
  O  O615  1  0.58543161  0.18576966  0.82714449  1
  O  O616  1  0.58802888  0.51880559  0.07736990  1
  O  O617  1  0.58742186  0.51751951  0.32760074  1
  O  O618  1  0.58578501  0.51889970  0.57725031  1
  O  O619  1  0.58515415  0.51769006  0.82752640  1
  O  O620  1  0.58838486  0.85149860  0.07606434  1
  O  O621  1  0.58448179  0.85182441  0.32724390  1
  O  O622  1  0.58563602  0.85205333  0.57786726  1
  O  O623  1  0.58685822  0.85143176  0.82649044  1
  O  O624  1  0.33853208  0.18508563  0.04656249  1
  O  O625  1  0.33713679  0.18484483  0.29756462  1
  O  O626  1  0.33646278  0.18438708  0.54832864  1
  O  O627  1  0.33932077  0.18616289  0.79755362  1
  O  O628  1  0.33771235  0.51692129  0.04633283  1
  O  O629  1  0.33850261  0.51954994  0.29878581  1
  O  O630  1  0.33925758  0.51840158  0.54786019  1
  O  O631  1  0.33755299  0.51804086  0.79743593  1
  O  O632  1  0.33787937  0.85254497  0.04656343  1
  O  O633  1  0.33596154  0.85059144  0.29735670  1
  O  O634  1  0.33831802  0.85239949  0.54790930  1
  O  O635  1  0.33717181  0.85111469  0.79765629  1
  O  O636  1  0.83848828  0.18539913  0.04660477  1
  O  O637  1  0.83741923  0.18505745  0.29844501  1
  O  O638  1  0.83693321  0.18574430  0.54839923  1
  O  O639  1  0.83914890  0.18330037  0.79595295  1
  O  O640  1  0.83930463  0.51962427  0.04778031  1
  O  O641  1  0.83621794  0.51730964  0.29748043  1
  O  O642  1  0.83568130  0.51787006  0.54892382  1
  O  O643  1  0.83811124  0.51904697  0.79737950  1
  O  O644  1  0.83840729  0.85031468  0.04759294  1
  O  O645  1  0.83882431  0.85266300  0.29744216  1
  O  O646  1  0.83705978  0.85144629  0.54757296  1
  O  O647  1  0.83759795  0.85220281  0.79766264  1
  O  O648  1  0.16108287  0.14686073  0.20144731  1
  O  O649  1  0.16335390  0.14891599  0.45332616  1
  O  O650  1  0.16172458  0.14747438  0.70186425  1
  O  O651  1  0.16347448  0.14880647  0.95211534  1
  O  O652  1  0.16219515  0.48204068  0.20285397  1
  O  O653  1  0.16041356  0.48020439  0.45270143  1
  O  O654  1  0.16275617  0.48263524  0.70242130  1
  O  O655  1  0.16353504  0.48131964  0.95112532  1
  O  O656  1  0.16372281  0.81606283  0.20200926  1
  O  O657  1  0.16505934  0.81550694  0.45333340  1
  O  O658  1  0.16359524  0.81505191  0.70323630  1
  O  O659  1  0.16027724  0.81476534  0.95171408  1
  O  O660  1  0.66477734  0.14954943  0.20291728  1
  O  O661  1  0.66144477  0.14943498  0.45389234  1
  O  O662  1  0.66264152  0.14696698  0.70167137  1
  O  O663  1  0.66325928  0.14699234  0.95158307  1
  O  O664  1  0.66317269  0.48125524  0.20288126  1
  O  O665  1  0.66091209  0.48207775  0.45306762  1
  O  O666  1  0.66162226  0.48157202  0.70324274  1
  O  O667  1  0.66184831  0.48208648  0.95132395  1
  O  O668  1  0.66258425  0.81468951  0.20261506  1
  O  O669  1  0.66145838  0.81389410  0.45239556  1
  O  O670  1  0.66392031  0.81653261  0.70281770  1
  O  O671  1  0.66479766  0.81606487  0.95229614  1
