# generated using pymatgen
data_Na2MnFe(PO4)2
_symmetry_space_group_name_H-M   'P 1'
_cell_length_a   21.08207512
_cell_length_b   18.93392271
_cell_length_c   20.04184078
_cell_angle_alpha   89.99977337
_cell_angle_beta   90.00318686
_cell_angle_gamma   90.00049774
_symmetry_Int_Tables_number   1
_chemical_formula_structural   Na2MnFe(PO4)2
_chemical_formula_sum   'Na96 Mn48 Fe48 P96 O384'
_cell_volume   8000.02903591
_cell_formula_units_Z   48
loop_
 _symmetry_equiv_pos_site_id
 _symmetry_equiv_pos_as_xyz
  1  'x, y, z'
loop_
 _atom_site_type_symbol
 _atom_site_label
 _atom_site_symmetry_multiplicity
 _atom_site_fract_x
 _atom_site_fract_y
 _atom_site_fract_z
 _atom_site_occupancy
  Na  Na0  1  0.00013813  -0.00014510  0.00114910  1
  Na  Na1  1  0.00013056  0.00034292  0.24943147  1
  Na  Na2  1  0.00005172  -0.00060405  0.49947087  1
  Na  Na3  1  0.00201441  0.00072820  0.75061566  1
  Na  Na4  1  0.00037336  0.33398792  -0.00021772  1
  Na  Na5  1  0.00024482  0.33385036  0.24921222  1
  Na  Na6  1  -0.00058381  0.33341515  0.50014582  1
  Na  Na7  1  -0.00035199  0.33330030  0.75093397  1
  Na  Na8  1  -0.00075102  0.66616952  0.00069826  1
  Na  Na9  1  0.00206130  0.66782025  0.24918938  1
  Na  Na10  1  -0.00081659  0.66668471  0.49996356  1
  Na  Na11  1  -0.00210938  0.66607505  0.74963767  1
  Na  Na12  1  0.49829287  -0.00099593  0.00033738  1
  Na  Na13  1  0.49958401  -0.00014176  0.25053536  1
  Na  Na14  1  0.50025392  0.00053578  0.49864165  1
  Na  Na15  1  0.49890977  -0.00102253  0.75060553  1
  Na  Na16  1  0.49976189  0.33365752  0.00005312  1
  Na  Na17  1  0.49906436  0.33336339  0.24892869  1
  Na  Na18  1  0.49947998  0.33415084  0.50001965  1
  Na  Na19  1  0.49804338  0.33292051  0.75096659  1
  Na  Na20  1  0.50015886  0.66694196  0.00043631  1
  Na  Na21  1  0.49675747  0.66511922  0.25008512  1
  Na  Na22  1  0.50006108  0.66707587  0.49982592  1
  Na  Na23  1  0.50118458  0.66736288  0.74959019  1
  Na  Na24  1  0.25049398  -0.00012890  0.12391400  1
  Na  Na25  1  0.24980009  -0.00062402  0.37502621  1
  Na  Na26  1  0.24895884  -0.00086057  0.62505843  1
  Na  Na27  1  0.25033742  0.00000865  0.87575656  1
  Na  Na28  1  0.25181114  0.33410540  0.12582501  1
  Na  Na29  1  0.25341725  0.33440451  0.37378120  1
  Na  Na30  1  0.25039667  0.33340964  0.62426108  1
  Na  Na31  1  0.25018955  0.33394632  0.87578121  1
  Na  Na32  1  0.25138241  0.66710426  0.12610252  1
  Na  Na33  1  0.25040144  0.66673668  0.37370596  1
  Na  Na34  1  0.24938028  0.66638214  0.62397716  1
  Na  Na35  1  0.24997777  0.66668254  0.87576467  1
  Na  Na36  1  0.75092097  0.00048926  0.12505051  1
  Na  Na37  1  0.75201499  0.00075541  0.37566106  1
  Na  Na38  1  0.74869651  -0.00107156  0.62362815  1
  Na  Na39  1  0.75102275  0.00081633  0.87584182  1
  Na  Na40  1  0.74849633  0.33379636  0.12536212  1
  Na  Na41  1  0.74742610  0.33318414  0.37460753  1
  Na  Na42  1  0.75151480  0.33463639  0.62483888  1
  Na  Na43  1  0.75009053  0.33377423  0.87624149  1
  Na  Na44  1  0.75062184  0.66728472  0.12486768  1
  Na  Na45  1  0.75002039  0.66644088  0.37429181  1
  Na  Na46  1  0.75102441  0.66686964  0.62586670  1
  Na  Na47  1  0.75063228  0.66687753  0.87430023  1
  Na  Na48  1  0.00174080  0.16659715  0.00019122  1
  Na  Na49  1  0.00084583  0.16624567  0.24920312  1
  Na  Na50  1  0.00126122  0.16606978  0.49941467  1
  Na  Na51  1  0.00174486  0.16694600  0.75117611  1
  Na  Na52  1  -0.00072620  0.50015567  0.00091332  1
  Na  Na53  1  0.00085299  0.49942717  0.24948440  1
  Na  Na54  1  -0.00124940  0.50052597  0.49950885  1
  Na  Na55  1  -0.00234584  0.50081145  0.75045336  1
  Na  Na56  1  -0.00073529  0.83315487  0.00061347  1
  Na  Na57  1  0.00050878  0.83261054  0.24907708  1
  Na  Na58  1  -0.00092263  0.83328653  0.50072383  1
  Na  Na59  1  -0.00039852  0.83286481  0.74946649  1
  Na  Na60  1  0.50110995  0.16664506  0.00038367  1
  Na  Na61  1  0.49889769  0.16744812  0.25010401  1
  Na  Na62  1  0.49990718  0.16678867  0.49899918  1
  Na  Na63  1  0.50171255  0.16586489  0.75107694  1
  Na  Na64  1  0.49885754  0.50037182  -0.00094583  1
  Na  Na65  1  0.50033225  0.49935238  0.25023412  1
  Na  Na66  1  0.49991683  0.50009241  0.49978114  1
  Na  Na67  1  0.49930694  0.50023398  0.75079046  1
  Na  Na68  1  0.49754213  0.83387501  0.00116250  1
  Na  Na69  1  0.49872201  0.83241145  0.24962459  1
  Na  Na70  1  0.49836299  0.83311319  0.49938791  1
  Na  Na71  1  0.49835941  0.83321074  0.74951686  1
  Na  Na72  1  0.25018593  0.16727873  0.12563838  1
  Na  Na73  1  0.25246580  0.16602108  0.37465203  1
  Na  Na74  1  0.24783821  0.16763110  0.62367570  1
  Na  Na75  1  0.24798287  0.16749511  0.87566868  1
  Na  Na76  1  0.25160514  0.49975908  0.12504180  1
  Na  Na77  1  0.25139913  0.50053099  0.37407735  1
  Na  Na78  1  0.25143885  0.49963390  0.62388062  1
  Na  Na79  1  0.25123114  0.49925567  0.87635018  1
  Na  Na80  1  0.25104687  0.83277232  0.12513747  1
  Na  Na81  1  0.25025072  0.83308942  0.37397761  1
  Na  Na82  1  0.25052277  0.83284021  0.62546719  1
  Na  Na83  1  0.25079397  0.83315079  0.87533132  1
  Na  Na84  1  0.74838096  0.16718692  0.12479323  1
  Na  Na85  1  0.74928641  0.16633665  0.37548416  1
  Na  Na86  1  0.74810583  0.16727087  0.62465892  1
  Na  Na87  1  0.75002853  0.16606408  0.87547911  1
  Na  Na88  1  0.74895131  0.50007345  0.12501877  1
  Na  Na89  1  0.74901069  0.50011342  0.37440993  1
  Na  Na90  1  0.75058287  0.50033411  0.62494262  1
  Na  Na91  1  0.75209607  0.49932016  0.87552632  1
  Na  Na92  1  0.75168207  0.83227805  0.12563729  1
  Na  Na93  1  0.75117029  0.83259625  0.37471999  1
  Na  Na94  1  0.75271138  0.83145580  0.62462867  1
  Na  Na95  1  0.75032390  0.83275992  0.87528628  1
  Mn  Mn96  1  0.14224077  0.58320562  0.49755497  1
  Mn  Mn97  1  0.39186133  0.58422155  0.87699401  1
  Mn  Mn98  1  0.64136802  0.25087196  0.49771190  1
  Mn  Mn99  1  0.89250461  0.58395323  0.37664413  1
  Mn  Mn100  1  0.89273622  0.91675794  0.12747361  1
  Mn  Mn101  1  0.39145201  0.24917399  0.87752971  1
  Mn  Mn102  1  0.14355688  0.25026324  0.24759792  1
  Mn  Mn103  1  0.89243760  0.25024169  0.87797060  1
  Mn  Mn104  1  0.60809608  0.08187333  0.87307096  1
  Mn  Mn105  1  0.14223441  0.91584887  0.49745879  1
  Mn  Mn106  1  0.85800746  0.08345738  0.75181802  1
  Mn  Mn107  1  0.10771904  0.41764064  0.87305021  1
  Mn  Mn108  1  0.39191032  0.24906514  0.62783259  1
  Mn  Mn109  1  0.89248239  0.58310731  0.12729745  1
  Mn  Mn110  1  0.14314212  0.91667894  0.99787212  1
  Mn  Mn111  1  0.60757179  0.41733971  0.87294541  1
  Mn  Mn112  1  0.64229844  0.25026078  0.74788527  1
  Mn  Mn113  1  0.89233070  0.91720464  0.62778279  1
  Mn  Mn114  1  0.35747760  0.74918344  0.75247391  1
  Mn  Mn115  1  0.39174174  0.91630883  0.37707075  1
  Mn  Mn116  1  0.64324344  0.58313170  0.74816900  1
  Mn  Mn117  1  0.60708478  0.74995276  0.12313461  1
  Mn  Mn118  1  0.89218552  0.91652599  0.87731082  1
  Mn  Mn119  1  0.35810869  0.08379476  0.00301973  1
  Mn  Mn120  1  0.10715755  0.74992779  0.62286460  1
  Mn  Mn121  1  0.10811272  0.08300044  0.87306059  1
  Mn  Mn122  1  0.10800603  0.08282928  0.37193166  1
  Mn  Mn123  1  0.10853846  0.41702157  0.37228374  1
  Mn  Mn124  1  0.35716616  0.08409922  0.75188288  1
  Mn  Mn125  1  0.35809976  0.08276634  0.50309151  1
  Mn  Mn126  1  0.10754416  0.74944290  0.87332593  1
  Mn  Mn127  1  0.60808932  0.75070003  0.62237071  1
  Mn  Mn128  1  0.85800008  0.08329245  0.50292926  1
  Mn  Mn129  1  0.14272755  0.25085355  0.49684057  1
  Mn  Mn130  1  0.14300708  0.58298211  0.99805923  1
  Mn  Mn131  1  0.64220970  0.91526182  0.49758028  1
  Mn  Mn132  1  0.89247292  0.24994699  0.62737150  1
  Mn  Mn133  1  0.64189693  0.91609507  0.99825301  1
  Mn  Mn134  1  0.89150538  0.24971443  0.37651657  1
  Mn  Mn135  1  0.89205582  0.25016039  0.12716608  1
  Mn  Mn136  1  0.64155932  0.91644956  0.74770855  1
  Mn  Mn137  1  0.10776614  0.41674324  0.62291389  1
  Mn  Mn138  1  0.39206045  0.58390249  0.62754921  1
  Mn  Mn139  1  0.64298832  0.91709493  0.24794098  1
  Mn  Mn140  1  0.64164754  0.58351763  0.24744787  1
  Mn  Mn141  1  0.60773164  0.41632612  0.62335846  1
  Mn  Mn142  1  0.85721972  0.41731513  0.50161803  1
  Mn  Mn143  1  0.60753483  0.08330377  0.37189631  1
  Fe  Fe144  1  0.85735276  0.08370833  0.00228309  1
  Fe  Fe145  1  0.39320648  0.24976497  0.12661818  1
  Fe  Fe146  1  0.60691411  0.74946411  0.37323670  1
  Fe  Fe147  1  0.35762039  0.41678891  0.00253789  1
  Fe  Fe148  1  0.35825011  0.41711516  0.25144290  1
  Fe  Fe149  1  0.60715867  0.08324159  0.12409587  1
  Fe  Fe150  1  0.85647716  0.41630200  0.25162747  1
  Fe  Fe151  1  0.89189301  0.58291024  0.62669916  1
  Fe  Fe152  1  0.60636535  0.41735264  0.37304447  1
  Fe  Fe153  1  0.35825751  0.41728705  0.50183869  1
  Fe  Fe154  1  0.35652305  0.41671666  0.75124836  1
  Fe  Fe155  1  0.64250524  0.25038788  0.99890542  1
  Fe  Fe156  1  0.10787178  0.74986475  0.12303897  1
  Fe  Fe157  1  0.35654579  0.75013450  0.25194655  1
  Fe  Fe158  1  0.39346462  0.25056860  0.37635270  1
  Fe  Fe159  1  0.64261565  0.58377209  0.49848281  1
  Fe  Fe160  1  0.64170944  0.24978506  0.24808552  1
  Fe  Fe161  1  0.14277260  0.91635463  0.24814081  1
  Fe  Fe162  1  0.14293352  0.91653482  0.74834206  1
  Fe  Fe163  1  0.39194261  0.91626398  0.87628925  1
  Fe  Fe164  1  0.35814286  0.74922624  0.00203075  1
  Fe  Fe165  1  0.64264539  0.58343922  0.99850910  1
  Fe  Fe166  1  0.89334161  0.91648504  0.37585280  1
  Fe  Fe167  1  0.10806270  0.41653916  0.12349044  1
  Fe  Fe168  1  0.60707643  0.08284478  0.62379959  1
  Fe  Fe169  1  0.85738070  0.08385960  0.25134288  1
  Fe  Fe170  1  0.14393271  0.58337930  0.24824884  1
  Fe  Fe171  1  0.39239926  0.91707960  0.62657553  1
  Fe  Fe172  1  0.60720093  0.75039348  0.87414094  1
  Fe  Fe173  1  0.85740343  0.74998499  0.75263096  1
  Fe  Fe174  1  0.39290351  0.58319412  0.12666951  1
  Fe  Fe175  1  0.10758919  0.75019329  0.37310923  1
  Fe  Fe176  1  0.14175196  0.58301784  0.74841247  1
  Fe  Fe177  1  0.10797544  0.08378359  0.12358224  1
  Fe  Fe178  1  0.85791098  0.41657891  0.75228032  1
  Fe  Fe179  1  0.35750857  0.08324568  0.25078290  1
  Fe  Fe180  1  0.14341151  0.25075072  0.99957988  1
  Fe  Fe181  1  0.85827424  0.74994265  0.25247851  1
  Fe  Fe182  1  0.10799770  0.08341999  0.62346608  1
  Fe  Fe183  1  0.14237873  0.25051777  0.74816059  1
  Fe  Fe184  1  0.85654354  0.41651834  0.00266576  1
  Fe  Fe185  1  0.89223977  0.58347230  0.87744157  1
  Fe  Fe186  1  0.39244538  0.91708986  0.12754286  1
  Fe  Fe187  1  0.35724677  0.74965491  0.50118149  1
  Fe  Fe188  1  0.85735777  0.74930736  0.50084020  1
  Fe  Fe189  1  0.60660892  0.41659410  0.12311646  1
  Fe  Fe190  1  0.85682849  0.74988063  0.00158484  1
  Fe  Fe191  1  0.39285974  0.58298804  0.37696617  1
  P  P192  1  0.05451551  0.25049467  0.10966500  1
  P  P193  1  0.05328501  0.25023481  0.35906860  1
  P  P194  1  0.05497161  0.24970006  0.61081050  1
  P  P195  1  0.05552108  0.25070575  0.86116631  1
  P  P196  1  0.05548879  0.58315454  0.11148497  1
  P  P197  1  0.05442557  0.58434331  0.35886117  1
  P  P198  1  0.05272149  0.58313617  0.61078663  1
  P  P199  1  0.05227059  0.58343677  0.85978646  1
  P  P200  1  0.05552064  0.91646500  0.11141224  1
  P  P201  1  0.05311983  0.91548926  0.35899098  1
  P  P202  1  0.05476080  0.91723489  0.61110389  1
  P  P203  1  0.05410012  0.91599657  0.85967893  1
  P  P204  1  0.55401123  0.25000326  0.11098604  1
  P  P205  1  0.55272592  0.25133890  0.35913805  1
  P  P206  1  0.55285303  0.24934334  0.61021961  1
  P  P207  1  0.55443596  0.25022276  0.86151985  1
  P  P208  1  0.55257806  0.58249162  0.10960512  1
  P  P209  1  0.55327019  0.58378207  0.36128217  1
  P  P210  1  0.55408435  0.58336745  0.60947891  1
  P  P211  1  0.55454963  0.58459722  0.86124142  1
  P  P212  1  0.55191670  0.91720392  0.11083441  1
  P  P213  1  0.55322929  0.91498454  0.35963477  1
  P  P214  1  0.55179702  0.91720706  0.60951485  1
  P  P215  1  0.55175924  0.91503905  0.86046378  1
  P  P216  1  0.44735447  0.08352209  0.14047848  1
  P  P217  1  0.44501457  0.08402339  0.38834167  1
  P  P218  1  0.44788644  0.08240955  0.64034158  1
  P  P219  1  0.44639111  0.08253900  0.89025979  1
  P  P220  1  0.44596405  0.41684642  0.13889896  1
  P  P221  1  0.44583052  0.41694733  0.38875425  1
  P  P222  1  0.44509429  0.41690545  0.64019671  1
  P  P223  1  0.44407229  0.41672872  0.88959523  1
  P  P224  1  0.44440331  0.74956466  0.13967897  1
  P  P225  1  0.44535918  0.74893488  0.38903047  1
  P  P226  1  0.44543610  0.75083837  0.63872415  1
  P  P227  1  0.44692524  0.75036320  0.89074370  1
  P  P228  1  0.94635388  0.08382471  0.13931574  1
  P  P229  1  0.94536077  0.08254888  0.38850956  1
  P  P230  1  0.94878676  0.08360821  0.64050247  1
  P  P231  1  0.94622209  0.08336829  0.89136652  1
  P  P232  1  0.94601919  0.41654270  0.13946359  1
  P  P233  1  0.94566417  0.41671171  0.38852351  1
  P  P234  1  0.94586801  0.41734339  0.64061698  1
  P  P235  1  0.94469782  0.41769663  0.89032824  1
  P  P236  1  0.94606589  0.74971466  0.13928692  1
  P  P237  1  0.94661843  0.75081694  0.38910891  1
  P  P238  1  0.94415857  0.74897089  0.63928927  1
  P  P239  1  0.94490738  0.74916252  0.89001265  1
  P  P240  1  0.19769337  0.08249774  0.23444991  1
  P  P241  1  0.19587240  0.08310982  0.48545027  1
  P  P242  1  0.19597229  0.08337168  0.73460173  1
  P  P243  1  0.19574983  0.08443472  0.98670809  1
  P  P244  1  0.19813956  0.41773826  0.23461390  1
  P  P245  1  0.19867036  0.41704133  0.48422755  1
  P  P246  1  0.19736035  0.41725818  0.73517983  1
  P  P247  1  0.19697588  0.41603491  0.98690039  1
  P  P248  1  0.19579946  0.74992001  0.23582649  1
  P  P249  1  0.19718445  0.74971690  0.48388341  1
  P  P250  1  0.19617072  0.74943657  0.73531635  1
  P  P251  1  0.19736444  0.74979796  0.98642862  1
  P  P252  1  0.69722927  0.08384024  0.23457056  1
  P  P253  1  0.69497469  0.08296099  0.48587695  1
  P  P254  1  0.69623271  0.08287379  0.73410739  1
  P  P255  1  0.69618462  0.08375968  0.98691734  1
  P  P256  1  0.69476616  0.41616558  0.23549025  1
  P  P257  1  0.69534852  0.41812209  0.48425822  1
  P  P258  1  0.69837700  0.41700494  0.73537225  1
  P  P259  1  0.69570649  0.41717405  0.98684093  1
  P  P260  1  0.69706236  0.75006004  0.23611941  1
  P  P261  1  0.69725092  0.74878851  0.48416114  1
  P  P262  1  0.69680883  0.75004819  0.73621953  1
  P  P263  1  0.69680976  0.74906289  0.98495779  1
  P  P264  1  0.30327736  0.25077568  0.01612664  1
  P  P265  1  0.30639658  0.25003642  0.26386096  1
  P  P266  1  0.30534640  0.25105609  0.51339429  1
  P  P267  1  0.30148414  0.25048476  0.76499068  1
  P  P268  1  0.30452170  0.58356246  0.01588021  1
  P  P269  1  0.30510895  0.58331639  0.26383113  1
  P  P270  1  0.30499727  0.58367276  0.51321177  1
  P  P271  1  0.30143482  0.58263781  0.76507662  1
  P  P272  1  0.30590855  0.91561575  0.01465035  1
  P  P273  1  0.30342494  0.91687044  0.26331809  1
  P  P274  1  0.30392998  0.91520960  0.51548066  1
  P  P275  1  0.30354963  0.91683482  0.76445841  1
  P  P276  1  0.80217788  0.25022914  0.01532232  1
  P  P277  1  0.80143458  0.25025120  0.26450985  1
  P  P278  1  0.80287769  0.25032215  0.51499633  1
  P  P279  1  0.80347768  0.25055450  0.76549878  1
  P  P280  1  0.80331997  0.58350267  0.01405175  1
  P  P281  1  0.80347360  0.58288898  0.26445311  1
  P  P282  1  0.80278360  0.58428585  0.51498416  1
  P  P283  1  0.80573914  0.58319480  0.76462776  1
  P  P284  1  0.80349141  0.91632011  0.01531898  1
  P  P285  1  0.80466446  0.91688031  0.26542727  1
  P  P286  1  0.80502979  0.91523214  0.51344060  1
  P  P287  1  0.80302157  0.91628743  0.76523283  1
  O  O288  1  0.05762683  0.25050043  0.18644982  1
  O  O289  1  0.05655379  0.25055595  0.43588223  1
  O  O290  1  0.05907192  0.25074847  0.68765077  1
  O  O291  1  0.05999589  0.25102877  0.93787346  1
  O  O292  1  0.05987557  0.58305244  0.18816911  1
  O  O293  1  0.05687410  0.58352737  0.43573436  1
  O  O294  1  0.05774585  0.58299019  0.68745065  1
  O  O295  1  0.05694479  0.58322826  0.93650405  1
  O  O296  1  0.05937691  0.91650108  0.18819675  1
  O  O297  1  0.05644924  0.91588913  0.43576437  1
  O  O298  1  0.05913115  0.91635336  0.68784039  1
  O  O299  1  0.05733038  0.91589234  0.93651810  1
  O  O300  1  0.55833645  0.25003017  0.18772686  1
  O  O301  1  0.55608724  0.25071304  0.43586957  1
  O  O302  1  0.55594208  0.25032262  0.68705498  1
  O  O303  1  0.55902192  0.25073459  0.93832530  1
  O  O304  1  0.55604782  0.58303380  0.18638844  1
  O  O305  1  0.55792082  0.58401984  0.43787213  1
  O  O306  1  0.55763199  0.58337156  0.68631457  1
  O  O307  1  0.55866276  0.58358171  0.93799501  1
  O  O308  1  0.55619217  0.91650273  0.18746702  1
  O  O309  1  0.55638445  0.91555398  0.43639694  1
  O  O310  1  0.55528773  0.91614598  0.68626570  1
  O  O311  1  0.55566352  0.91567888  0.93716615  1
  O  O312  1  0.44410319  0.08359321  0.06375620  1
  O  O313  1  0.44075525  0.08300392  0.31162102  1
  O  O314  1  0.44438409  0.08341928  0.56358462  1
  O  O315  1  0.44308894  0.08353036  0.81351346  1
  O  O316  1  0.44164057  0.41687023  0.06216531  1
  O  O317  1  0.44166098  0.41722585  0.31197689  1
  O  O318  1  0.44144920  0.41717860  0.56334537  1
  O  O319  1  0.43937341  0.41669371  0.81281661  1
  O  O320  1  0.44126727  0.74949766  0.06288342  1
  O  O321  1  0.44041671  0.74966363  0.31230787  1
  O  O322  1  0.44134357  0.74973174  0.56202398  1
  O  O323  1  0.44337293  0.74926693  0.81395845  1
  O  O324  1  0.94094066  0.08397721  0.06266041  1
  O  O325  1  0.94094609  0.08382277  0.31171873  1
  O  O326  1  0.94469746  0.08339033  0.56374115  1
  O  O327  1  0.94314019  0.08367555  0.81458632  1
  O  O328  1  0.94045331  0.41659807  0.06277748  1
  O  O329  1  0.94084957  0.41641656  0.31177483  1
  O  O330  1  0.94289401  0.41681354  0.56376907  1
  O  O331  1  0.94090206  0.41649168  0.81355371  1
  O  O332  1  0.94067889  0.74954536  0.06263884  1
  O  O333  1  0.94210507  0.74974205  0.31232523  1
  O  O334  1  0.94050890  0.74947220  0.56246441  1
  O  O335  1  0.94117455  0.75014372  0.81320403  1
  O  O336  1  0.19171612  0.08362412  0.06346181  1
  O  O337  1  0.19431713  0.08301163  0.31121335  1
  O  O338  1  0.19140329  0.08310983  0.56218322  1
  O  O339  1  0.19373913  0.08313461  0.81148305  1
  O  O340  1  0.19220521  0.41672219  0.06353569  1
  O  O341  1  0.19451081  0.41715625  0.31128680  1
  O  O342  1  0.19410667  0.41685063  0.56088675  1
  O  O343  1  0.19409450  0.41747354  0.81191289  1
  O  O344  1  0.19248432  0.74981085  0.06310913  1
  O  O345  1  0.19139776  0.75028140  0.31249179  1
  O  O346  1  0.19287496  0.74975420  0.56058864  1
  O  O347  1  0.19357189  0.74954907  0.81211423  1
  O  O348  1  0.69089224  0.08285476  0.06354924  1
  O  O349  1  0.69352188  0.08303252  0.31132904  1
  O  O350  1  0.69021172  0.08281610  0.56259479  1
  O  O351  1  0.69332644  0.08255286  0.81100709  1
  O  O352  1  0.69076575  0.41727609  0.06352818  1
  O  O353  1  0.68978575  0.41706717  0.31217238  1
  O  O354  1  0.69295841  0.41717849  0.56106038  1
  O  O355  1  0.69413598  0.41707547  0.81207575  1
  O  O356  1  0.69297491  0.74981217  0.06170670  1
  O  O357  1  0.69144068  0.74965810  0.31268406  1
  O  O358  1  0.69384053  0.74972615  0.56093871  1
  O  O359  1  0.69146724  0.75047133  0.81281684  1
  O  O360  1  0.31017103  0.24994001  0.18704676  1
  O  O361  1  0.30966626  0.25037668  0.43662827  1
  O  O362  1  0.30534879  0.24946849  0.68827508  1
  O  O363  1  0.30610785  0.24986340  0.93937613  1
  O  O364  1  0.30948915  0.58301311  0.18714329  1
  O  O365  1  0.30879366  0.58366997  0.43642591  1
  O  O366  1  0.30531894  0.58357330  0.68836907  1
  O  O367  1  0.30683069  0.58384752  0.93908554  1
  O  O368  1  0.30811079  0.91704606  0.18659843  1
  O  O369  1  0.30677559  0.91629366  0.43865813  1
  O  O370  1  0.30839630  0.91685830  0.68778415  1
  O  O371  1  0.30951838  0.91636229  0.93779752  1
  O  O372  1  0.80526161  0.25038548  0.18785319  1
  O  O373  1  0.80588739  0.24988056  0.43819805  1
  O  O374  1  0.80644082  0.25001394  0.68870651  1
  O  O375  1  0.80598812  0.25005822  0.93867868  1
  O  O376  1  0.80644300  0.58311806  0.18769586  1
  O  O377  1  0.80649107  0.58354653  0.43826039  1
  O  O378  1  0.80881291  0.58316507  0.68780183  1
  O  O379  1  0.80755060  0.58340306  0.93736821  1
  O  O380  1  0.80719117  0.91664984  0.18867434  1
  O  O381  1  0.80927399  0.91624242  0.43674070  1
  O  O382  1  0.80602162  0.91674634  0.68841371  1
  O  O383  1  0.80623335  0.91656584  0.93856105  1
  O  O384  1  0.23340564  0.25070546  0.04121882  1
  O  O385  1  0.23631889  0.25028746  0.28820262  1
  O  O386  1  0.23535834  0.25068789  0.53756259  1
  O  O387  1  0.23150470  0.25061301  0.78969484  1
  O  O388  1  0.23492463  0.58337542  0.04133431  1
  O  O389  1  0.23463334  0.58360627  0.28744088  1
  O  O390  1  0.23512862  0.58330415  0.53794621  1
  O  O391  1  0.23156861  0.58302750  0.79018907  1
  O  O392  1  0.23585708  0.91642995  0.03879618  1
  O  O393  1  0.23313148  0.91618685  0.28736584  1
  O  O394  1  0.23420090  0.91572127  0.54040121  1
  O  O395  1  0.23316688  0.91660228  0.78815361  1
  O  O396  1  0.73204214  0.25057648  0.03980864  1
  O  O397  1  0.73134560  0.24988497  0.28920699  1
  O  O398  1  0.73318428  0.25106529  0.54003514  1
  O  O399  1  0.73390737  0.25009119  0.79106153  1
  O  O400  1  0.73314424  0.58363423  0.03853328  1
  O  O401  1  0.73373656  0.58306861  0.28946174  1
  O  O402  1  0.73279304  0.58382501  0.53973697  1
  O  O403  1  0.73584277  0.58306554  0.78946494  1
  O  O404  1  0.73386693  0.91599843  0.04089598  1
  O  O405  1  0.73501454  0.91683211  0.29096013  1
  O  O406  1  0.73503569  0.91502615  0.53783412  1
  O  O407  1  0.73350635  0.91665016  0.79087741  1
  O  O408  1  0.26780152  0.08346725  0.20983250  1
  O  O409  1  0.26596319  0.08272464  0.46160672  1
  O  O410  1  0.26550618  0.08357779  0.70868504  1
  O  O411  1  0.26568544  0.08383051  0.96229770  1
  O  O412  1  0.26849779  0.41717503  0.21073396  1
  O  O413  1  0.26881083  0.41753266  0.46014284  1
  O  O414  1  0.26725299  0.41679905  0.70991448  1
  O  O415  1  0.26735123  0.41663735  0.96330374  1
  O  O416  1  0.26638753  0.74975707  0.21245023  1
  O  O417  1  0.26733300  0.74979602  0.45976869  1
  O  O418  1  0.26574470  0.74935949  0.70970685  1
  O  O419  1  0.26764257  0.74953479  0.96268852  1
  O  O420  1  0.76740894  0.08373122  0.21028222  1
  O  O421  1  0.76514446  0.08328451  0.46225218  1
  O  O422  1  0.76584588  0.08312815  0.70879924  1
  O  O423  1  0.76663559  0.08363642  0.96340757  1
  O  O424  1  0.76524917  0.41684196  0.21204886  1
  O  O425  1  0.76497161  0.41702821  0.45879706  1
  O  O426  1  0.76842796  0.41749012  0.71109731  1
  O  O427  1  0.76614396  0.41680281  0.96328715  1
  O  O428  1  0.76763589  0.74999091  0.21309973  1
  O  O429  1  0.76734390  0.74925425  0.45963958  1
  O  O430  1  0.76723296  0.74937974  0.71291319  1
  O  O431  1  0.76697209  0.74965003  0.96074573  1
  O  O432  1  0.01702141  0.08368795  0.16214483  1
  O  O433  1  0.01544315  0.08259416  0.41253749  1
  O  O434  1  0.01869697  0.08367639  0.66515565  1
  O  O435  1  0.01610836  0.08298883  0.91597076  1
  O  O436  1  0.01670893  0.41643360  0.16213379  1
  O  O437  1  0.01571810  0.41727479  0.41261824  1
  O  O438  1  0.01554523  0.41697208  0.66589870  1
  O  O439  1  0.01480888  0.41751112  0.91444026  1
  O  O440  1  0.01671400  0.74992921  0.16204282  1
  O  O441  1  0.01690169  0.74991480  0.41309317  1
  O  O442  1  0.01422197  0.74969857  0.66355055  1
  O  O443  1  0.01484232  0.74959377  0.91462663  1
  O  O444  1  0.51741871  0.08363135  0.16532695  1
  O  O445  1  0.51511802  0.08366685  0.41230600  1
  O  O446  1  0.51767343  0.08243826  0.66556001  1
  O  O447  1  0.51605067  0.08262842  0.91548689  1
  O  O448  1  0.51637668  0.41641701  0.16272676  1
  O  O449  1  0.51617960  0.41735503  0.41273835  1
  O  O450  1  0.51500381  0.41681916  0.66480900  1
  O  O451  1  0.51431153  0.41701744  0.91309988  1
  O  O452  1  0.51439028  0.74902663  0.16438904  1
  O  O453  1  0.51571106  0.74975523  0.41269851  1
  O  O454  1  0.51539456  0.75029633  0.66317456  1
  O  O455  1  0.51682787  0.75034191  0.91570034  1
  O  O456  1  0.48351781  0.25022058  0.08723997  1
  O  O457  1  0.48262564  0.25074890  0.33469516  1
  O  O458  1  0.48329855  0.24992569  0.58475489  1
  O  O459  1  0.48432598  0.24977417  0.83762283  1
  O  O460  1  0.48239461  0.58329220  0.08537923  1
  O  O461  1  0.48296270  0.58283319  0.33723011  1
  O  O462  1  0.48419798  0.58366297  0.58505437  1
  O  O463  1  0.48459695  0.58403363  0.83669239  1
  O  O464  1  0.48167129  0.91680481  0.08685779  1
  O  O465  1  0.48345391  0.91548155  0.33476980  1
  O  O466  1  0.48196463  0.91701233  0.58431681  1
  O  O467  1  0.48171783  0.91551795  0.83582511  1
  O  O468  1  0.98471872  0.25043842  0.08466509  1
  O  O469  1  0.98366036  0.24996075  0.33386248  1
  O  O470  1  0.98505551  0.24996217  0.58626441  1
  O  O471  1  0.98530994  0.25023512  0.83754699  1
  O  O472  1  0.98540177  0.58320733  0.08730957  1
  O  O473  1  0.98479028  0.58385884  0.33348035  1
  O  O474  1  0.98243804  0.58335646  0.58695979  1
  O  O475  1  0.98201390  0.58337919  0.83622587  1
  O  O476  1  0.98552653  0.91643070  0.08701683  1
  O  O477  1  0.98318224  0.91630595  0.33411563  1
  O  O478  1  0.98475678  0.91648934  0.58687761  1
  O  O479  1  0.98435146  0.91657532  0.83483274  1
  O  O480  1  0.08865549  0.31566104  0.07722890  1
  O  O481  1  0.08747308  0.31526192  0.32663471  1
  O  O482  1  0.08855352  0.31480768  0.57748480  1
  O  O483  1  0.08864506  0.31581599  0.82761717  1
  O  O484  1  0.08879678  0.64842175  0.07836289  1
  O  O485  1  0.08860677  0.64965577  0.32704088  1
  O  O486  1  0.08621542  0.64816325  0.57749506  1
  O  O487  1  0.08587935  0.64842554  0.82671431  1
  O  O488  1  0.08900229  0.98171829  0.07865142  1
  O  O489  1  0.08773175  0.98018316  0.32616165  1
  O  O490  1  0.08792969  0.98255718  0.57821524  1
  O  O491  1  0.08872244  0.98086449  0.82741723  1
  O  O492  1  0.58739835  0.31502819  0.07757761  1
  O  O493  1  0.58630430  0.31653206  0.32655626  1
  O  O494  1  0.58711428  0.31441006  0.57771678  1
  O  O495  1  0.58749274  0.31537353  0.82803485  1
  O  O496  1  0.58700649  0.64732191  0.07698480  1
  O  O497  1  0.58599130  0.64909129  0.32753324  1
  O  O498  1  0.58833943  0.64827179  0.57674428  1
  O  O499  1  0.58783998  0.65011118  0.82881296  1
  O  O500  1  0.58535443  0.98235180  0.07803791  1
  O  O501  1  0.58734031  0.98009783  0.32716930  1
  O  O502  1  0.58592437  0.98227490  0.57737982  1
  O  O503  1  0.58571050  0.98002302  0.82763576  1
  O  O504  1  0.41317401  0.01854896  0.17316201  1
  O  O505  1  0.41150301  0.01906913  0.42175369  1
  O  O506  1  0.41364780  0.01724772  0.67227516  1
  O  O507  1  0.41227222  0.01731807  0.92212989  1
  O  O508  1  0.41231485  0.35194602  0.17210265  1
  O  O509  1  0.41276273  0.35163879  0.42180686  1
  O  O510  1  0.41104218  0.35193798  0.67297797  1
  O  O511  1  0.41072796  0.35174861  0.92309385  1
  O  O512  1  0.41032326  0.68461712  0.17242277  1
  O  O513  1  0.41241540  0.68361394  0.42220098  1
  O  O514  1  0.41173082  0.68604298  0.67241457  1
  O  O515  1  0.41284177  0.68541560  0.92374007  1
  O  O516  1  0.91311687  0.01889824  0.17282372  1
  O  O517  1  0.91216344  0.01700748  0.42108793  1
  O  O518  1  0.91492458  0.01856017  0.67325578  1
  O  O519  1  0.91188222  0.01842339  0.92379128  1
  O  O520  1  0.91269490  0.35160244  0.17300974  1
  O  O521  1  0.91236567  0.35168629  0.42184504  1
  O  O522  1  0.91149110  0.35249816  0.67341745  1
  O  O523  1  0.91088184  0.35288058  0.92385261  1
  O  O524  1  0.91305755  0.68473447  0.17310002  1
  O  O525  1  0.91254290  0.68611691  0.42257333  1
  O  O526  1  0.91083975  0.68366988  0.67206300  1
  O  O527  1  0.91133431  0.68382707  0.92266342  1
  O  O528  1  0.16400349  0.01734482  0.20190823  1
  O  O529  1  0.16227995  0.01799665  0.45242418  1
  O  O530  1  0.16170546  0.01819183  0.70243742  1
  O  O531  1  0.16201728  0.01955692  0.95339252  1
  O  O532  1  0.16410809  0.35287268  0.20161251  1
  O  O533  1  0.16527798  0.35202279  0.45094414  1
  O  O534  1  0.16329938  0.35218681  0.70268835  1
  O  O535  1  0.16393395  0.35090022  0.95370299  1
  O  O536  1  0.16265079  0.68469665  0.20253356  1
  O  O537  1  0.16329670  0.68477640  0.45097988  1
  O  O538  1  0.16194174  0.68426403  0.70305419  1
  O  O539  1  0.16375899  0.68485702  0.95318800  1
  O  O540  1  0.66335785  0.01887282  0.20146928  1
  O  O541  1  0.66186505  0.01780517  0.45245268  1
  O  O542  1  0.66191570  0.01786102  0.70167767  1
  O  O543  1  0.66322252  0.01857040  0.95314226  1
  O  O544  1  0.66169702  0.35087641  0.20237552  1
  O  O545  1  0.66016868  0.35369856  0.45160018  1
  O  O546  1  0.66484075  0.35184990  0.70251266  1
  O  O547  1  0.66231949  0.35214664  0.95361672  1
  O  O548  1  0.66380691  0.68516984  0.20234443  1
  O  O549  1  0.66339360  0.68354326  0.45175524  1
  O  O550  1  0.66340240  0.68509658  0.70286140  1
  O  O551  1  0.66319186  0.68388500  0.95231750  1
  O  O552  1  0.33772575  0.31573676  0.04828276  1
  O  O553  1  0.34016112  0.31528471  0.29647911  1
  O  O554  1  0.33863204  0.31641744  0.54609843  1
  O  O555  1  0.33558013  0.31549934  0.79727226  1
  O  O556  1  0.33883036  0.64852564  0.04829216  1
  O  O557  1  0.33846788  0.64837290  0.29712504  1
  O  O558  1  0.33822557  0.64905209  0.54618425  1
  O  O559  1  0.33564532  0.64755333  0.79799770  1
  O  O560  1  0.33993070  0.98042930  0.04796576  1
  O  O561  1  0.33643028  0.98204831  0.29659441  1
  O  O562  1  0.33845612  0.97991139  0.54845541  1
  O  O563  1  0.33689723  0.98183877  0.79788219  1
  O  O564  1  0.83598087  0.31532070  0.04810425  1
  O  O565  1  0.83497674  0.31552865  0.29725774  1
  O  O566  1  0.83741352  0.31534843  0.54688522  1
  O  O567  1  0.83743735  0.31586696  0.79766521  1
  O  O568  1  0.83700595  0.64859770  0.04700357  1
  O  O569  1  0.83773339  0.64788969  0.29692143  1
  O  O570  1  0.83672807  0.64943365  0.54738521  1
  O  O571  1  0.83943841  0.64841304  0.79747310  1
  O  O572  1  0.83767093  0.98142564  0.04768073  1
  O  O573  1  0.83890078  0.98212562  0.29741594  1
  O  O574  1  0.83843504  0.98019406  0.54716667  1
  O  O575  1  0.83746570  0.98126434  0.79750833  1
  O  O576  1  0.41324725  0.14859201  0.17285580  1
  O  O577  1  0.41193294  0.14941683  0.42109631  1
  O  O578  1  0.41396149  0.14741757  0.67336618  1
  O  O579  1  0.41235729  0.14752794  0.92315058  1
  O  O580  1  0.41293899  0.48203817  0.17241836  1
  O  O581  1  0.41212478  0.48177186  0.42217568  1
  O  O582  1  0.41122720  0.48191608  0.67315047  1
  O  O583  1  0.41051586  0.48175011  0.92276982  1
  O  O584  1  0.41077009  0.81480952  0.17250119  1
  O  O585  1  0.41138626  0.81359444  0.42248221  1
  O  O586  1  0.41201471  0.81626079  0.67121312  1
  O  O587  1  0.41248143  0.81528996  0.92285161  1
  O  O588  1  0.91325326  0.14881506  0.17301846  1
  O  O589  1  0.91185943  0.14741347  0.42212544  1
  O  O590  1  0.91492833  0.14864394  0.67317285  1
  O  O591  1  0.91228562  0.14840980  0.92421503  1
  O  O592  1  0.91289064  0.48152288  0.17305253  1
  O  O593  1  0.91205475  0.48188380  0.42146073  1
  O  O594  1  0.91173733  0.48260186  0.67262200  1
  O  O595  1  0.91110034  0.48298492  0.92294947  1
  O  O596  1  0.91283577  0.81462993  0.17289782  1
  O  O597  1  0.91350430  0.81617508  0.42187465  1
  O  O598  1  0.91012056  0.81370134  0.67268843  1
  O  O599  1  0.91083114  0.81390176  0.92327301  1
  O  O600  1  0.08884147  0.18542955  0.07742000  1
  O  O601  1  0.08766080  0.18517442  0.32693406  1
  O  O602  1  0.08863297  0.18444278  0.57832428  1
  O  O603  1  0.08927981  0.18577458  0.82806396  1
  O  O604  1  0.08871160  0.51787050  0.07831291  1
  O  O605  1  0.08925751  0.51966288  0.32627652  1
  O  O606  1  0.08602387  0.51813354  0.57724897  1
  O  O607  1  0.08598864  0.51849421  0.82655660  1
  O  O608  1  0.08898247  0.85120790  0.07845922  1
  O  O609  1  0.08692310  0.85023282  0.32657688  1
  O  O610  1  0.08833717  0.85222740  0.57766123  1
  O  O611  1  0.08795077  0.85089311  0.82707195  1
  O  O612  1  0.58731947  0.18481251  0.07795360  1
  O  O613  1  0.58693444  0.18648807  0.32615794  1
  O  O614  1  0.58666403  0.18398846  0.57820010  1
  O  O615  1  0.58816510  0.18507634  0.82898499  1
  O  O616  1  0.58613362  0.51732251  0.07690070  1
  O  O617  1  0.58697181  0.51890502  0.32798141  1
  O  O618  1  0.58793914  0.51826977  0.57686854  1
  O  O619  1  0.58832569  0.51971354  0.82792640  1
  O  O620  1  0.58546511  0.85209584  0.07773125  1
  O  O621  1  0.58703214  0.84973375  0.32736070  1
  O  O622  1  0.58586526  0.85214036  0.57669374  1
  O  O623  1  0.58537314  0.84987693  0.82773783  1
  O  O624  1  0.33757083  0.18591755  0.04896531  1
  O  O625  1  0.33981908  0.18489899  0.29681310  1
  O  O626  1  0.33876480  0.18602463  0.54692303  1
  O  O627  1  0.33509034  0.18537644  0.79812023  1
  O  O628  1  0.33898157  0.51844682  0.04799153  1
  O  O629  1  0.33843638  0.51823734  0.29720586  1
  O  O630  1  0.33899239  0.51873271  0.54604460  1
  O  O631  1  0.33547292  0.51757755  0.79737010  1
  O  O632  1  0.33914303  0.85033868  0.04743676  1
  O  O633  1  0.33701790  0.85181828  0.29640753  1
  O  O634  1  0.33782755  0.84980350  0.54732973  1
  O  O635  1  0.33709493  0.85181411  0.79780437  1
  O  O636  1  0.83584081  0.18516370  0.04823789  1
  O  O637  1  0.83550345  0.18519343  0.29704752  1
  O  O638  1  0.83666518  0.18524078  0.54780769  1
  O  O639  1  0.83783100  0.18554073  0.79791517  1
  O  O640  1  0.83680857  0.51843700  0.04731734  1
  O  O641  1  0.83729402  0.51761395  0.29671254  1
  O  O642  1  0.83708607  0.51945375  0.54793641  1
  O  O643  1  0.83970319  0.51826812  0.79754991  1
  O  O644  1  0.83780271  0.85109469  0.04733841  1
  O  O645  1  0.83914824  0.85182545  0.29768616  1
  O  O646  1  0.83868873  0.84992453  0.54580544  1
  O  O647  1  0.83719647  0.85103424  0.79730202  1
  O  O648  1  0.16322893  0.14736100  0.20184373  1
  O  O649  1  0.16263838  0.14818955  0.45211067  1
  O  O650  1  0.16152419  0.14849918  0.70260543  1
  O  O651  1  0.16247531  0.14987284  0.95428691  1
  O  O652  1  0.16452902  0.48283773  0.20185214  1
  O  O653  1  0.16470633  0.48204493  0.45155025  1
  O  O654  1  0.16365391  0.48246659  0.70241424  1
  O  O655  1  0.16355942  0.48091231  0.95313424  1
  O  O656  1  0.16260245  0.81480375  0.20203384  1
  O  O657  1  0.16330349  0.81467799  0.45084708  1
  O  O658  1  0.16214980  0.81467551  0.70302515  1
  O  O659  1  0.16410378  0.81479651  0.95304037  1
  O  O660  1  0.66300831  0.14880983  0.20219349  1
  O  O661  1  0.66140714  0.14805112  0.45272971  1
  O  O662  1  0.66159876  0.14786086  0.70210379  1
  O  O663  1  0.66299767  0.14891899  0.95387730  1
  O  O664  1  0.66106158  0.48090808  0.20171964  1
  O  O665  1  0.66172972  0.48373984  0.45225543  1
  O  O666  1  0.66431806  0.48179881  0.70250391  1
  O  O667  1  0.66290536  0.48245519  0.95331535  1
  O  O668  1  0.66408158  0.81515775  0.20252593  1
  O  O669  1  0.66290412  0.81342519  0.45105315  1
  O  O670  1  0.66403316  0.81512515  0.70222362  1
  O  O671  1  0.66265074  0.81392148  0.95192762  1
