# generated using pymatgen
data_Na2MnFe(PO4)2
_symmetry_space_group_name_H-M   'P 1'
_cell_length_a   21.07648190
_cell_length_b   18.92863757
_cell_length_c   20.03715484
_cell_angle_alpha   90.00000802
_cell_angle_beta   89.99908547
_cell_angle_gamma   90.00041823
_symmetry_Int_Tables_number   1
_chemical_formula_structural   Na2MnFe(PO4)2
_chemical_formula_sum   'Na96 Mn48 Fe48 P96 O384'
_cell_volume   7993.80463099
_cell_formula_units_Z   48
loop_
 _symmetry_equiv_pos_site_id
 _symmetry_equiv_pos_as_xyz
  1  'x, y, z'
loop_
 _atom_site_type_symbol
 _atom_site_label
 _atom_site_symmetry_multiplicity
 _atom_site_fract_x
 _atom_site_fract_y
 _atom_site_fract_z
 _atom_site_occupancy
  Na  Na0  1  0.00143602  0.00097334  0.00023090  1
  Na  Na1  1  -0.00092810  -0.00016749  0.25061724  1
  Na  Na2  1  0.00015886  0.00044438  0.49920810  1
  Na  Na3  1  -0.00003049  -0.00033081  0.74956871  1
  Na  Na4  1  -0.00049759  0.33260773  0.00118235  1
  Na  Na5  1  0.00010697  0.33254632  0.25098260  1
  Na  Na6  1  0.00104338  0.33369243  0.49800484  1
  Na  Na7  1  -0.00031817  0.33283965  0.74963732  1
  Na  Na8  1  -0.00149943  0.66622967  0.00194925  1
  Na  Na9  1  -0.00124552  0.66636272  0.24973257  1
  Na  Na10  1  0.00183108  0.66737418  0.49859264  1
  Na  Na11  1  -0.00057239  0.66616089  0.75030830  1
  Na  Na12  1  0.50025898  0.00035418  0.00098451  1
  Na  Na13  1  0.50018998  -0.00010033  0.24986767  1
  Na  Na14  1  0.50096618  0.00071020  0.49896540  1
  Na  Na15  1  0.49849608  -0.00001247  0.75057464  1
  Na  Na16  1  0.50254695  0.33363590  0.00083331  1
  Na  Na17  1  0.50363103  0.33441961  0.25057848  1
  Na  Na18  1  0.50115420  0.33359650  0.49940841  1
  Na  Na19  1  0.49971644  0.33294695  0.74985579  1
  Na  Na20  1  0.50016801  0.66675215  -0.00025721  1
  Na  Na21  1  0.50041087  0.66674301  0.24972034  1
  Na  Na22  1  0.49881591  0.66619312  0.49968867  1
  Na  Na23  1  0.49907193  0.66651428  0.75004801  1
  Na  Na24  1  0.25048167  -0.00022460  0.12566109  1
  Na  Na25  1  0.25108529  0.00058835  0.37356867  1
  Na  Na26  1  0.25006607  -0.00052126  0.62379504  1
  Na  Na27  1  0.25224590  0.00068983  0.87634838  1
  Na  Na28  1  0.24764237  0.33231945  0.12480313  1
  Na  Na29  1  0.24946295  0.33366547  0.37483080  1
  Na  Na30  1  0.24844926  0.33258958  0.62481855  1
  Na  Na31  1  0.24952144  0.33362971  0.87606439  1
  Na  Na32  1  0.24935651  0.66652004  0.12627743  1
  Na  Na33  1  0.24822672  0.66522076  0.37414858  1
  Na  Na34  1  0.25019471  0.66687319  0.62465126  1
  Na  Na35  1  0.24791481  0.66578906  0.87478493  1
  Na  Na36  1  0.74774327  -0.00057976  0.12552867  1
  Na  Na37  1  0.75002032  0.00040127  0.37485078  1
  Na  Na38  1  0.74937305  0.00019189  0.62511825  1
  Na  Na39  1  0.74771566  -0.00026220  0.87560520  1
  Na  Na40  1  0.74863918  0.33258718  0.12501222  1
  Na  Na41  1  0.74740956  0.33213303  0.37374789  1
  Na  Na42  1  0.74985598  0.33275009  0.62481452  1
  Na  Na43  1  0.75135229  0.33346315  0.87537132  1
  Na  Na44  1  0.75226381  0.66764562  0.12564955  1
  Na  Na45  1  0.75090423  0.66680476  0.37409567  1
  Na  Na46  1  0.75081637  0.66638732  0.62416379  1
  Na  Na47  1  0.75201953  0.66717011  0.87640847  1
  Na  Na48  1  -0.00197757  0.16729203  0.00142908  1
  Na  Na49  1  0.00012507  0.16583807  0.25130544  1
  Na  Na50  1  0.00043773  0.16585842  0.49856843  1
  Na  Na51  1  -0.00243890  0.16734135  0.74893942  1
  Na  Na52  1  -0.00068987  0.50066263  0.00097252  1
  Na  Na53  1  -0.00061209  0.50057374  0.25082616  1
  Na  Na54  1  0.00133572  0.49977922  0.49824164  1
  Na  Na55  1  0.00085768  0.50009770  0.75028854  1
  Na  Na56  1  0.00102536  0.83331513  0.00065429  1
  Na  Na57  1  -0.00069400  0.83369880  0.24953603  1
  Na  Na58  1  0.00110839  0.83306465  0.49894097  1
  Na  Na59  1  0.00179322  0.83293209  0.75036352  1
  Na  Na60  1  0.50130662  0.16624444  0.00080159  1
  Na  Na61  1  0.50247704  0.16618184  0.24972227  1
  Na  Na62  1  0.50163093  0.16580573  0.49888041  1
  Na  Na63  1  0.49976653  0.16652301  0.75070278  1
  Na  Na64  1  0.50029690  0.50018288  -0.00030544  1
  Na  Na65  1  0.49939885  0.50020693  0.25009119  1
  Na  Na66  1  0.49806978  0.49998878  0.50019633  1
  Na  Na67  1  0.49832353  0.50011502  0.74954591  1
  Na  Na68  1  0.49996104  0.83419237  0.00105178  1
  Na  Na69  1  0.50172258  0.83371325  0.24989978  1
  Na  Na70  1  0.50228035  0.83279098  0.49939812  1
  Na  Na71  1  0.49853362  0.83472283  0.75023271  1
  Na  Na72  1  0.25081665  0.16520640  0.12550104  1
  Na  Na73  1  0.24603705  0.16805877  0.37440369  1
  Na  Na74  1  0.25029759  0.16603238  0.62408750  1
  Na  Na75  1  0.25159068  0.16538457  0.87639631  1
  Na  Na76  1  0.24793314  0.50088147  0.12535119  1
  Na  Na77  1  0.25069493  0.50014999  0.37491681  1
  Na  Na78  1  0.24958798  0.50036197  0.62432606  1
  Na  Na79  1  0.24931828  0.49981065  0.87520373  1
  Na  Na80  1  0.25056023  0.83336315  0.12570978  1
  Na  Na81  1  0.24984523  0.83424062  0.37362424  1
  Na  Na82  1  0.24904697  0.83418204  0.62474709  1
  Na  Na83  1  0.24949929  0.83389147  0.87551795  1
  Na  Na84  1  0.74899164  0.16643706  0.12480787  1
  Na  Na85  1  0.74868222  0.16723898  0.37390435  1
  Na  Na86  1  0.75091527  0.16638199  0.62625205  1
  Na  Na87  1  0.74911343  0.16708822  0.87524983  1
  Na  Na88  1  0.75150350  0.49971210  0.12517536  1
  Na  Na89  1  0.75149362  0.49963258  0.37421231  1
  Na  Na90  1  0.75041501  0.50053473  0.62398265  1
  Na  Na91  1  0.75189631  0.49966382  0.87641602  1
  Na  Na92  1  0.74910188  0.83311278  0.12603154  1
  Na  Na93  1  0.74783408  0.83423986  0.37466045  1
  Na  Na94  1  0.74852405  0.83427713  0.62383100  1
  Na  Na95  1  0.75060687  0.83256513  0.87562149  1
  Mn  Mn96  1  0.89196695  0.24964568  0.37729658  1
  Mn  Mn97  1  0.35766051  0.75062027  0.75273465  1
  Mn  Mn98  1  0.39228139  0.24983492  0.87782597  1
  Mn  Mn99  1  0.60782509  0.08354533  0.62274243  1
  Mn  Mn100  1  0.10867353  0.74963170  0.62190610  1
  Mn  Mn101  1  0.85873584  0.75023914  0.75227745  1
  Mn  Mn102  1  0.10826431  0.08340301  0.87278535  1
  Mn  Mn103  1  0.35736374  0.74974947  0.00252266  1
  Mn  Mn104  1  0.39190250  0.91654031  0.62607138  1
  Mn  Mn105  1  0.85791271  0.08279857  0.75255865  1
  Mn  Mn106  1  0.60767100  0.74954850  0.62295265  1
  Mn  Mn107  1  0.85819715  0.41655523  0.00333607  1
  Mn  Mn108  1  0.10706157  0.41661970  0.87302635  1
  Mn  Mn109  1  0.10795794  0.08390958  0.62242891  1
  Mn  Mn110  1  0.10818808  0.41685942  0.37196108  1
  Mn  Mn111  1  0.85764152  0.41561607  0.50211401  1
  Mn  Mn112  1  0.14151686  0.58316942  0.74763134  1
  Mn  Mn113  1  0.64158352  0.58296294  0.49702571  1
  Mn  Mn114  1  0.14144497  0.24914583  0.74786361  1
  Mn  Mn115  1  0.10704818  0.75033269  0.12262397  1
  Mn  Mn116  1  0.89298110  0.58282999  0.62658413  1
  Mn  Mn117  1  0.64262155  0.58336879  0.74800596  1
  Mn  Mn118  1  0.89218409  0.91665173  0.87811213  1
  Mn  Mn119  1  0.35783732  0.41557104  0.25136004  1
  Mn  Mn120  1  0.39291327  0.25001467  0.37673547  1
  Mn  Mn121  1  0.14158352  0.24926531  0.99790809  1
  Mn  Mn122  1  0.35743847  0.41656951  0.00315428  1
  Mn  Mn123  1  0.14254647  0.91704739  0.24767011  1
  Mn  Mn124  1  0.39341311  0.25052591  0.12778944  1
  Mn  Mn125  1  0.64297642  0.58350155  0.99818925  1
  Mn  Mn126  1  0.89173709  0.91733512  0.12719522  1
  Mn  Mn127  1  0.89214256  0.91660035  0.62665126  1
  Mn  Mn128  1  0.60833734  0.41683067  0.87225598  1
  Mn  Mn129  1  0.14275910  0.91743599  0.74830498  1
  Mn  Mn130  1  0.35710953  0.41571492  0.75210787  1
  Mn  Mn131  1  0.39148874  0.24989222  0.62661798  1
  Mn  Mn132  1  0.35752237  0.75000599  0.50111022  1
  Mn  Mn133  1  0.64137779  0.91600129  0.74810049  1
  Mn  Mn134  1  0.64256815  0.25058899  0.74776809  1
  Mn  Mn135  1  0.64264105  0.58334424  0.24759913  1
  Mn  Mn136  1  0.35835845  0.75008613  0.25245074  1
  Mn  Mn137  1  0.60814006  0.75018210  0.87259750  1
  Mn  Mn138  1  0.85763069  0.75078922  0.50177946  1
  Mn  Mn139  1  0.35742229  0.08399187  0.50081858  1
  Mn  Mn140  1  0.60766178  0.41701376  0.62253139  1
  Mn  Mn141  1  0.85912205  0.41718524  0.75162806  1
  Mn  Mn142  1  0.39147642  0.58373321  0.87806512  1
  Mn  Mn143  1  0.85685523  0.08234715  0.00238470  1
  Fe  Fe144  1  0.14195870  0.24993404  0.49828391  1
  Fe  Fe145  1  0.35702149  0.41631882  0.50119312  1
  Fe  Fe146  1  0.10683617  0.75010105  0.87429030  1
  Fe  Fe147  1  0.64275900  0.91692206  0.24854914  1
  Fe  Fe148  1  0.60755605  0.74935960  0.37341782  1
  Fe  Fe149  1  0.89221763  0.24994911  0.12735325  1
  Fe  Fe150  1  0.10705646  0.08367947  0.12375079  1
  Fe  Fe151  1  0.64325897  0.24947258  0.99812559  1
  Fe  Fe152  1  0.39238221  0.58348320  0.12621655  1
  Fe  Fe153  1  0.89310598  0.58255817  0.12769176  1
  Fe  Fe154  1  0.14348411  0.91637023  0.99857354  1
  Fe  Fe155  1  0.14331987  0.58355605  0.49763305  1
  Fe  Fe156  1  0.60734024  0.08316981  0.12306922  1
  Fe  Fe157  1  0.39366217  0.91645472  0.12670580  1
  Fe  Fe158  1  0.85662683  0.08357566  0.50109134  1
  Fe  Fe159  1  0.10630408  0.41611813  0.12409939  1
  Fe  Fe160  1  0.10667630  0.08218788  0.37273032  1
  Fe  Fe161  1  0.35786323  0.08361271  0.75195384  1
  Fe  Fe162  1  0.64239963  0.91744995  0.49755750  1
  Fe  Fe163  1  0.60828980  0.08323313  0.37265089  1
  Fe  Fe164  1  0.89285716  0.25038079  0.62553340  1
  Fe  Fe165  1  0.89297769  0.58341210  0.87714065  1
  Fe  Fe166  1  0.39252881  0.91684079  0.87764441  1
  Fe  Fe167  1  0.64321410  0.24981854  0.24793752  1
  Fe  Fe168  1  0.89215025  0.91630555  0.37658931  1
  Fe  Fe169  1  0.39247338  0.58356447  0.37623542  1
  Fe  Fe170  1  0.89215375  0.25004359  0.87704433  1
  Fe  Fe171  1  0.14170882  0.58399567  0.99893937  1
  Fe  Fe172  1  0.85662300  0.08291642  0.25144196  1
  Fe  Fe173  1  0.60759209  0.74958213  0.12336743  1
  Fe  Fe174  1  0.39428092  0.91638077  0.37643594  1
  Fe  Fe175  1  0.10707159  0.75057294  0.37285618  1
  Fe  Fe176  1  0.64197533  0.91660731  0.99826464  1
  Fe  Fe177  1  0.14232499  0.25001933  0.24769128  1
  Fe  Fe178  1  0.64254114  0.24961249  0.49857205  1
  Fe  Fe179  1  0.85764545  0.75081084  0.00205230  1
  Fe  Fe180  1  0.60610775  0.08319186  0.87362956  1
  Fe  Fe181  1  0.10782211  0.41624550  0.62265720  1
  Fe  Fe182  1  0.85712367  0.41635903  0.25154683  1
  Fe  Fe183  1  0.60817917  0.41752661  0.12346112  1
  Fe  Fe184  1  0.89356019  0.58406782  0.37650484  1
  Fe  Fe185  1  0.35782488  0.08324149  0.00281582  1
  Fe  Fe186  1  0.85680223  0.75078660  0.25244729  1
  Fe  Fe187  1  0.35749449  0.08401232  0.25176414  1
  Fe  Fe188  1  0.39182997  0.58346179  0.62656728  1
  Fe  Fe189  1  0.14213609  0.91671567  0.49698660  1
  Fe  Fe190  1  0.60715247  0.41737994  0.37334087  1
  Fe  Fe191  1  0.14260735  0.58279002  0.24796241  1
  P  P192  1  0.05308576  0.24955010  0.11218030  1
  P  P193  1  0.05540616  0.24885838  0.36040115  1
  P  P194  1  0.05254165  0.25053979  0.60866390  1
  P  P195  1  0.05151216  0.24952877  0.86001912  1
  P  P196  1  0.05369608  0.58240785  0.11165523  1
  P  P197  1  0.05472151  0.58440570  0.36014718  1
  P  P198  1  0.05436275  0.58229710  0.60856529  1
  P  P199  1  0.05318450  0.58455367  0.86191347  1
  P  P200  1  0.05393073  0.91800065  0.10976717  1
  P  P201  1  0.05316239  0.91660001  0.36058342  1
  P  P202  1  0.05415051  0.91700385  0.60874642  1
  P  P203  1  0.05458475  0.91602223  0.86160879  1
  P  P204  1  0.55639606  0.25000951  0.11112050  1
  P  P205  1  0.55604242  0.25008235  0.36052617  1
  P  P206  1  0.55358482  0.24989905  0.60905008  1
  P  P207  1  0.55466236  0.24908743  0.86144753  1
  P  P208  1  0.55261415  0.58350594  0.11007486  1
  P  P209  1  0.55211593  0.58298243  0.35998650  1
  P  P210  1  0.55165873  0.58328210  0.60970849  1
  P  P211  1  0.55308938  0.58343872  0.85979441  1
  P  P212  1  0.55479713  0.91674128  0.11134513  1
  P  P213  1  0.55507557  0.91688945  0.36033569  1
  P  P214  1  0.55373928  0.91696971  0.60887800  1
  P  P215  1  0.55294869  0.91764921  0.86165593  1
  P  P216  1  0.44638287  0.08292070  0.13969393  1
  P  P217  1  0.44733179  0.08299034  0.38794768  1
  P  P218  1  0.44590721  0.08342177  0.64020929  1
  P  P219  1  0.44562939  0.08277325  0.89043834  1
  P  P220  1  0.44856236  0.41724222  0.14003010  1
  P  P221  1  0.44689762  0.41694099  0.39001512  1
  P  P222  1  0.44480538  0.41686543  0.63853715  1
  P  P223  1  0.44662388  0.41625036  0.89065986  1
  P  P224  1  0.44786842  0.75007397  0.13980225  1
  P  P225  1  0.44808529  0.75043113  0.38932741  1
  P  P226  1  0.44613177  0.74962752  0.63967835  1
  P  P227  1  0.44673625  0.75125772  0.89067217  1
  P  P228  1  0.94660221  0.08388960  0.14103215  1
  P  P229  1  0.94500192  0.08224122  0.38893834  1
  P  P230  1  0.94525457  0.08410473  0.63800666  1
  P  P231  1  0.94675258  0.08392766  0.89057040  1
  P  P232  1  0.94695120  0.41617823  0.14170652  1
  P  P233  1  0.94529174  0.41721624  0.38821223  1
  P  P234  1  0.94863556  0.41582078  0.63895721  1
  P  P235  1  0.94650816  0.41650871  0.89037460  1
  P  P236  1  0.94429211  0.74992506  0.13989842  1
  P  P237  1  0.94618077  0.75039714  0.38817122  1
  P  P238  1  0.94753220  0.75003939  0.63963313  1
  P  P239  1  0.94720911  0.74959924  0.89133969  1
  P  P240  1  0.19580480  0.08368553  0.23549992  1
  P  P241  1  0.19547762  0.08308483  0.48363287  1
  P  P242  1  0.19846200  0.08315251  0.73477265  1
  P  P243  1  0.19675285  0.08219471  0.98690016  1
  P  P244  1  0.19576427  0.41664310  0.23436463  1
  P  P245  1  0.19636204  0.41689316  0.48573560  1
  P  P246  1  0.19536904  0.41625824  0.73418178  1
  P  P247  1  0.19453476  0.41753030  0.98676181  1
  P  P248  1  0.19530919  0.74956963  0.23613122  1
  P  P249  1  0.19600741  0.75015329  0.48340195  1
  P  P250  1  0.19561562  0.75028830  0.73606812  1
  P  P251  1  0.19565771  0.75010316  0.98523027  1
  P  P252  1  0.69573672  0.08301594  0.23563537  1
  P  P253  1  0.69686953  0.08384238  0.48437529  1
  P  P254  1  0.69533260  0.08322550  0.73637793  1
  P  P255  1  0.69413197  0.08316893  0.98597925  1
  P  P256  1  0.69621594  0.41665806  0.23560464  1
  P  P257  1  0.69608568  0.41575313  0.48383025  1
  P  P258  1  0.69777274  0.41707107  0.73444154  1
  P  P259  1  0.69566788  0.41605878  0.98654927  1
  P  P260  1  0.69570999  0.75042322  0.23598015  1
  P  P261  1  0.69575751  0.75038813  0.48387464  1
  P  P262  1  0.69755955  0.74971364  0.73454296  1
  P  P263  1  0.69656423  0.75056062  0.98672250  1
  P  P264  1  0.30336694  0.24915228  0.01592163  1
  P  P265  1  0.30217302  0.24920632  0.26471396  1
  P  P266  1  0.30174946  0.25052926  0.51396051  1
  P  P267  1  0.30271731  0.24901216  0.76546878  1
  P  P268  1  0.30175567  0.58357338  0.01618062  1
  P  P269  1  0.30420018  0.58288531  0.26418179  1
  P  P270  1  0.30422958  0.58289943  0.51362794  1
  P  P271  1  0.30373204  0.58309906  0.76421201  1
  P  P272  1  0.30453669  0.91702761  0.01531486  1
  P  P273  1  0.30630771  0.91766009  0.26410423  1
  P  P274  1  0.30310670  0.91665886  0.51257788  1
  P  P275  1  0.30441227  0.91784962  0.76581497  1
  P  P276  1  0.80391846  0.24939017  0.01501169  1
  P  P277  1  0.80365014  0.24975587  0.26333897  1
  P  P278  1  0.80237453  0.24882068  0.51494672  1
  P  P279  1  0.80551322  0.25025709  0.76470511  1
  P  P280  1  0.80586651  0.58441389  0.01525390  1
  P  P281  1  0.80578062  0.58326215  0.26414559  1
  P  P282  1  0.80445101  0.58341403  0.51323780  1
  P  P283  1  0.80444946  0.58338389  0.76607735  1
  P  P284  1  0.80132307  0.91623208  0.01559261  1
  P  P285  1  0.80266357  0.91682327  0.26529980  1
  P  P286  1  0.80292388  0.91777155  0.51322171  1
  P  P287  1  0.80301583  0.91659721  0.76557606  1
  O  O288  1  0.05776748  0.24924934  0.18881886  1
  O  O289  1  0.05952076  0.24995541  0.43718669  1
  O  O290  1  0.05567063  0.24960442  0.68541306  1
  O  O291  1  0.05554049  0.24911774  0.93687337  1
  O  O292  1  0.05832383  0.58329289  0.18827547  1
  O  O293  1  0.05961089  0.58346877  0.43685456  1
  O  O294  1  0.05656571  0.58322330  0.68539919  1
  O  O295  1  0.05745466  0.58401906  0.93875120  1
  O  O296  1  0.05677509  0.91712581  0.18657590  1
  O  O297  1  0.05784725  0.91671202  0.43724162  1
  O  O298  1  0.05743064  0.91722840  0.68558346  1
  O  O299  1  0.05894386  0.91708659  0.93835654  1
  O  O300  1  0.56027859  0.24991740  0.18805507  1
  O  O301  1  0.55934899  0.24948724  0.43730625  1
  O  O302  1  0.55671795  0.24990871  0.68589563  1
  O  O303  1  0.55882849  0.24986834  0.93819655  1
  O  O304  1  0.55630829  0.58340596  0.18695075  1
  O  O305  1  0.55536322  0.58291213  0.43653426  1
  O  O306  1  0.55576204  0.58312856  0.68640026  1
  O  O307  1  0.55717229  0.58346326  0.93652252  1
  O  O308  1  0.55930345  0.91686903  0.18808928  1
  O  O309  1  0.55919387  0.91741032  0.43707969  1
  O  O310  1  0.55617043  0.91720102  0.68575448  1
  O  O311  1  0.55770683  0.91672261  0.93836844  1
  O  O312  1  0.44164459  0.08360360  0.06297295  1
  O  O313  1  0.44233965  0.08420938  0.31131033  1
  O  O314  1  0.44273808  0.08363445  0.56333837  1
  O  O315  1  0.44142884  0.08359561  0.81369149  1
  O  O316  1  0.44442130  0.41632705  0.06339718  1
  O  O317  1  0.44337390  0.41600649  0.31324947  1
  O  O318  1  0.44049887  0.41588608  0.56174533  1
  O  O319  1  0.44286713  0.41584546  0.81383736  1
  O  O320  1  0.44400241  0.75013893  0.06318125  1
  O  O321  1  0.44475729  0.75055405  0.31257667  1
  O  O322  1  0.44329231  0.75023281  0.56287035  1
  O  O323  1  0.44355851  0.75072473  0.81387218  1
  O  O324  1  0.94262499  0.08316409  0.06432033  1
  O  O325  1  0.93990333  0.08297082  0.31225591  1
  O  O326  1  0.94116961  0.08324639  0.56122000  1
  O  O327  1  0.94382697  0.08278184  0.81376310  1
  O  O328  1  0.94380046  0.41609843  0.06414800  1
  O  O329  1  0.94085782  0.41609265  0.31155908  1
  O  O330  1  0.94490099  0.41641564  0.56219232  1
  O  O331  1  0.94442165  0.41676989  0.81385438  1
  O  O332  1  0.94049934  0.75117377  0.06309259  1
  O  O333  1  0.94139656  0.75084704  0.31149770  1
  O  O334  1  0.94400606  0.75040233  0.56278644  1
  O  O335  1  0.94427393  0.75038653  0.81456134  1
  O  O336  1  0.19152744  0.08316108  0.06350986  1
  O  O337  1  0.19073802  0.08269400  0.31214027  1
  O  O338  1  0.19323788  0.08281831  0.56048340  1
  O  O339  1  0.19468516  0.08326456  0.81154942  1
  O  O340  1  0.18999554  0.41665135  0.06350587  1
  O  O341  1  0.19361870  0.41698118  0.31125504  1
  O  O342  1  0.19208301  0.41665776  0.56240809  1
  O  O343  1  0.19217022  0.41645685  0.81106591  1
  O  O344  1  0.19311402  0.75011669  0.06206274  1
  O  O345  1  0.19101209  0.75032658  0.31284411  1
  O  O346  1  0.19400337  0.75032422  0.56030154  1
  O  O347  1  0.19113183  0.74996215  0.81281231  1
  O  O348  1  0.69074111  0.08302933  0.06287242  1
  O  O349  1  0.69166218  0.08313508  0.31238317  1
  O  O350  1  0.69389262  0.08358905  0.56113031  1
  O  O351  1  0.69069963  0.08325205  0.81310827  1
  O  O352  1  0.69166273  0.41724111  0.06315507  1
  O  O353  1  0.69128750  0.41778258  0.31225977  1
  O  O354  1  0.69331254  0.41701732  0.56065732  1
  O  O355  1  0.69469849  0.41697518  0.81132161  1
  O  O356  1  0.69154857  0.74966658  0.06345043  1
  O  O357  1  0.69063187  0.74925290  0.31265406  1
  O  O358  1  0.69299052  0.74941983  0.56067940  1
  O  O359  1  0.69436332  0.74959862  0.81141049  1
  O  O360  1  0.30662354  0.24960848  0.18808132  1
  O  O361  1  0.30591458  0.25017169  0.43729052  1
  O  O362  1  0.30548523  0.24970895  0.68865800  1
  O  O363  1  0.30663595  0.24991643  0.93917003  1
  O  O364  1  0.30949023  0.58334340  0.18750772  1
  O  O365  1  0.30916314  0.58357229  0.43682483  1
  O  O366  1  0.30800251  0.58351669  0.68736398  1
  O  O367  1  0.30559967  0.58344664  0.93942140  1
  O  O368  1  0.31063707  0.91644898  0.18732243  1
  O  O369  1  0.30898907  0.91654089  0.43595807  1
  O  O370  1  0.30682680  0.91670201  0.68893504  1
  O  O371  1  0.30889673  0.91659748  0.93858161  1
  O  O372  1  0.80822624  0.24982065  0.18663583  1
  O  O373  1  0.80586391  0.24972891  0.43814102  1
  O  O374  1  0.80976573  0.25042943  0.68792879  1
  O  O375  1  0.80872215  0.24980129  0.93837523  1
  O  O376  1  0.80946976  0.58294041  0.18732170  1
  O  O377  1  0.80924675  0.58362337  0.43646193  1
  O  O378  1  0.80749311  0.58318436  0.68919518  1
  O  O379  1  0.80999940  0.58340509  0.93855182  1
  O  O380  1  0.80602213  0.91686142  0.18860582  1
  O  O381  1  0.80788993  0.91665431  0.43655268  1
  O  O382  1  0.80637051  0.91691338  0.68873328  1
  O  O383  1  0.80540855  0.91685267  0.93893316  1
  O  O384  1  0.23349446  0.24871413  0.04063152  1
  O  O385  1  0.23193915  0.25028851  0.28866440  1
  O  O386  1  0.23160673  0.24947556  0.53840737  1
  O  O387  1  0.23325469  0.24937027  0.79142078  1
  O  O388  1  0.23154925  0.58407940  0.04031046  1
  O  O389  1  0.23359587  0.58257489  0.28711688  1
  O  O390  1  0.23370601  0.58373778  0.53697154  1
  O  O391  1  0.23371469  0.58255790  0.78834480  1
  O  O392  1  0.23418698  0.91633464  0.03922339  1
  O  O393  1  0.23596209  0.91743335  0.28746612  1
  O  O394  1  0.23265751  0.91681443  0.53584587  1
  O  O395  1  0.23481656  0.91750648  0.79134486  1
  O  O396  1  0.73355833  0.24924570  0.03838643  1
  O  O397  1  0.73313807  0.24970010  0.28683942  1
  O  O398  1  0.73236821  0.24939853  0.53961905  1
  O  O399  1  0.73542127  0.25021612  0.78876455  1
  O  O400  1  0.73588514  0.58366735  0.03949862  1
  O  O401  1  0.73556544  0.58356704  0.28827318  1
  O  O402  1  0.73434719  0.58334558  0.53702409  1
  O  O403  1  0.73488334  0.58338844  0.79159000  1
  O  O404  1  0.73129123  0.91648374  0.04015369  1
  O  O405  1  0.73238789  0.91703028  0.28951990  1
  O  O406  1  0.73252755  0.91747428  0.53687356  1
  O  O407  1  0.73333661  0.91627185  0.79064966  1
  O  O408  1  0.26637061  0.08276040  0.21227781  1
  O  O409  1  0.26515371  0.08385775  0.45807726  1
  O  O410  1  0.26828182  0.08284408  0.70972471  1
  O  O411  1  0.26723709  0.08273912  0.96358551  1
  O  O412  1  0.26538256  0.41642058  0.20880406  1
  O  O413  1  0.26655421  0.41701223  0.46120520  1
  O  O414  1  0.26510358  0.41633391  0.70929908  1
  O  O415  1  0.26454032  0.41708592  0.96250122  1
  O  O416  1  0.26545906  0.75002945  0.21210613  1
  O  O417  1  0.26555299  0.74982424  0.45756001  1
  O  O418  1  0.26554665  0.75070877  0.71157703  1
  O  O419  1  0.26524710  0.74979280  0.95969203  1
  O  O420  1  0.76615150  0.08286266  0.21167417  1
  O  O421  1  0.76680868  0.08390709  0.45915637  1
  O  O422  1  0.76535801  0.08326480  0.71229818  1
  O  O423  1  0.76408684  0.08331456  0.96138027  1
  O  O424  1  0.76671462  0.41653098  0.21209330  1
  O  O425  1  0.76579770  0.41570737  0.45855642  1
  O  O426  1  0.76734848  0.41681339  0.70905826  1
  O  O427  1  0.76614639  0.41627237  0.96248409  1
  O  O428  1  0.76632421  0.75023928  0.21301857  1
  O  O429  1  0.76550193  0.75045445  0.45870386  1
  O  O430  1  0.76705398  0.75025695  0.70899031  1
  O  O431  1  0.76697423  0.75041328  0.96315108  1
  O  O432  1  0.01678345  0.08317666  0.16527734  1
  O  O433  1  0.01561731  0.08292986  0.41188176  1
  O  O434  1  0.01518342  0.08371080  0.66270464  1
  O  O435  1  0.01635679  0.08407843  0.91602429  1
  O  O436  1  0.01691276  0.41629287  0.16601533  1
  O  O437  1  0.01554994  0.41695867  0.41182565  1
  O  O438  1  0.01842588  0.41614022  0.66418961  1
  O  O439  1  0.01582646  0.41650732  0.91677012  1
  O  O440  1  0.01449830  0.75026902  0.16374959  1
  O  O441  1  0.01655323  0.75033144  0.41192234  1
  O  O442  1  0.01721500  0.74955953  0.66458014  1
  O  O443  1  0.01706887  0.74990293  0.91659350  1
  O  O444  1  0.51704821  0.08319726  0.16275283  1
  O  O445  1  0.51779606  0.08309501  0.41141111  1
  O  O446  1  0.51562544  0.08343739  0.66522010  1
  O  O447  1  0.51589346  0.08312061  0.91452791  1
  O  O448  1  0.51868811  0.41712174  0.16443368  1
  O  O449  1  0.51707576  0.41674677  0.41434902  1
  O  O450  1  0.51476911  0.41657747  0.66300461  1
  O  O451  1  0.51648114  0.41656958  0.91515031  1
  O  O452  1  0.51803883  0.75015213  0.16435239  1
  O  O453  1  0.51808037  0.74980094  0.41413473  1
  O  O454  1  0.51564150  0.75028553  0.66542510  1
  O  O455  1  0.51638969  0.75084782  0.91588915  1
  O  O456  1  0.48625150  0.24988284  0.08702833  1
  O  O457  1  0.48606407  0.25035562  0.33568291  1
  O  O458  1  0.48388548  0.24962880  0.58389983  1
  O  O459  1  0.48472036  0.24952102  0.83697077  1
  O  O460  1  0.48255707  0.58352675  0.08535123  1
  O  O461  1  0.48203870  0.58331377  0.33504356  1
  O  O462  1  0.48155862  0.58322411  0.58525001  1
  O  O463  1  0.48318454  0.58340374  0.83537613  1
  O  O464  1  0.48427315  0.91699126  0.08776077  1
  O  O465  1  0.48475394  0.91685225  0.33625525  1
  O  O466  1  0.48414682  0.91680777  0.58335473  1
  O  O467  1  0.48273025  0.91757581  0.83768310  1
  O  O468  1  0.98266118  0.24986264  0.08831058  1
  O  O469  1  0.98509772  0.24918553  0.33689819  1
  O  O470  1  0.98269281  0.25006370  0.58326736  1
  O  O471  1  0.98155948  0.24990189  0.83550075  1
  O  O472  1  0.98309689  0.58306606  0.08833456  1
  O  O473  1  0.98420375  0.58377494  0.33688960  1
  O  O474  1  0.98486347  0.58335706  0.58271223  1
  O  O475  1  0.98301182  0.58370501  0.83761787  1
  O  O476  1  0.98409326  0.91742705  0.08490037  1
  O  O477  1  0.98282579  0.91662104  0.33667315  1
  O  O478  1  0.98433696  0.91685202  0.58387050  1
  O  O479  1  0.98467101  0.91622808  0.83705471  1
  O  O480  1  0.08640759  0.31467782  0.07901638  1
  O  O481  1  0.08909260  0.31373985  0.32692761  1
  O  O482  1  0.08671852  0.31571193  0.57637623  1
  O  O483  1  0.08548422  0.31462207  0.82768638  1
  O  O484  1  0.08714585  0.64723109  0.07781280  1
  O  O485  1  0.08769903  0.64957243  0.32684525  1
  O  O486  1  0.08958151  0.64685715  0.57608311  1
  O  O487  1  0.08626264  0.64986113  0.82888360  1
  O  O488  1  0.08791740  0.98328372  0.07772804  1
  O  O489  1  0.08649559  0.98176844  0.32728089  1
  O  O490  1  0.08823611  0.98201742  0.57607298  1
  O  O491  1  0.08815197  0.98099365  0.82804166  1
  O  O492  1  0.59006600  0.31506932  0.07834674  1
  O  O493  1  0.59004857  0.31535037  0.32810023  1
  O  O494  1  0.58796328  0.31482183  0.57660545  1
  O  O495  1  0.58848480  0.31387918  0.82797039  1
  O  O496  1  0.58648591  0.64871580  0.07765747  1
  O  O497  1  0.58633960  0.64788935  0.32724451  1
  O  O498  1  0.58539634  0.64836018  0.57689501  1
  O  O499  1  0.58684718  0.64871269  0.82725330  1
  O  O500  1  0.58808356  0.98182118  0.07797705  1
  O  O501  1  0.58864063  0.98181527  0.32679373  1
  O  O502  1  0.58807600  0.98201508  0.57643954  1
  O  O503  1  0.58624019  0.98292035  0.82871474  1
  O  O504  1  0.41319987  0.01779309  0.17279039  1
  O  O505  1  0.41408926  0.01776390  0.42100921  1
  O  O506  1  0.41176462  0.01828861  0.67252391  1
  O  O507  1  0.41217091  0.01759981  0.92354745  1
  O  O508  1  0.41503357  0.35217464  0.17343195  1
  O  O509  1  0.41289443  0.35200696  0.42311223  1
  O  O510  1  0.41126675  0.35179084  0.67184833  1
  O  O511  1  0.41292016  0.35119440  0.92365002  1
  O  O512  1  0.41403057  0.68492651  0.17249988  1
  O  O513  1  0.41363137  0.68550553  0.42152350  1
  O  O514  1  0.41203876  0.68432633  0.67170184  1
  O  O515  1  0.41237739  0.68624301  0.92316168  1
  O  O516  1  0.91228319  0.01901327  0.17392564  1
  O  O517  1  0.91201650  0.01704664  0.42225745  1
  O  O518  1  0.91150234  0.01926312  0.67149400  1
  O  O519  1  0.91269354  0.01886995  0.92347012  1
  O  O520  1  0.91275832  0.35122764  0.17377285  1
  O  O521  1  0.91210055  0.35207612  0.42175527  1
  O  O522  1  0.91458096  0.35062553  0.67113136  1
  O  O523  1  0.91206903  0.35125301  0.92263951  1
  O  O524  1  0.91091025  0.68466644  0.17256730  1
  O  O525  1  0.91309020  0.68510966  0.42132321  1
  O  O526  1  0.91334442  0.68492691  0.67181432  1
  O  O527  1  0.91301746  0.68450635  0.92357451  1
  O  O528  1  0.16206523  0.01905066  0.20168294  1
  O  O529  1  0.16152416  0.01789285  0.45092630  1
  O  O530  1  0.16420836  0.01831229  0.70213183  1
  O  O531  1  0.16404275  0.01676040  0.95361651  1
  O  O532  1  0.16110177  0.35156312  0.20249782  1
  O  O533  1  0.16275103  0.35188284  0.45257974  1
  O  O534  1  0.16119983  0.35111744  0.70181393  1
  O  O535  1  0.16091267  0.35244655  0.95349428  1
  O  O536  1  0.16199008  0.68428016  0.20335380  1
  O  O537  1  0.16132392  0.68504504  0.45157222  1
  O  O538  1  0.16233376  0.68514389  0.70275587  1
  O  O539  1  0.16097964  0.68513916  0.95303422  1
  O  O540  1  0.66214523  0.01790573  0.20264091  1
  O  O541  1  0.66268334  0.01891331  0.45147245  1
  O  O542  1  0.66188891  0.01816830  0.70314029  1
  O  O543  1  0.66029966  0.01797853  0.95332418  1
  O  O544  1  0.66269131  0.35165822  0.20262146  1
  O  O545  1  0.66184214  0.35042881  0.45216952  1
  O  O546  1  0.66331588  0.35208941  0.70224145  1
  O  O547  1  0.66268858  0.35059852  0.95380289  1
  O  O548  1  0.66256510  0.68552434  0.20187182  1
  O  O549  1  0.66149575  0.68550217  0.45089587  1
  O  O550  1  0.66365059  0.68450860  0.70206002  1
  O  O551  1  0.66348363  0.68559984  0.95295412  1
  O  O552  1  0.33697956  0.31438770  0.04879652  1
  O  O553  1  0.33625049  0.31412156  0.29756037  1
  O  O554  1  0.33493421  0.31576530  0.54690581  1
  O  O555  1  0.33711109  0.31397264  0.79801025  1
  O  O556  1  0.33593513  0.64849334  0.04897462  1
  O  O557  1  0.33723739  0.64795497  0.29803787  1
  O  O558  1  0.33781293  0.64778475  0.54715660  1
  O  O559  1  0.33688180  0.64830926  0.79754800  1
  O  O560  1  0.33802329  0.98210142  0.04851798  1
  O  O561  1  0.33970756  0.98288405  0.29692556  1
  O  O562  1  0.33634428  0.98175447  0.54595217  1
  O  O563  1  0.33857778  0.98321864  0.79769379  1
  O  O564  1  0.83737209  0.31453337  0.04879565  1
  O  O565  1  0.83672238  0.31474506  0.29695928  1
  O  O566  1  0.83680012  0.31358353  0.54792402  1
  O  O567  1  0.83917877  0.31527620  0.79792950  1
  O  O568  1  0.83935546  0.64954385  0.04797284  1
  O  O569  1  0.83949218  0.64847422  0.29694266  1
  O  O570  1  0.83788842  0.64844095  0.54646505  1
  O  O571  1  0.83891591  0.64838362  0.79841707  1
  O  O572  1  0.83499903  0.98136739  0.04860131  1
  O  O573  1  0.83666428  0.98178534  0.29802339  1
  O  O574  1  0.83597630  0.98312873  0.54616599  1
  O  O575  1  0.83690539  0.98164201  0.79839406  1
  O  O576  1  0.41310200  0.14784995  0.17356242  1
  O  O577  1  0.41414831  0.14791734  0.42183911  1
  O  O578  1  0.41163904  0.14833331  0.67293216  1
  O  O579  1  0.41195516  0.14757213  0.92410928  1
  O  O580  1  0.41456873  0.48236471  0.17230165  1
  O  O581  1  0.41282152  0.48209927  0.42221632  1
  O  O582  1  0.41123903  0.48222621  0.67101754  1
  O  O583  1  0.41243630  0.48134698  0.92306166  1
  O  O584  1  0.41420708  0.81518249  0.17271246  1
  O  O585  1  0.41463552  0.81575057  0.42206076  1
  O  O586  1  0.41172158  0.81472390  0.67190681  1
  O  O587  1  0.41274484  0.81644001  0.92299047  1
  O  O588  1  0.91288275  0.14898571  0.17384946  1
  O  O589  1  0.91156120  0.14716935  0.42265590  1
  O  O590  1  0.91180552  0.14962275  0.67030217  1
  O  O591  1  0.91230651  0.14904757  0.92244779  1
  O  O592  1  0.91280799  0.48121064  0.17356997  1
  O  O593  1  0.91219249  0.48250127  0.42105514  1
  O  O594  1  0.91467540  0.48085929  0.67179656  1
  O  O595  1  0.91210452  0.48162413  0.92283775  1
  O  O596  1  0.91050199  0.81480976  0.17330911  1
  O  O597  1  0.91289234  0.81543422  0.42174762  1
  O  O598  1  0.91384301  0.81524501  0.67231832  1
  O  O599  1  0.91276401  0.81445582  0.92426812  1
  O  O600  1  0.08613827  0.18434825  0.07860875  1
  O  O601  1  0.08867740  0.18357498  0.32760371  1
  O  O602  1  0.08703838  0.18569577  0.57596875  1
  O  O603  1  0.08520126  0.18452070  0.82694396  1
  O  O604  1  0.08647879  0.51708733  0.07843144  1
  O  O605  1  0.08824143  0.51945803  0.32653926  1
  O  O606  1  0.08825418  0.51678418  0.57665429  1
  O  O607  1  0.08692816  0.51970434  0.82861309  1
  O  O608  1  0.08850178  0.85318841  0.07718981  1
  O  O609  1  0.08668457  0.85169735  0.32717410  1
  O  O610  1  0.08849969  0.85204884  0.57620743  1
  O  O611  1  0.08805676  0.85051710  0.82922884  1
  O  O612  1  0.58984257  0.18471714  0.07823457  1
  O  O613  1  0.58988626  0.18509942  0.32729039  1
  O  O614  1  0.58803161  0.18496770  0.57654574  1
  O  O615  1  0.58789013  0.18355951  0.82885853  1
  O  O616  1  0.58667250  0.51852804  0.07759229  1
  O  O617  1  0.58591128  0.51779303  0.32721267  1
  O  O618  1  0.58551096  0.51835016  0.57667734  1
  O  O619  1  0.58688029  0.51834227  0.82700434  1
  O  O620  1  0.58793118  0.85158384  0.07799617  1
  O  O621  1  0.58850263  0.85165241  0.32739601  1
  O  O622  1  0.58847319  0.85207866  0.57683501  1
  O  O623  1  0.58635374  0.85270499  0.82801655  1
  O  O624  1  0.33781089  0.18418696  0.04810762  1
  O  O625  1  0.33537847  0.18390777  0.29772609  1
  O  O626  1  0.33594636  0.18561812  0.54665859  1
  O  O627  1  0.33702500  0.18367747  0.79729734  1
  O  O628  1  0.33561755  0.51860647  0.04918852  1
  O  O629  1  0.33755450  0.51786285  0.29750993  1
  O  O630  1  0.33708379  0.51758117  0.54681606  1
  O  O631  1  0.33740720  0.51805075  0.79713008  1
  O  O632  1  0.33833870  0.85210182  0.04865728  1
  O  O633  1  0.33982175  0.85276840  0.29782489  1
  O  O634  1  0.33596821  0.85154409  0.54634554  1
  O  O635  1  0.33897123  0.85317445  0.79877385  1
  O  O636  1  0.83744591  0.18456465  0.04844843  1
  O  O637  1  0.83664561  0.18455894  0.29671832  1
  O  O638  1  0.83620849  0.18359961  0.54721677  1
  O  O639  1  0.83908094  0.18525337  0.79804809  1
  O  O640  1  0.83992852  0.51931931  0.04871312  1
  O  O641  1  0.83928110  0.51818397  0.29717070  1
  O  O642  1  0.83783359  0.51820273  0.54633136  1
  O  O643  1  0.83891734  0.51837045  0.79845728  1
  O  O644  1  0.83531699  0.85132858  0.04826240  1
  O  O645  1  0.83638267  0.85171570  0.29829045  1
  O  O646  1  0.83627219  0.85289421  0.54701494  1
  O  O647  1  0.83735382  0.85157577  0.79787123  1
  O  O648  1  0.16293766  0.14909076  0.20225719  1
  O  O649  1  0.16055644  0.14799729  0.45186999  1
  O  O650  1  0.16443995  0.14825441  0.70215040  1
  O  O651  1  0.16334248  0.14697666  0.95288036  1
  O  O652  1  0.16128331  0.48168100  0.20229346  1
  O  O653  1  0.16294860  0.48208098  0.45250610  1
  O  O654  1  0.16104886  0.48109264  0.70152149  1
  O  O655  1  0.16130778  0.48305844  0.95409903  1
  O  O656  1  0.16173727  0.81454372  0.20283789  1
  O  O657  1  0.16150380  0.81518838  0.45111594  1
  O  O658  1  0.16200014  0.81535173  0.70305750  1
  O  O659  1  0.16156483  0.81542836  0.95307308  1
  O  O660  1  0.66227842  0.14798316  0.20232008  1
  O  O661  1  0.66273247  0.14889230  0.45183526  1
  O  O662  1  0.66201764  0.14831490  0.70304530  1
  O  O663  1  0.66035801  0.14827727  0.95318041  1
  O  O664  1  0.66313426  0.48175116  0.20168913  1
  O  O665  1  0.66174154  0.48057674  0.45076232  1
  O  O666  1  0.66369002  0.48217060  0.70205732  1
  O  O667  1  0.66251705  0.48103784  0.95299487  1
  O  O668  1  0.66257168  0.81569564  0.20302174  1
  O  O669  1  0.66145117  0.81560550  0.45194213  1
  O  O670  1  0.66285732  0.81468554  0.70256469  1
  O  O671  1  0.66328126  0.81581395  0.95366244  1
