# generated using pymatgen
data_Na2MnFe(PO4)2
_symmetry_space_group_name_H-M   'P 1'
_cell_length_a   21.08471402
_cell_length_b   18.93704639
_cell_length_c   20.04326695
_cell_angle_alpha   90.00049159
_cell_angle_beta   89.99867058
_cell_angle_gamma   89.99865941
_symmetry_Int_Tables_number   1
_chemical_formula_structural   Na2MnFe(PO4)2
_chemical_formula_sum   'Na96 Mn48 Fe48 P96 O384'
_cell_volume   8002.91987261
_cell_formula_units_Z   48
loop_
 _symmetry_equiv_pos_site_id
 _symmetry_equiv_pos_as_xyz
  1  'x, y, z'
loop_
 _atom_site_type_symbol
 _atom_site_label
 _atom_site_symmetry_multiplicity
 _atom_site_fract_x
 _atom_site_fract_y
 _atom_site_fract_z
 _atom_site_occupancy
  Na  Na0  1  -0.00183905  -0.00085762  0.00017749  1
  Na  Na1  1  -0.00163992  -0.00003033  0.25056840  1
  Na  Na2  1  -0.00200557  -0.00060301  0.49969552  1
  Na  Na3  1  -0.00150620  -0.00074097  0.75018017  1
  Na  Na4  1  0.00252845  0.33412547  -0.00142519  1
  Na  Na5  1  0.00210866  0.33385699  0.25073638  1
  Na  Na6  1  0.00196102  0.33387692  0.50071567  1
  Na  Na7  1  0.00139973  0.33391482  0.74990122  1
  Na  Na8  1  -0.00064585  0.66631847  0.00044733  1
  Na  Na9  1  0.00203171  0.66672527  0.25051257  1
  Na  Na10  1  0.00303298  0.66700979  0.49958944  1
  Na  Na11  1  -0.00012004  0.66673856  0.74968362  1
  Na  Na12  1  0.49857058  -0.00019111  0.00029533  1
  Na  Na13  1  0.49649344  -0.00032831  0.24946191  1
  Na  Na14  1  0.49850338  -0.00015825  0.50018322  1
  Na  Na15  1  0.50177156  0.00106888  0.74952234  1
  Na  Na16  1  0.49942459  0.33345862  -0.00120208  1
  Na  Na17  1  0.49626833  0.33269741  0.25051535  1
  Na  Na18  1  0.49737836  0.33298936  0.50051947  1
  Na  Na19  1  0.49992785  0.33369365  0.74968402  1
  Na  Na20  1  0.50208932  0.66653894  -0.00086907  1
  Na  Na21  1  0.50165263  0.66618735  0.25020115  1
  Na  Na22  1  0.50179455  0.66619898  0.50062056  1
  Na  Na23  1  0.50209938  0.66660330  0.75054892  1
  Na  Na24  1  0.25352223  0.00044854  0.12573330  1
  Na  Na25  1  0.25342074  0.00059631  0.37454904  1
  Na  Na26  1  0.25128979  0.00010416  0.62424914  1
  Na  Na27  1  0.25116814  -0.00022002  0.87484752  1
  Na  Na28  1  0.24963307  0.33349134  0.12561450  1
  Na  Na29  1  0.25116055  0.33428752  0.37466684  1
  Na  Na30  1  0.24916973  0.33359596  0.62370756  1
  Na  Na31  1  0.24807343  0.33319857  0.87587387  1
  Na  Na32  1  0.25049963  0.66682954  0.12557250  1
  Na  Na33  1  0.24871385  0.66546749  0.37528545  1
  Na  Na34  1  0.24927264  0.66645705  0.62441954  1
  Na  Na35  1  0.24939337  0.66664840  0.87415266  1
  Na  Na36  1  0.75131305  0.00071080  0.12524165  1
  Na  Na37  1  0.75045965  0.00106398  0.37440646  1
  Na  Na38  1  0.74950411  0.00046726  0.62565811  1
  Na  Na39  1  0.75059701  0.00039022  0.87506479  1
  Na  Na40  1  0.74814259  0.33271217  0.12550389  1
  Na  Na41  1  0.75107333  0.33408884  0.37468536  1
  Na  Na42  1  0.75144568  0.33417783  0.62465911  1
  Na  Na43  1  0.74929887  0.33327095  0.87530751  1
  Na  Na44  1  0.74798969  0.66601813  0.12520506  1
  Na  Na45  1  0.74678432  0.66591797  0.37433231  1
  Na  Na46  1  0.74853782  0.66639863  0.62497459  1
  Na  Na47  1  0.74847266  0.66609416  0.87603376  1
  Na  Na48  1  0.00188463  0.16602336  -0.00008214  1
  Na  Na49  1  -0.00119595  0.16756630  0.25109756  1
  Na  Na50  1  0.00059222  0.16662877  0.50026068  1
  Na  Na51  1  0.00160257  0.16663348  0.74929813  1
  Na  Na52  1  -0.00111741  0.50048535  -0.00018229  1
  Na  Na53  1  0.00209100  0.49977216  0.25093070  1
  Na  Na54  1  0.00226723  0.49933332  0.50013883  1
  Na  Na55  1  -0.00091710  0.50015734  0.74953724  1
  Na  Na56  1  -0.00009977  0.83316426  -0.00052148  1
  Na  Na57  1  -0.00044351  0.83384469  0.24945024  1
  Na  Na58  1  0.00233469  0.83155943  0.49979057  1
  Na  Na59  1  -0.00056867  0.83295266  0.75078443  1
  Na  Na60  1  0.49968656  0.16680494  -0.00017543  1
  Na  Na61  1  0.49695928  0.16727557  0.24904128  1
  Na  Na62  1  0.50056999  0.16618119  0.50060446  1
  Na  Na63  1  0.50353689  0.16579515  0.74953801  1
  Na  Na64  1  0.50025288  0.50006927  -0.00080607  1
  Na  Na65  1  0.49805587  0.50097118  0.25078265  1
  Na  Na66  1  0.49775960  0.50091731  0.50052732  1
  Na  Na67  1  0.49922122  0.50079765  0.74976470  1
  Na  Na68  1  0.50109409  0.83196421  -0.00070666  1
  Na  Na69  1  0.49922538  0.83318528  0.25013460  1
  Na  Na70  1  0.50134495  0.83201146  0.50061035  1
  Na  Na71  1  0.50060126  0.83263217  0.75021163  1
  Na  Na72  1  0.25279962  0.16580811  0.12529787  1
  Na  Na73  1  0.25161093  0.16697938  0.37390473  1
  Na  Na74  1  0.24842333  0.16818585  0.62418557  1
  Na  Na75  1  0.24918544  0.16724136  0.87498749  1
  Na  Na76  1  0.25159648  0.49994726  0.12571950  1
  Na  Na77  1  0.25092642  0.50014861  0.37531754  1
  Na  Na78  1  0.25057540  0.50028160  0.62438729  1
  Na  Na79  1  0.25164576  0.49956137  0.87522891  1
  Na  Na80  1  0.24960377  0.83311188  0.12584637  1
  Na  Na81  1  0.25028426  0.83320243  0.37533011  1
  Na  Na82  1  0.24962095  0.83291983  0.62405263  1
  Na  Na83  1  0.24800786  0.83341979  0.87452355  1
  Na  Na84  1  0.74917245  0.16624675  0.12567707  1
  Na  Na85  1  0.74997292  0.16603497  0.37521015  1
  Na  Na86  1  0.74849574  0.16668413  0.62510588  1
  Na  Na87  1  0.74635228  0.16797504  0.87457427  1
  Na  Na88  1  0.74940107  0.50061307  0.12483939  1
  Na  Na89  1  0.74917156  0.50081599  0.37403069  1
  Na  Na90  1  0.75070394  0.50047760  0.62498318  1
  Na  Na91  1  0.75100711  0.50022035  0.87557078  1
  Na  Na92  1  0.74943485  0.83303657  0.12516383  1
  Na  Na93  1  0.74780309  0.83362509  0.37431741  1
  Na  Na94  1  0.74991723  0.83240608  0.62504211  1
  Na  Na95  1  0.75054229  0.83252225  0.87628471  1
  Mn  Mn96  1  0.89192867  0.91579740  0.62696936  1
  Mn  Mn97  1  0.14341948  0.24987224  0.24743178  1
  Mn  Mn98  1  0.89249342  0.58365601  0.62621082  1
  Mn  Mn99  1  0.14226450  0.58292660  0.74766942  1
  Mn  Mn100  1  0.85745066  0.08430530  0.00204775  1
  Mn  Mn101  1  0.35808268  0.74963071  0.50239109  1
  Mn  Mn102  1  0.89226053  0.25019833  0.12681701  1
  Mn  Mn103  1  0.14316177  0.91689102  0.24775460  1
  Mn  Mn104  1  0.39221170  0.24967257  0.87647148  1
  Mn  Mn105  1  0.60669902  0.41603975  0.37319482  1
  Mn  Mn106  1  0.64234207  0.25100820  0.49708805  1
  Mn  Mn107  1  0.85711319  0.74976421  0.00258853  1
  Mn  Mn108  1  0.10828818  0.08350276  0.12312321  1
  Mn  Mn109  1  0.10808621  0.08284330  0.37276320  1
  Mn  Mn110  1  0.39223595  0.91637082  0.87717963  1
  Mn  Mn111  1  0.14183960  0.91711612  0.74749317  1
  Mn  Mn112  1  0.64177724  0.91703970  0.99796787  1
  Mn  Mn113  1  0.60648403  0.41670805  0.12315633  1
  Mn  Mn114  1  0.35783117  0.75039694  0.00173551  1
  Mn  Mn115  1  0.89304180  0.25013410  0.62709949  1
  Mn  Mn116  1  0.89211094  0.24971874  0.87732029  1
  Mn  Mn117  1  0.85681762  0.75000105  0.25230623  1
  Mn  Mn118  1  0.89186888  0.91588427  0.37755704  1
  Mn  Mn119  1  0.39208177  0.25030068  0.62790183  1
  Mn  Mn120  1  0.39294033  0.58370593  0.87673718  1
  Mn  Mn121  1  0.10819741  0.08279374  0.62198702  1
  Mn  Mn122  1  0.10777853  0.41787343  0.87236163  1
  Mn  Mn123  1  0.85760175  0.41604438  0.00286036  1
  Mn  Mn124  1  0.60828207  0.41641646  0.87197543  1
  Mn  Mn125  1  0.39284997  0.91550253  0.62782762  1
  Mn  Mn126  1  0.64282100  0.91645620  0.74802830  1
  Mn  Mn127  1  0.64173887  0.91658009  0.49725712  1
  Mn  Mn128  1  0.89266978  0.25078587  0.37760838  1
  Mn  Mn129  1  0.85704413  0.08371249  0.75247771  1
  Mn  Mn130  1  0.35816165  0.08389242  0.75237974  1
  Mn  Mn131  1  0.60784122  0.41710215  0.62242953  1
  Mn  Mn132  1  0.35846436  0.74934012  0.25269851  1
  Mn  Mn133  1  0.60624920  0.08307692  0.12290771  1
  Mn  Mn134  1  0.10848102  0.08238782  0.87289674  1
  Mn  Mn135  1  0.10752118  0.75015077  0.12254393  1
  Mn  Mn136  1  0.89295987  0.58329215  0.37696664  1
  Mn  Mn137  1  0.14279017  0.91737188  0.49732270  1
  Mn  Mn138  1  0.64107091  0.91685538  0.24745937  1
  Mn  Mn139  1  0.14189022  0.58394315  0.99790260  1
  Mn  Mn140  1  0.85828298  0.41635284  0.25197244  1
  Mn  Mn141  1  0.85742293  0.74972013  0.50167493  1
  Mn  Mn142  1  0.64096776  0.25043676  0.24824890  1
  Mn  Mn143  1  0.35767289  0.41647445  0.00256504  1
  Fe  Fe144  1  0.60724599  0.08264934  0.87394041  1
  Fe  Fe145  1  0.85828064  0.41680101  0.50134648  1
  Fe  Fe146  1  0.64296188  0.25136899  0.74774152  1
  Fe  Fe147  1  0.10770540  0.74964668  0.62380804  1
  Fe  Fe148  1  0.85744151  0.74916306  0.75195306  1
  Fe  Fe149  1  0.10655654  0.74984918  0.87322932  1
  Fe  Fe150  1  0.89197178  0.58397487  0.87659571  1
  Fe  Fe151  1  0.14241982  0.91730682  0.99898899  1
  Fe  Fe152  1  0.60618312  0.08312740  0.37331929  1
  Fe  Fe153  1  0.64258566  0.58252314  0.99852292  1
  Fe  Fe154  1  0.10849287  0.41707201  0.37329502  1
  Fe  Fe155  1  0.85771351  0.41705859  0.75116324  1
  Fe  Fe156  1  0.35761656  0.08317909  0.00083408  1
  Fe  Fe157  1  0.64163463  0.58252145  0.24780408  1
  Fe  Fe158  1  0.35739477  0.74954507  0.75150130  1
  Fe  Fe159  1  0.89248164  0.91647935  0.12669478  1
  Fe  Fe160  1  0.10801330  0.41743226  0.62286128  1
  Fe  Fe161  1  0.35667651  0.41680255  0.75103975  1
  Fe  Fe162  1  0.39290352  0.58402887  0.62696453  1
  Fe  Fe163  1  0.85667718  0.08386392  0.50159998  1
  Fe  Fe164  1  0.89256992  0.58328651  0.12730234  1
  Fe  Fe165  1  0.35711581  0.41707192  0.25195804  1
  Fe  Fe166  1  0.39318744  0.91613561  0.37712722  1
  Fe  Fe167  1  0.60788051  0.75054378  0.87247692  1
  Fe  Fe168  1  0.85701558  0.08365988  0.25185506  1
  Fe  Fe169  1  0.35655641  0.41674530  0.50188643  1
  Fe  Fe170  1  0.60647950  0.75002307  0.12358082  1
  Fe  Fe171  1  0.14369480  0.25021071  0.49777604  1
  Fe  Fe172  1  0.10796169  0.41695761  0.12363654  1
  Fe  Fe173  1  0.89262326  0.91616285  0.87706850  1
  Fe  Fe174  1  0.39291522  0.58372652  0.37717638  1
  Fe  Fe175  1  0.14354881  0.58288414  0.49813526  1
  Fe  Fe176  1  0.39219491  0.25001016  0.37751116  1
  Fe  Fe177  1  0.60669035  0.75021292  0.37338538  1
  Fe  Fe178  1  0.14320735  0.24908009  0.99891618  1
  Fe  Fe179  1  0.35826536  0.08373953  0.25259567  1
  Fe  Fe180  1  0.60752561  0.08290942  0.62255585  1
  Fe  Fe181  1  0.64096535  0.25031065  0.99853196  1
  Fe  Fe182  1  0.39168557  0.25068913  0.12615464  1
  Fe  Fe183  1  0.14372988  0.58308621  0.24802699  1
  Fe  Fe184  1  0.10815513  0.74980446  0.37292789  1
  Fe  Fe185  1  0.64224467  0.58239683  0.49837990  1
  Fe  Fe186  1  0.14263448  0.25018992  0.74835477  1
  Fe  Fe187  1  0.35787694  0.08414573  0.50181048  1
  Fe  Fe188  1  0.64363071  0.58274601  0.74834337  1
  Fe  Fe189  1  0.39193679  0.91543531  0.12616429  1
  Fe  Fe190  1  0.60778619  0.74998378  0.62391799  1
  Fe  Fe191  1  0.39308366  0.58359446  0.12660505  1
  P  P192  1  0.05428328  0.25076207  0.10954516  1
  P  P193  1  0.05566651  0.25072744  0.36139526  1
  P  P194  1  0.05618845  0.25105055  0.61037685  1
  P  P195  1  0.05550967  0.24981383  0.86029712  1
  P  P196  1  0.05336956  0.58247198  0.11136846  1
  P  P197  1  0.05641029  0.58295953  0.36086284  1
  P  P198  1  0.05462285  0.58329163  0.60950214  1
  P  P199  1  0.05182678  0.58437433  0.85993683  1
  P  P200  1  0.05260962  0.91714345  0.10962882  1
  P  P201  1  0.05366142  0.91599602  0.35972479  1
  P  P202  1  0.05333742  0.91559632  0.60969413  1
  P  P203  1  0.05339909  0.91570731  0.86140395  1
  P  P204  1  0.55121897  0.25033050  0.10972828  1
  P  P205  1  0.55103870  0.24935052  0.36029914  1
  P  P206  1  0.55475941  0.25021377  0.61079596  1
  P  P207  1  0.55503231  0.24918251  0.86008689  1
  P  P208  1  0.55351942  0.58351319  0.11049699  1
  P  P209  1  0.55388344  0.58318619  0.36106878  1
  P  P210  1  0.55449475  0.58376301  0.61102853  1
  P  P211  1  0.55597218  0.58363275  0.86019809  1
  P  P212  1  0.55120153  0.91600445  0.11008492  1
  P  P213  1  0.55179936  0.91709610  0.36018864  1
  P  P214  1  0.55388903  0.91615459  0.61024419  1
  P  P215  1  0.55343940  0.91684382  0.85999677  1
  P  P216  1  0.44355910  0.08324875  0.13867820  1
  P  P217  1  0.44567123  0.08357191  0.38961057  1
  P  P218  1  0.44703511  0.08356853  0.63906790  1
  P  P219  1  0.44737965  0.08348834  0.89019888  1
  P  P220  1  0.44541263  0.41719006  0.14044050  1
  P  P221  1  0.44411858  0.41713672  0.38978520  1
  P  P222  1  0.44461510  0.41786790  0.63942565  1
  P  P223  1  0.44543727  0.41662380  0.88838798  1
  P  P224  1  0.44753780  0.74917442  0.13963895  1
  P  P225  1  0.44791801  0.74924807  0.39016128  1
  P  P226  1  0.44765315  0.74848300  0.64076848  1
  P  P227  1  0.44728439  0.74964519  0.88865729  1
  P  P228  1  0.94610823  0.08305912  0.14074505  1
  P  P229  1  0.94488736  0.08354723  0.38993162  1
  P  P230  1  0.94558886  0.08338155  0.63900209  1
  P  P231  1  0.94675483  0.08281249  0.88991947  1
  P  P232  1  0.94836067  0.41702951  0.14013591  1
  P  P233  1  0.94830576  0.41705715  0.39078349  1
  P  P234  1  0.94660438  0.41694992  0.63917204  1
  P  P235  1  0.94492423  0.41754522  0.88864215  1
  P  P236  1  0.94611300  0.74974816  0.14008648  1
  P  P237  1  0.94820400  0.74928411  0.38980232  1
  P  P238  1  0.94735149  0.74944991  0.64029484  1
  P  P239  1  0.94568120  0.74948601  0.88903538  1
  P  P240  1  0.19902982  0.08322057  0.23511954  1
  P  P241  1  0.19864338  0.08410061  0.48433818  1
  P  P242  1  0.19714245  0.08385629  0.73451601  1
  P  P243  1  0.19823477  0.08277091  0.98555990  1
  P  P244  1  0.19647767  0.41774172  0.23595738  1
  P  P245  1  0.19624747  0.41698363  0.48564798  1
  P  P246  1  0.19707023  0.41652430  0.73421565  1
  P  P247  1  0.19528217  0.41651302  0.98651813  1
  P  P248  1  0.19598454  0.74911747  0.23630041  1
  P  P249  1  0.19520017  0.74915501  0.48555335  1
  P  P250  1  0.19610295  0.74976875  0.73528154  1
  P  P251  1  0.19569264  0.75091374  0.98435610  1
  P  P252  1  0.69548899  0.08347148  0.23605605  1
  P  P253  1  0.69550091  0.08345035  0.48510108  1
  P  P254  1  0.69437278  0.08402483  0.73573470  1
  P  P255  1  0.69537349  0.08389759  0.98480906  1
  P  P256  1  0.69609830  0.41726177  0.23507170  1
  P  P257  1  0.69816777  0.41759932  0.48479019  1
  P  P258  1  0.69813570  0.41734481  0.73486717  1
  P  P259  1  0.69591411  0.41681156  0.98545863  1
  P  P260  1  0.69346743  0.74927896  0.23546285  1
  P  P261  1  0.69438255  0.74893434  0.48534128  1
  P  P262  1  0.69649373  0.74916962  0.73599422  1
  P  P263  1  0.69395284  0.74924541  0.98619233  1
  P  P264  1  0.30281115  0.24944483  0.01510013  1
  P  P265  1  0.30591940  0.25079782  0.26423366  1
  P  P266  1  0.30405895  0.25027768  0.51352126  1
  P  P267  1  0.30187378  0.25141187  0.76475825  1
  P  P268  1  0.30400299  0.58395820  0.01563724  1
  P  P269  1  0.30467848  0.58285520  0.26468595  1
  P  P270  1  0.30447017  0.58290645  0.51436547  1
  P  P271  1  0.30467111  0.58350261  0.76336639  1
  P  P272  1  0.30246296  0.91664815  0.01527388  1
  P  P273  1  0.30610319  0.91646502  0.26472422  1
  P  P274  1  0.30552377  0.91713303  0.51377900  1
  P  P275  1  0.30344722  0.91537583  0.76467422  1
  P  P276  1  0.80096045  0.24995312  0.01522200  1
  P  P277  1  0.80316298  0.24934022  0.26516986  1
  P  P278  1  0.80368564  0.25010877  0.51492515  1
  P  P279  1  0.80231448  0.25083063  0.76470170  1
  P  P280  1  0.80367490  0.58344644  0.01489798  1
  P  P281  1  0.80303992  0.58345387  0.26393365  1
  P  P282  1  0.80214028  0.58300457  0.51437660  1
  P  P283  1  0.80326026  0.58370274  0.76518591  1
  P  P284  1  0.80468296  0.91673848  0.01486185  1
  P  P285  1  0.80396894  0.91723837  0.26386296  1
  P  P286  1  0.80270043  0.91724647  0.51492607  1
  P  P287  1  0.80416447  0.91541952  0.76583455  1
  O  O288  1  0.05738787  0.24981060  0.18639215  1
  O  O289  1  0.06001697  0.24981418  0.43816425  1
  O  O290  1  0.05995120  0.25038596  0.68722409  1
  O  O291  1  0.06016581  0.24942038  0.93705571  1
  O  O292  1  0.05870514  0.58292232  0.18797633  1
  O  O293  1  0.06020024  0.58272479  0.43765034  1
  O  O294  1  0.05683983  0.58298398  0.68631432  1
  O  O295  1  0.05561351  0.58356109  0.93661421  1
  O  O296  1  0.05706427  0.91735605  0.18630221  1
  O  O297  1  0.05701069  0.91692287  0.43649179  1
  O  O298  1  0.05592332  0.91665333  0.68652640  1
  O  O299  1  0.05840407  0.91694989  0.93802235  1
  O  O300  1  0.55488770  0.25042613  0.18644493  1
  O  O301  1  0.55536515  0.25025094  0.43697729  1
  O  O302  1  0.55939407  0.25138610  0.68754024  1
  O  O303  1  0.55841056  0.25063289  0.93694058  1
  O  O304  1  0.55767438  0.58239167  0.18725963  1
  O  O305  1  0.55843215  0.58203272  0.43778741  1
  O  O306  1  0.55960001  0.58253293  0.68768002  1
  O  O307  1  0.55963289  0.58251183  0.93698539  1
  O  O308  1  0.55467586  0.91689384  0.18676479  1
  O  O309  1  0.55543191  0.91724515  0.43687070  1
  O  O310  1  0.55688261  0.91638819  0.68697263  1
  O  O311  1  0.55582747  0.91666579  0.93677419  1
  O  O312  1  0.44016279  0.08340971  0.06182647  1
  O  O313  1  0.44150200  0.08392383  0.31279719  1
  O  O314  1  0.44172165  0.08418337  0.56242201  1
  O  O315  1  0.44397116  0.08388408  0.81341900  1
  O  O316  1  0.44345925  0.41711503  0.06355255  1
  O  O317  1  0.44063949  0.41730213  0.31299357  1
  O  O318  1  0.44017719  0.41682885  0.56264585  1
  O  O319  1  0.44082454  0.41652870  0.81169472  1
  O  O320  1  0.44437867  0.74911468  0.06292783  1
  O  O321  1  0.44449726  0.74885329  0.31353337  1
  O  O322  1  0.44380224  0.74884463  0.56405034  1
  O  O323  1  0.44198689  0.74953640  0.81209577  1
  O  O324  1  0.94320739  0.08393579  0.06392730  1
  O  O325  1  0.94049771  0.08385635  0.31317056  1
  O  O326  1  0.94086798  0.08379854  0.56226667  1
  O  O327  1  0.94342849  0.08394543  0.81313580  1
  O  O328  1  0.94433273  0.41637670  0.06339975  1
  O  O329  1  0.94398251  0.41685508  0.31409070  1
  O  O330  1  0.94150811  0.41684165  0.56248481  1
  O  O331  1  0.94067495  0.41666467  0.81183736  1
  O  O332  1  0.94313020  0.74952434  0.06330099  1
  O  O333  1  0.94348368  0.74927985  0.31318777  1
  O  O334  1  0.94342027  0.74926089  0.56359695  1
  O  O335  1  0.94138172  0.74927774  0.81233694  1
  O  O336  1  0.19508311  0.08257744  0.06223053  1
  O  O337  1  0.19457012  0.08310532  0.31172538  1
  O  O338  1  0.19453830  0.08327881  0.56102901  1
  O  O339  1  0.19414741  0.08274528  0.81131474  1
  O  O340  1  0.19159675  0.41754464  0.06330647  1
  O  O341  1  0.19231340  0.41718885  0.31267092  1
  O  O342  1  0.19197967  0.41725794  0.56233889  1
  O  O343  1  0.19363283  0.41769020  0.81100278  1
  O  O344  1  0.19283345  0.74984508  0.06120641  1
  O  O345  1  0.19210868  0.74987691  0.31306312  1
  O  O346  1  0.19119896  0.74991993  0.56232752  1
  O  O347  1  0.19085787  0.74959379  0.81193561  1
  O  O348  1  0.69230900  0.08276393  0.06163563  1
  O  O349  1  0.68998325  0.08324757  0.31271911  1
  O  O350  1  0.69061428  0.08308225  0.56185753  1
  O  O351  1  0.69053124  0.08285120  0.81248330  1
  O  O352  1  0.69262275  0.41689898  0.06215718  1
  O  O353  1  0.69268543  0.41681276  0.31181063  1
  O  O354  1  0.69423683  0.41708201  0.56141597  1
  O  O355  1  0.69458128  0.41709971  0.81159783  1
  O  O356  1  0.68974551  0.75026811  0.06298514  1
  O  O357  1  0.68918513  0.75040504  0.31230132  1
  O  O358  1  0.69080362  0.74992841  0.56217285  1
  O  O359  1  0.69199058  0.75024910  0.81273680  1
  O  O360  1  0.30924991  0.25077708  0.18741315  1
  O  O361  1  0.30853210  0.25001574  0.43680355  1
  O  O362  1  0.30561092  0.25071755  0.68800752  1
  O  O363  1  0.30625534  0.25039184  0.93838868  1
  O  O364  1  0.30940487  0.58408597  0.18801899  1
  O  O365  1  0.30911404  0.58411168  0.43765881  1
  O  O366  1  0.30825390  0.58411265  0.68660662  1
  O  O367  1  0.30743376  0.58401165  0.93882974  1
  O  O368  1  0.30979964  0.91504768  0.18789517  1
  O  O369  1  0.30998525  0.91598372  0.43696334  1
  O  O370  1  0.30669552  0.91561221  0.68786036  1
  O  O371  1  0.30605505  0.91556085  0.93852747  1
  O  O372  1  0.80623196  0.24994616  0.18842125  1
  O  O373  1  0.80649154  0.25011666  0.43815093  1
  O  O374  1  0.80655691  0.24998255  0.68806078  1
  O  O375  1  0.80537875  0.24996841  0.93856469  1
  O  O376  1  0.80850255  0.58347160  0.18727616  1
  O  O377  1  0.80596036  0.58375719  0.43769423  1
  O  O378  1  0.80677805  0.58418541  0.68848890  1
  O  O379  1  0.80851910  0.58384578  0.93821452  1
  O  O380  1  0.80839154  0.91632383  0.18710988  1
  O  O381  1  0.80554039  0.91636884  0.43809307  1
  O  O382  1  0.80667545  0.91589527  0.68899071  1
  O  O383  1  0.80911815  0.91638987  0.93809332  1
  O  O384  1  0.23283125  0.24962320  0.04003371  1
  O  O385  1  0.23592774  0.25086954  0.28867595  1
  O  O386  1  0.23372889  0.25076439  0.53725585  1
  O  O387  1  0.23195179  0.25076223  0.78952479  1
  O  O388  1  0.23418283  0.58371958  0.04031169  1
  O  O389  1  0.23433505  0.58292795  0.28834602  1
  O  O390  1  0.23398199  0.58309061  0.53770500  1
  O  O391  1  0.23482200  0.58302309  0.78835506  1
  O  O392  1  0.23253507  0.91658354  0.04030906  1
  O  O393  1  0.23610522  0.91645984  0.28904515  1
  O  O394  1  0.23548473  0.91667268  0.53776135  1
  O  O395  1  0.23378243  0.91625976  0.78973188  1
  O  O396  1  0.73080678  0.24981818  0.03948110  1
  O  O397  1  0.73349718  0.24998172  0.29053349  1
  O  O398  1  0.73406283  0.25038435  0.54031151  1
  O  O399  1  0.73208122  0.25080473  0.78877951  1
  O  O400  1  0.73313603  0.58339878  0.03809524  1
  O  O401  1  0.73252394  0.58341909  0.28697115  1
  O  O402  1  0.73218630  0.58302283  0.53923699  1
  O  O403  1  0.73317690  0.58344476  0.78987691  1
  O  O404  1  0.73451480  0.91680516  0.03872490  1
  O  O405  1  0.73388158  0.91717510  0.28794204  1
  O  O406  1  0.73315761  0.91688850  0.54044300  1
  O  O407  1  0.73448265  0.91612487  0.79110909  1
  O  O408  1  0.26931818  0.08343264  0.21148608  1
  O  O409  1  0.26873832  0.08403227  0.46000080  1
  O  O410  1  0.26675608  0.08403401  0.70907373  1
  O  O411  1  0.26811987  0.08324679  0.96010699  1
  O  O412  1  0.26684255  0.41690918  0.21224246  1
  O  O413  1  0.26666074  0.41690917  0.46185867  1
  O  O414  1  0.26701691  0.41703994  0.70939705  1
  O  O415  1  0.26519385  0.41665517  0.96191914  1
  O  O416  1  0.26594593  0.74942946  0.21195758  1
  O  O417  1  0.26535396  0.74945272  0.46149106  1
  O  O418  1  0.26646718  0.74949079  0.71164982  1
  O  O419  1  0.26539077  0.74999904  0.95922194  1
  O  O420  1  0.76586354  0.08346897  0.21268376  1
  O  O421  1  0.76595097  0.08373035  0.46186207  1
  O  O422  1  0.76447553  0.08343344  0.71157399  1
  O  O423  1  0.76502977  0.08400967  0.95956485  1
  O  O424  1  0.76576142  0.41686773  0.20989919  1
  O  O425  1  0.76820918  0.41730077  0.46011925  1
  O  O426  1  0.76817568  0.41740665  0.71016305  1
  O  O427  1  0.76558581  0.41672794  0.96028341  1
  O  O428  1  0.76356622  0.74944475  0.21154343  1
  O  O429  1  0.76425461  0.74967624  0.46050552  1
  O  O430  1  0.76683734  0.74931732  0.71215703  1
  O  O431  1  0.76413643  0.74954778  0.96242368  1
  O  O432  1  0.01585394  0.08375607  0.16601051  1
  O  O433  1  0.01507943  0.08301271  0.41370381  1
  O  O434  1  0.01570470  0.08319361  0.66282817  1
  O  O435  1  0.01646222  0.08242410  0.91497934  1
  O  O436  1  0.01836613  0.41678528  0.16479367  1
  O  O437  1  0.01857914  0.41689146  0.41452805  1
  O  O438  1  0.01712178  0.41730335  0.66237383  1
  O  O439  1  0.01500856  0.41742551  0.91261457  1
  O  O440  1  0.01585924  0.75020150  0.16514056  1
  O  O441  1  0.01846155  0.74908872  0.41349043  1
  O  O442  1  0.01752439  0.74957151  0.66453835  1
  O  O443  1  0.01579530  0.74972185  0.91350378  1
  O  O444  1  0.51350939  0.08332829  0.16345520  1
  O  O445  1  0.51597908  0.08328901  0.41364779  1
  O  O446  1  0.51750323  0.08349223  0.66219735  1
  O  O447  1  0.51727177  0.08316938  0.91495733  1
  O  O448  1  0.51480804  0.41700364  0.16654940  1
  O  O449  1  0.51405101  0.41709087  0.41459636  1
  O  O450  1  0.51476923  0.41739074  0.66321071  1
  O  O451  1  0.51554084  0.41681695  0.91223521  1
  O  O452  1  0.51737004  0.74959115  0.16493781  1
  O  O453  1  0.51794446  0.74926458  0.41493931  1
  O  O454  1  0.51786525  0.74929799  0.66486296  1
  O  O455  1  0.51769352  0.74952272  0.91197755  1
  O  O456  1  0.48107713  0.25028884  0.08530017  1
  O  O457  1  0.48086302  0.24977655  0.33623926  1
  O  O458  1  0.48457161  0.25015658  0.58711506  1
  O  O459  1  0.48513442  0.24970436  0.83529477  1
  O  O460  1  0.48329353  0.58307764  0.08629608  1
  O  O461  1  0.48338293  0.58322896  0.33761469  1
  O  O462  1  0.48400514  0.58364090  0.58765738  1
  O  O463  1  0.48593027  0.58357443  0.83606998  1
  O  O464  1  0.48125331  0.91590536  0.08512157  1
  O  O465  1  0.48173488  0.91672431  0.33555046  1
  O  O466  1  0.48425717  0.91565787  0.58488714  1
  O  O467  1  0.48401855  0.91685194  0.83402340  1
  O  O468  1  0.98463211  0.25019148  0.08417564  1
  O  O469  1  0.98562423  0.25095688  0.33733222  1
  O  O470  1  0.98612461  0.25036663  0.58625675  1
  O  O471  1  0.98536438  0.25024198  0.83644685  1
  O  O472  1  0.98299279  0.58306005  0.08767907  1
  O  O473  1  0.98634538  0.58326142  0.33654262  1
  O  O474  1  0.98506503  0.58324414  0.58382659  1
  O  O475  1  0.98191187  0.58389766  0.83510818  1
  O  O476  1  0.98232414  0.91633886  0.08585493  1
  O  O477  1  0.98388598  0.91636417  0.33493282  1
  O  O478  1  0.98384502  0.91533788  0.58403049  1
  O  O479  1  0.98307679  0.91583944  0.83761445  1
  O  O480  1  0.08838134  0.31602668  0.07765275  1
  O  O481  1  0.08934547  0.31596472  0.32884855  1
  O  O482  1  0.08954027  0.31650432  0.57782143  1
  O  O483  1  0.08927020  0.31486746  0.82723977  1
  O  O484  1  0.08669484  0.64751374  0.07782165  1
  O  O485  1  0.09037734  0.64787909  0.32789986  1
  O  O486  1  0.08906726  0.64841159  0.57761403  1
  O  O487  1  0.08572886  0.64951259  0.82756920  1
  O  O488  1  0.08591441  0.98236056  0.07647908  1
  O  O489  1  0.08776421  0.98097267  0.32692075  1
  O  O490  1  0.08746518  0.98059992  0.57691899  1
  O  O491  1  0.08675508  0.98046779  0.82741608  1
  O  O492  1  0.58508781  0.31528056  0.07684951  1
  O  O493  1  0.58459758  0.31445843  0.32727546  1
  O  O494  1  0.58778348  0.31532963  0.57712854  1
  O  O495  1  0.58917927  0.31392377  0.82655814  1
  O  O496  1  0.58705195  0.64872833  0.07789585  1
  O  O497  1  0.58732261  0.64829215  0.32816290  1
  O  O498  1  0.58786898  0.64897913  0.57824807  1
  O  O499  1  0.58980682  0.64875778  0.82768027  1
  O  O500  1  0.58502517  0.98105986  0.07729152  1
  O  O501  1  0.58514879  0.98225165  0.32713245  1
  O  O502  1  0.58753890  0.98131951  0.57748848  1
  O  O503  1  0.58770506  0.98202962  0.82809356  1
  O  O504  1  0.40995613  0.01800431  0.17129908  1
  O  O505  1  0.41208430  0.01845956  0.42241531  1
  O  O506  1  0.41402879  0.01833218  0.67217747  1
  O  O507  1  0.41294849  0.01857894  0.92257307  1
  O  O508  1  0.41070732  0.35221922  0.17231728  1
  O  O509  1  0.41028193  0.35201814  0.42258552  1
  O  O510  1  0.41075662  0.35312270  0.67301383  1
  O  O511  1  0.41214561  0.35152062  0.92165814  1
  O  O512  1  0.41396814  0.68399559  0.17253739  1
  O  O513  1  0.41414112  0.68428247  0.42314439  1
  O  O514  1  0.41411874  0.68336183  0.67363671  1
  O  O515  1  0.41408911  0.68481028  0.92237757  1
  O  O516  1  0.91212965  0.01764763  0.17268982  1
  O  O517  1  0.91077757  0.01872317  0.42287570  1
  O  O518  1  0.91197556  0.01826623  0.67184470  1
  O  O519  1  0.91232367  0.01774501  0.92175497  1
  O  O520  1  0.91458732  0.35189560  0.17292764  1
  O  O521  1  0.91439349  0.35227304  0.42396848  1
  O  O522  1  0.91348864  0.35199404  0.67292286  1
  O  O523  1  0.91160109  0.35252596  0.92219496  1
  O  O524  1  0.91240919  0.68453478  0.17271684  1
  O  O525  1  0.91468859  0.68431644  0.42301641  1
  O  O526  1  0.91359281  0.68432234  0.67309945  1
  O  O527  1  0.91230178  0.68433342  0.92227606  1
  O  O528  1  0.16565732  0.01822562  0.20193729  1
  O  O529  1  0.16504657  0.01898023  0.45134041  1
  O  O530  1  0.16319927  0.01876003  0.70175723  1
  O  O531  1  0.16452824  0.01755494  0.95279961  1
  O  O532  1  0.16251966  0.35311157  0.20251539  1
  O  O533  1  0.16290607  0.35201122  0.45225271  1
  O  O534  1  0.16318283  0.35135790  0.70200253  1
  O  O535  1  0.16166200  0.35120827  0.95424974  1
  O  O536  1  0.16256898  0.68380138  0.20359044  1
  O  O537  1  0.16186711  0.68378444  0.45291635  1
  O  O538  1  0.16253287  0.68483758  0.70186656  1
  O  O539  1  0.16084872  0.68628417  0.95158949  1
  O  O540  1  0.66229664  0.01856312  0.20226825  1
  O  O541  1  0.66225027  0.01849499  0.45143260  1
  O  O542  1  0.66060657  0.01918276  0.70216941  1
  O  O543  1  0.66131787  0.01886276  0.95193997  1
  O  O544  1  0.66172229  0.35227169  0.20273681  1
  O  O545  1  0.66413608  0.35260134  0.45186571  1
  O  O546  1  0.66411841  0.35252299  0.70201780  1
  O  O547  1  0.66168765  0.35176498  0.95306240  1
  O  O548  1  0.65985402  0.68401111  0.20294785  1
  O  O549  1  0.66083090  0.68347184  0.45310689  1
  O  O550  1  0.66297070  0.68401937  0.70311395  1
  O  O551  1  0.66066901  0.68397656  0.95345189  1
  O  O552  1  0.33681403  0.31430173  0.04828473  1
  O  O553  1  0.33955302  0.31584966  0.29721123  1
  O  O554  1  0.33742661  0.31535693  0.54665866  1
  O  O555  1  0.33541080  0.31665948  0.79721198  1
  O  O556  1  0.33800197  0.64899651  0.04830439  1
  O  O557  1  0.33810663  0.64761593  0.29876232  1
  O  O558  1  0.33789654  0.64764811  0.54832330  1
  O  O559  1  0.33814643  0.64865423  0.79654856  1
  O  O560  1  0.33684358  0.98171872  0.04712470  1
  O  O561  1  0.33990279  0.98180027  0.29687169  1
  O  O562  1  0.33877717  0.98256320  0.54626327  1
  O  O563  1  0.33786814  0.98043790  0.79682819  1
  O  O564  1  0.83471354  0.31496541  0.04820653  1
  O  O565  1  0.83769165  0.31434448  0.29750975  1
  O  O566  1  0.83805465  0.31529959  0.54690198  1
  O  O567  1  0.83598189  0.31596536  0.79724401  1
  O  O568  1  0.83687996  0.64836374  0.04857060  1
  O  O569  1  0.83598830  0.64844386  0.29773068  1
  O  O570  1  0.83577471  0.64806407  0.54747834  1
  O  O571  1  0.83690562  0.64870349  0.79846338  1
  O  O572  1  0.83836054  0.98175129  0.04778931  1
  O  O573  1  0.83756330  0.98242268  0.29648449  1
  O  O574  1  0.83675149  0.98249809  0.54687428  1
  O  O575  1  0.83883769  0.98026001  0.79818585  1
  O  O576  1  0.40989241  0.14835463  0.17160253  1
  O  O577  1  0.41228864  0.14862056  0.42305684  1
  O  O578  1  0.41401980  0.14849322  0.67297040  1
  O  O579  1  0.41328780  0.14840906  0.92289597  1
  O  O580  1  0.41105004  0.48233106  0.17254015  1
  O  O581  1  0.41031804  0.48221985  0.42264858  1
  O  O582  1  0.41128624  0.48321136  0.67207132  1
  O  O583  1  0.41192833  0.48156367  0.92164490  1
  O  O584  1  0.41325428  0.81408020  0.17203823  1
  O  O585  1  0.41420353  0.81441543  0.42270164  1
  O  O586  1  0.41337161  0.81321024  0.67371367  1
  O  O587  1  0.41420905  0.81474354  0.92220477  1
  O  O588  1  0.91143297  0.14783819  0.17333867  1
  O  O589  1  0.91170098  0.14868414  0.42334755  1
  O  O590  1  0.91239286  0.14845896  0.67252220  1
  O  O591  1  0.91311239  0.14798706  0.92289136  1
  O  O592  1  0.91449589  0.48209561  0.17281144  1
  O  O593  1  0.91466068  0.48217826  0.42365315  1
  O  O594  1  0.91297774  0.48192415  0.67233451  1
  O  O595  1  0.91152952  0.48289683  0.92125544  1
  O  O596  1  0.91185299  0.81492009  0.17215440  1
  O  O597  1  0.91468849  0.81434059  0.42289498  1
  O  O598  1  0.91322384  0.81421229  0.67321269  1
  O  O599  1  0.91197637  0.81449687  0.92208300  1
  O  O600  1  0.08890325  0.18584280  0.07701290  1
  O  O601  1  0.08893855  0.18572054  0.32779305  1
  O  O602  1  0.09030624  0.18638951  0.57696329  1
  O  O603  1  0.08901377  0.18479367  0.82701682  1
  O  O604  1  0.08642688  0.51739533  0.07791335  1
  O  O605  1  0.08988999  0.51772403  0.32782129  1
  O  O606  1  0.08920028  0.51832189  0.57721182  1
  O  O607  1  0.08596059  0.51953733  0.82692491  1
  O  O608  1  0.08679889  0.85240471  0.07667754  1
  O  O609  1  0.08753832  0.85067810  0.32762908  1
  O  O610  1  0.08791557  0.85042491  0.57825390  1
  O  O611  1  0.08651661  0.85030376  0.82847504  1
  O  O612  1  0.58523217  0.18537746  0.07708747  1
  O  O613  1  0.58442959  0.18420613  0.32748507  1
  O  O614  1  0.58821164  0.18501792  0.57811494  1
  O  O615  1  0.58864220  0.18371060  0.82823970  1
  O  O616  1  0.58728299  0.51876996  0.07687001  1
  O  O617  1  0.58701618  0.51831937  0.32705370  1
  O  O618  1  0.58765388  0.51898766  0.57672314  1
  O  O619  1  0.58955939  0.51877970  0.82650131  1
  O  O620  1  0.58537645  0.85102422  0.07787222  1
  O  O621  1  0.58569370  0.85195916  0.32778349  1
  O  O622  1  0.58808605  0.85087282  0.57834619  1
  O  O623  1  0.58789465  0.85177139  0.82781125  1
  O  O624  1  0.33690903  0.18434077  0.04717870  1
  O  O625  1  0.33961523  0.18565985  0.29715378  1
  O  O626  1  0.33711343  0.18520857  0.54708055  1
  O  O627  1  0.33606311  0.18647163  0.79746274  1
  O  O628  1  0.33834635  0.51908659  0.04818895  1
  O  O629  1  0.33803930  0.51765468  0.29759475  1
  O  O630  1  0.33770939  0.51771509  0.54726394  1
  O  O631  1  0.33851600  0.51826645  0.79581328  1
  O  O632  1  0.33650449  0.85168204  0.04838362  1
  O  O633  1  0.33987428  0.85165908  0.29828731  1
  O  O634  1  0.33903047  0.85212363  0.54713303  1
  O  O635  1  0.33708068  0.85004262  0.79710173  1
  O  O636  1  0.83484734  0.18503048  0.04801210  1
  O  O637  1  0.83707850  0.18413933  0.29739536  1
  O  O638  1  0.83753158  0.18485181  0.54735808  1
  O  O639  1  0.83565044  0.18578161  0.79813260  1
  O  O640  1  0.83704057  0.51840888  0.04820344  1
  O  O641  1  0.83638580  0.51841773  0.29727169  1
  O  O642  1  0.83631067  0.51800363  0.54678182  1
  O  O643  1  0.83734624  0.51863462  0.79760678  1
  O  O644  1  0.83816455  0.85172190  0.04815514  1
  O  O645  1  0.83718289  0.85210866  0.29743601  1
  O  O646  1  0.83690938  0.85207419  0.54721705  1
  O  O647  1  0.83804266  0.85011349  0.79799682  1
  O  O648  1  0.16551728  0.14827618  0.20217448  1
  O  O649  1  0.16487615  0.14919246  0.45183211  1
  O  O650  1  0.16282919  0.14902098  0.70279314  1
  O  O651  1  0.16396305  0.14775690  0.95324849  1
  O  O652  1  0.16343142  0.48303099  0.20273330  1
  O  O653  1  0.16308832  0.48211410  0.45229455  1
  O  O654  1  0.16282683  0.48130494  0.70116463  1
  O  O655  1  0.16172271  0.48143245  0.95295275  1
  O  O656  1  0.16225818  0.81399667  0.20307695  1
  O  O657  1  0.16139251  0.81391447  0.45204579  1
  O  O658  1  0.16273510  0.81475166  0.70185041  1
  O  O659  1  0.16184459  0.81638576  0.95254416  1
  O  O660  1  0.66217042  0.14858961  0.20285371  1
  O  O661  1  0.66196196  0.14845203  0.45186376  1
  O  O662  1  0.66103918  0.14935759  0.70305421  1
  O  O663  1  0.66078733  0.14890818  0.95303334  1
  O  O664  1  0.66211082  0.48244838  0.20273663  1
  O  O665  1  0.66410920  0.48258619  0.45232021  1
  O  O666  1  0.66438102  0.48255724  0.70235211  1
  O  O667  1  0.66211114  0.48202928  0.95285426  1
  O  O668  1  0.65977272  0.81413018  0.20193173  1
  O  O669  1  0.66003963  0.81359080  0.45199622  1
  O  O670  1  0.66288929  0.81395444  0.70229863  1
  O  O671  1  0.66038090  0.81411129  0.95255193  1
