# generated using pymatgen
data_Na2MnFe(PO4)2
_symmetry_space_group_name_H-M   'P 1'
_cell_length_a   21.08008314
_cell_length_b   18.93135690
_cell_length_c   20.03945005
_cell_angle_alpha   90.00008671
_cell_angle_beta   90.00094666
_cell_angle_gamma   89.99960655
_symmetry_Int_Tables_number   1
_chemical_formula_structural   Na2MnFe(PO4)2
_chemical_formula_sum   'Na96 Mn48 Fe48 P96 O384'
_cell_volume   7997.23506042
_cell_formula_units_Z   48
loop_
 _symmetry_equiv_pos_site_id
 _symmetry_equiv_pos_as_xyz
  1  'x, y, z'
loop_
 _atom_site_type_symbol
 _atom_site_label
 _atom_site_symmetry_multiplicity
 _atom_site_fract_x
 _atom_site_fract_y
 _atom_site_fract_z
 _atom_site_occupancy
  Na  Na0  1  -0.00013294  0.00037255  0.00054523  1
  Na  Na1  1  -0.00170518  -0.00040607  0.24962040  1
  Na  Na2  1  0.00198673  0.00090540  0.49870368  1
  Na  Na3  1  0.00056707  -0.00000874  0.75076520  1
  Na  Na4  1  -0.00191090  0.33271325  -0.00016736  1
  Na  Na5  1  0.00072988  0.33392938  0.24990711  1
  Na  Na6  1  -0.00172472  0.33303751  0.50057243  1
  Na  Na7  1  -0.00260426  0.33283970  0.75026350  1
  Na  Na8  1  0.00013098  0.66577744  0.00011231  1
  Na  Na9  1  0.00131737  0.66621948  0.25072917  1
  Na  Na10  1  0.00215173  0.66619432  0.50015625  1
  Na  Na11  1  0.00046944  0.66598794  0.74895357  1
  Na  Na12  1  0.49833072  -0.00016845  -0.00036402  1
  Na  Na13  1  0.49719871  -0.00096546  0.25027027  1
  Na  Na14  1  0.50126188  0.00091724  0.49961550  1
  Na  Na15  1  0.49794020  -0.00086927  0.75061874  1
  Na  Na16  1  0.50285179  0.33391286  -0.00039066  1
  Na  Na17  1  0.50341157  0.33402998  0.24953373  1
  Na  Na18  1  0.50175686  0.33342213  0.50091605  1
  Na  Na19  1  0.50198477  0.33426684  0.75017218  1
  Na  Na20  1  0.49961545  0.66656930  -0.00024636  1
  Na  Na21  1  0.49941077  0.66629584  0.25082412  1
  Na  Na22  1  0.50061140  0.66668661  0.49854612  1
  Na  Na23  1  0.49987632  0.66591243  0.75055997  1
  Na  Na24  1  0.25081434  0.00041141  0.12543773  1
  Na  Na25  1  0.24985016  0.00001879  0.37454532  1
  Na  Na26  1  0.24959305  0.00039619  0.62494127  1
  Na  Na27  1  0.24926253  0.00032090  0.87514417  1
  Na  Na28  1  0.24826406  0.33202868  0.12536268  1
  Na  Na29  1  0.25096440  0.33399559  0.37491746  1
  Na  Na30  1  0.25182511  0.33418727  0.62533410  1
  Na  Na31  1  0.25159980  0.33404748  0.87455234  1
  Na  Na32  1  0.25078507  0.66620082  0.12359351  1
  Na  Na33  1  0.24938215  0.66562068  0.37421532  1
  Na  Na34  1  0.25013487  0.66573815  0.62539221  1
  Na  Na35  1  0.25106261  0.66616937  0.87588866  1
  Na  Na36  1  0.75295036  0.00125885  0.12620529  1
  Na  Na37  1  0.74897618  -0.00071223  0.37428819  1
  Na  Na38  1  0.74999831  0.00005421  0.62518313  1
  Na  Na39  1  0.75094171  -0.00053581  0.87458259  1
  Na  Na40  1  0.74794741  0.33290058  0.12445891  1
  Na  Na41  1  0.74742672  0.33292428  0.37438907  1
  Na  Na42  1  0.74855639  0.33386221  0.62527557  1
  Na  Na43  1  0.74796456  0.33312635  0.87635581  1
  Na  Na44  1  0.74899855  0.66639387  0.12427872  1
  Na  Na45  1  0.74830775  0.66614934  0.37475384  1
  Na  Na46  1  0.74837514  0.66599727  0.62487191  1
  Na  Na47  1  0.75011174  0.66669346  0.87632712  1
  Na  Na48  1  -0.00091543  0.16729264  0.00107226  1
  Na  Na49  1  -0.00040046  0.16678020  0.24869461  1
  Na  Na50  1  0.00254177  0.16551402  0.49902916  1
  Na  Na51  1  0.00031758  0.16647718  0.75041997  1
  Na  Na52  1  -0.00158537  0.50064943  -0.00026548  1
  Na  Na53  1  -0.00020089  0.50044838  0.25072670  1
  Na  Na54  1  -0.00007516  0.50005604  0.50074415  1
  Na  Na55  1  -0.00113385  0.49991226  0.74870183  1
  Na  Na56  1  0.00101172  0.83282659  -0.00051298  1
  Na  Na57  1  0.00073856  0.83331441  0.25074604  1
  Na  Na58  1  0.00074574  0.83350809  0.49958640  1
  Na  Na59  1  -0.00057252  0.83425408  0.75080784  1
  Na  Na60  1  0.50092695  0.16640079  -0.00027808  1
  Na  Na61  1  0.50129585  0.16625158  0.25029546  1
  Na  Na62  1  0.50189401  0.16642120  0.50031549  1
  Na  Na63  1  0.50069765  0.16719229  0.75065364  1
  Na  Na64  1  0.49939247  0.49968319  -0.00032198  1
  Na  Na65  1  0.50079840  0.49940625  0.24985597  1
  Na  Na66  1  0.50131242  0.49884173  0.50018083  1
  Na  Na67  1  0.49846733  0.50025793  0.75037706  1
  Na  Na68  1  0.50009426  0.83364886  -0.00040833  1
  Na  Na69  1  0.49830708  0.83429010  0.25055932  1
  Na  Na70  1  0.50151081  0.83285052  0.49869535  1
  Na  Na71  1  0.50051755  0.83351030  0.75016340  1
  Na  Na72  1  0.24961514  0.16613127  0.12507871  1
  Na  Na73  1  0.24785515  0.16738338  0.37613448  1
  Na  Na74  1  0.24982484  0.16608870  0.62487486  1
  Na  Na75  1  0.24816303  0.16725747  0.87497133  1
  Na  Na76  1  0.25197973  0.49926949  0.12438376  1
  Na  Na77  1  0.24980672  0.50100196  0.37379429  1
  Na  Na78  1  0.25203094  0.49997505  0.62572781  1
  Na  Na79  1  0.25217450  0.49962822  0.87488719  1
  Na  Na80  1  0.24967931  0.83421563  0.12446455  1
  Na  Na81  1  0.25215193  0.83281280  0.37393419  1
  Na  Na82  1  0.24911040  0.83449865  0.62499756  1
  Na  Na83  1  0.25096057  0.83332286  0.87594392  1
  Na  Na84  1  0.75044354  0.16681909  0.12500393  1
  Na  Na85  1  0.74726254  0.16747249  0.37417879  1
  Na  Na86  1  0.74741680  0.16798895  0.62442489  1
  Na  Na87  1  0.75092812  0.16672476  0.87561686  1
  Na  Na88  1  0.74899937  0.50061767  0.12534394  1
  Na  Na89  1  0.74870103  0.49996488  0.37413255  1
  Na  Na90  1  0.74948118  0.49943465  0.62588874  1
  Na  Na91  1  0.75041383  0.49926395  0.87603770  1
  Na  Na92  1  0.74866982  0.83411768  0.12503168  1
  Na  Na93  1  0.74958756  0.83337177  0.37477170  1
  Na  Na94  1  0.74893101  0.83391680  0.62516500  1
  Na  Na95  1  0.74939156  0.83320247  0.87498841  1
  Mn  Mn96  1  0.85733907  0.08383783  0.50185636  1
  Mn  Mn97  1  0.10798899  0.74950010  0.87237518  1
  Mn  Mn98  1  0.35842887  0.75029621  0.75188963  1
  Mn  Mn99  1  0.89250853  0.91654583  0.37773428  1
  Mn  Mn100  1  0.85840717  0.08427831  0.75203718  1
  Mn  Mn101  1  0.85724559  0.74958690  0.50251577  1
  Mn  Mn102  1  0.64156948  0.58331216  0.24689588  1
  Mn  Mn103  1  0.64177880  0.91707546  0.24697012  1
  Mn  Mn104  1  0.39314550  0.25028558  0.62744688  1
  Mn  Mn105  1  0.85691517  0.41630958  0.25221174  1
  Mn  Mn106  1  0.14239871  0.91632612  0.74784022  1
  Mn  Mn107  1  0.64190021  0.91724657  0.74758976  1
  Mn  Mn108  1  0.89181681  0.58397836  0.62702508  1
  Mn  Mn109  1  0.35792696  0.74994099  0.00303695  1
  Mn  Mn110  1  0.10840160  0.75066657  0.62264336  1
  Mn  Mn111  1  0.39234158  0.91612856  0.62667959  1
  Mn  Mn112  1  0.14195943  0.25107498  0.74783664  1
  Mn  Mn113  1  0.60769844  0.08230179  0.12229849  1
  Mn  Mn114  1  0.10830490  0.41597585  0.37353405  1
  Mn  Mn115  1  0.35748722  0.08398035  0.50210261  1
  Mn  Mn116  1  0.64170123  0.58283115  0.74786430  1
  Mn  Mn117  1  0.39267574  0.24995031  0.87744338  1
  Mn  Mn118  1  0.10683096  0.08286037  0.12301430  1
  Mn  Mn119  1  0.39259107  0.24988460  0.12730018  1
  Mn  Mn120  1  0.35833128  0.41591275  0.25211042  1
  Mn  Mn121  1  0.14222374  0.25113312  0.49783902  1
  Mn  Mn122  1  0.89220146  0.91653071  0.87802503  1
  Mn  Mn123  1  0.39225512  0.58276118  0.37727873  1
  Mn  Mn124  1  0.14257661  0.58252117  0.99753678  1
  Mn  Mn125  1  0.35797417  0.74955913  0.50283753  1
  Mn  Mn126  1  0.10739429  0.41649654  0.87276088  1
  Mn  Mn127  1  0.60790824  0.08284770  0.62286272  1
  Mn  Mn128  1  0.60827229  0.08336439  0.87292192  1
  Mn  Mn129  1  0.89111252  0.24886250  0.62691180  1
  Mn  Mn130  1  0.10761956  0.41708880  0.12235135  1
  Mn  Mn131  1  0.14316846  0.91650404  0.24717535  1
  Mn  Mn132  1  0.10797236  0.41609664  0.62278877  1
  Mn  Mn133  1  0.89190879  0.25025800  0.37696588  1
  Mn  Mn134  1  0.85804187  0.75025984  0.25165992  1
  Mn  Mn135  1  0.85756638  0.75050265  0.00300465  1
  Mn  Mn136  1  0.60739411  0.75039713  0.37217994  1
  Mn  Mn137  1  0.89245522  0.58327199  0.37763838  1
  Mn  Mn138  1  0.85767297  0.74911163  0.75180978  1
  Mn  Mn139  1  0.39303304  0.24976887  0.37687955  1
  Mn  Mn140  1  0.60738878  0.74973870  0.87298826  1
  Mn  Mn141  1  0.35703862  0.08443605  0.00204676  1
  Mn  Mn142  1  0.85661681  0.41659637  0.00246486  1
  Mn  Mn143  1  0.10901662  0.75023782  0.37239786  1
  Fe  Fe144  1  0.60706330  0.41757730  0.12249517  1
  Fe  Fe145  1  0.64266217  0.24938128  0.24749416  1
  Fe  Fe146  1  0.64216733  0.24990721  0.49779096  1
  Fe  Fe147  1  0.35787875  0.41546093  0.00176933  1
  Fe  Fe148  1  0.89193894  0.25025128  0.87707828  1
  Fe  Fe149  1  0.60765285  0.41623037  0.37351130  1
  Fe  Fe150  1  0.35700841  0.08388687  0.75171983  1
  Fe  Fe151  1  0.85577336  0.41671445  0.50129348  1
  Fe  Fe152  1  0.14248496  0.91734869  0.99875473  1
  Fe  Fe153  1  0.64240523  0.91723404  0.99903506  1
  Fe  Fe154  1  0.35742167  0.75021181  0.25047077  1
  Fe  Fe155  1  0.14250573  0.91619664  0.49796652  1
  Fe  Fe156  1  0.14314615  0.58300119  0.24737629  1
  Fe  Fe157  1  0.14169086  0.25008376  0.99835525  1
  Fe  Fe158  1  0.10778463  0.74982461  0.12380426  1
  Fe  Fe159  1  0.64317627  0.24995216  0.74904402  1
  Fe  Fe160  1  0.14255523  0.25035170  0.24838847  1
  Fe  Fe161  1  0.39288072  0.91735922  0.37722003  1
  Fe  Fe162  1  0.89214258  0.25033181  0.12722674  1
  Fe  Fe163  1  0.14372594  0.58312289  0.49890150  1
  Fe  Fe164  1  0.60739787  0.41781669  0.62303843  1
  Fe  Fe165  1  0.39278782  0.58342904  0.87686032  1
  Fe  Fe166  1  0.39232038  0.91665626  0.87702749  1
  Fe  Fe167  1  0.64202312  0.58371015  0.99833170  1
  Fe  Fe168  1  0.10776656  0.08312425  0.62377327  1
  Fe  Fe169  1  0.10760936  0.08364064  0.37238025  1
  Fe  Fe170  1  0.39218385  0.91634379  0.12617098  1
  Fe  Fe171  1  0.35721214  0.08369226  0.25210173  1
  Fe  Fe172  1  0.10667754  0.08384113  0.87383947  1
  Fe  Fe173  1  0.35834031  0.41614913  0.75183801  1
  Fe  Fe174  1  0.60725843  0.08330864  0.37280935  1
  Fe  Fe175  1  0.89289449  0.91681550  0.62552547  1
  Fe  Fe176  1  0.64195286  0.58326426  0.49867897  1
  Fe  Fe177  1  0.85754827  0.08306616  0.00149099  1
  Fe  Fe178  1  0.39320124  0.58349244  0.62623798  1
  Fe  Fe179  1  0.64331383  0.24918621  0.99829306  1
  Fe  Fe180  1  0.60652547  0.75007163  0.12370254  1
  Fe  Fe181  1  0.60762573  0.74950369  0.62311770  1
  Fe  Fe182  1  0.64250390  0.91693968  0.49819505  1
  Fe  Fe183  1  0.60676543  0.41715087  0.87315245  1
  Fe  Fe184  1  0.85638441  0.41677681  0.75170237  1
  Fe  Fe185  1  0.35867615  0.41676840  0.50162117  1
  Fe  Fe186  1  0.85687930  0.08374624  0.25221563  1
  Fe  Fe187  1  0.89246224  0.58314604  0.87650007  1
  Fe  Fe188  1  0.14360350  0.58283916  0.74863150  1
  Fe  Fe189  1  0.89242240  0.58380638  0.12674564  1
  Fe  Fe190  1  0.89273397  0.91578473  0.12631063  1
  Fe  Fe191  1  0.39347890  0.58360967  0.12635368  1
  P  P192  1  0.05336958  0.25008573  0.11063534  1
  P  P193  1  0.05397005  0.24959383  0.35895975  1
  P  P194  1  0.05282572  0.24938757  0.61006097  1
  P  P195  1  0.05277720  0.24958865  0.86142368  1
  P  P196  1  0.05347710  0.58381674  0.11099060  1
  P  P197  1  0.05597848  0.58279341  0.36057468  1
  P  P198  1  0.05543283  0.58285824  0.61052698  1
  P  P199  1  0.05273516  0.58254831  0.85893410  1
  P  P200  1  0.05282491  0.91590483  0.10979989  1
  P  P201  1  0.05516071  0.91748443  0.36043145  1
  P  P202  1  0.05312002  0.91753972  0.60936748  1
  P  P203  1  0.05465022  0.91773090  0.86164669  1
  P  P204  1  0.55533205  0.25005891  0.11016336  1
  P  P205  1  0.55583159  0.24994323  0.36054217  1
  P  P206  1  0.55585116  0.25105115  0.61116339  1
  P  P207  1  0.55577880  0.25067238  0.86088619  1
  P  P208  1  0.55256118  0.58377409  0.10941919  1
  P  P209  1  0.55456965  0.58218718  0.36105059  1
  P  P210  1  0.55277777  0.58317430  0.60970034  1
  P  P211  1  0.55307762  0.58248061  0.86143607  1
  P  P212  1  0.55185771  0.91611021  0.10949829  1
  P  P213  1  0.55355088  0.91779658  0.36074583  1
  P  P214  1  0.55368051  0.91584598  0.60910854  1
  P  P215  1  0.55328539  0.91694947  0.86126069  1
  P  P216  1  0.44580020  0.08295069  0.14055166  1
  P  P217  1  0.44672303  0.08329859  0.38898548  1
  P  P218  1  0.44630916  0.08340300  0.64080316  1
  P  P219  1  0.44546822  0.08300039  0.88901328  1
  P  P220  1  0.44714230  0.41677124  0.13859729  1
  P  P221  1  0.44796818  0.41586596  0.39055932  1
  P  P222  1  0.44661550  0.41755135  0.63944433  1
  P  P223  1  0.44591210  0.41676057  0.88956334  1
  P  P224  1  0.44726077  0.74992978  0.14030210  1
  P  P225  1  0.44481625  0.75079402  0.38846545  1
  P  P226  1  0.44855254  0.74903441  0.63954968  1
  P  P227  1  0.44605385  0.75021755  0.89002004  1
  P  P228  1  0.94379568  0.08318616  0.13919791  1
  P  P229  1  0.94672667  0.08384011  0.38864325  1
  P  P230  1  0.94803852  0.08227244  0.63954414  1
  P  P231  1  0.94676722  0.08429311  0.89096242  1
  P  P232  1  0.94590480  0.41692588  0.13993412  1
  P  P233  1  0.94585009  0.41660147  0.39109628  1
  P  P234  1  0.94399493  0.41645009  0.63933890  1
  P  P235  1  0.94460354  0.41687973  0.88871673  1
  P  P236  1  0.94823610  0.74993787  0.14001205  1
  P  P237  1  0.94722357  0.74961417  0.39046578  1
  P  P238  1  0.94702232  0.75107512  0.63976857  1
  P  P239  1  0.94645902  0.74853446  0.89004781  1
  P  P240  1  0.19658200  0.08408051  0.23603500  1
  P  P241  1  0.19437032  0.08260682  0.48544218  1
  P  P242  1  0.19591867  0.08364434  0.73581582  1
  P  P243  1  0.19508673  0.08351552  0.98492445  1
  P  P244  1  0.19673598  0.41654077  0.23485094  1
  P  P245  1  0.19893200  0.41788888  0.48526143  1
  P  P246  1  0.19827416  0.41760526  0.73536212  1
  P  P247  1  0.19789365  0.41583527  0.98476714  1
  P  P248  1  0.19778785  0.74929312  0.23374492  1
  P  P249  1  0.19715386  0.74969530  0.48495008  1
  P  P250  1  0.19738550  0.74893830  0.73533725  1
  P  P251  1  0.19533755  0.75056878  0.98632415  1
  P  P252  1  0.69633047  0.08385563  0.23573301  1
  P  P253  1  0.69566015  0.08295694  0.48411100  1
  P  P254  1  0.69718879  0.08442645  0.73515953  1
  P  P255  1  0.69809400  0.08268693  0.98543865  1
  P  P256  1  0.69420669  0.41578764  0.23502074  1
  P  P257  1  0.69524422  0.41712869  0.48569242  1
  P  P258  1  0.69543810  0.41596326  0.73628732  1
  P  P259  1  0.69373508  0.41725063  0.98604082  1
  P  P260  1  0.69578244  0.75017789  0.23374232  1
  P  P261  1  0.69484411  0.75002095  0.48603593  1
  P  P262  1  0.69568446  0.74968583  0.73448074  1
  P  P263  1  0.69463701  0.75044779  0.98677816  1
  P  P264  1  0.30187442  0.25065662  0.01501752  1
  P  P265  1  0.30234105  0.24900342  0.26509173  1
  P  P266  1  0.30380521  0.25085803  0.51509825  1
  P  P267  1  0.30374914  0.24981705  0.76486107  1
  P  P268  1  0.30592010  0.58193436  0.01429794  1
  P  P269  1  0.30420859  0.58406455  0.26291045  1
  P  P270  1  0.30362751  0.58249394  0.51549071  1
  P  P271  1  0.30510002  0.58274101  0.76450403  1
  P  P272  1  0.30357388  0.91726997  0.01454404  1
  P  P273  1  0.30601828  0.91673133  0.26392462  1
  P  P274  1  0.30299028  0.91709605  0.51377274  1
  P  P275  1  0.30422193  0.91767712  0.76555642  1
  P  P276  1  0.80395858  0.24950899  0.01449977  1
  P  P277  1  0.80300898  0.24957839  0.26374458  1
  P  P278  1  0.80117090  0.25079394  0.51430857  1
  P  P279  1  0.80266608  0.25114206  0.76573952  1
  P  P280  1  0.80331776  0.58329802  0.01467561  1
  P  P281  1  0.80420082  0.58368417  0.26397156  1
  P  P282  1  0.80136403  0.58237337  0.51481029  1
  P  P283  1  0.80322313  0.58250685  0.76591907  1
  P  P284  1  0.80254419  0.91716806  0.01578937  1
  P  P285  1  0.80478698  0.91704869  0.26389600  1
  P  P286  1  0.80232095  0.91691610  0.51530577  1
  P  P287  1  0.80474078  0.91653696  0.76385676  1
  O  O288  1  0.05875081  0.25025858  0.18726084  1
  O  O289  1  0.05695561  0.25055129  0.43578738  1
  O  O290  1  0.05590309  0.25070798  0.68688328  1
  O  O291  1  0.05768541  0.25070896  0.93811709  1
  O  O292  1  0.05874118  0.58302994  0.18766501  1
  O  O293  1  0.06054546  0.58267772  0.43734934  1
  O  O294  1  0.05998672  0.58247341  0.68724558  1
  O  O295  1  0.05680582  0.58230242  0.93571811  1
  O  O296  1  0.05662045  0.91683275  0.18653943  1
  O  O297  1  0.05930064  0.91658978  0.43717756  1
  O  O298  1  0.05648279  0.91666699  0.68617711  1
  O  O299  1  0.05879569  0.91700088  0.93837528  1
  O  O300  1  0.55898166  0.24905626  0.18700742  1
  O  O301  1  0.55923737  0.24983164  0.43746510  1
  O  O302  1  0.55950467  0.25019464  0.68794168  1
  O  O303  1  0.56004041  0.24923530  0.93768294  1
  O  O304  1  0.55566870  0.58350058  0.18621496  1
  O  O305  1  0.55850153  0.58280795  0.43777717  1
  O  O306  1  0.55576487  0.58291627  0.68648119  1
  O  O307  1  0.55775140  0.58306046  0.93804850  1
  O  O308  1  0.55552818  0.91713060  0.18622611  1
  O  O309  1  0.55851413  0.91729407  0.43736261  1
  O  O310  1  0.55627895  0.91681367  0.68597832  1
  O  O311  1  0.55843191  0.91759375  0.93789684  1
  O  O312  1  0.44257726  0.08416754  0.06373160  1
  O  O313  1  0.44163495  0.08410079  0.31234511  1
  O  O314  1  0.44328640  0.08390318  0.56394805  1
  O  O315  1  0.44128082  0.08396244  0.81230634  1
  O  O316  1  0.44232585  0.41541173  0.06195325  1
  O  O317  1  0.44401753  0.41591182  0.31377794  1
  O  O318  1  0.44211340  0.41644682  0.56272817  1
  O  O319  1  0.44145563  0.41589997  0.81277671  1
  O  O320  1  0.44403775  0.75006009  0.06357406  1
  O  O321  1  0.44065699  0.74997654  0.31173731  1
  O  O322  1  0.44488989  0.74973218  0.56281331  1
  O  O323  1  0.44366373  0.75011760  0.81319850  1
  O  O324  1  0.94018278  0.08342102  0.06236491  1
  O  O325  1  0.94126341  0.08398255  0.31198771  1
  O  O326  1  0.94420416  0.08337657  0.56283268  1
  O  O327  1  0.94358512  0.08371411  0.81417407  1
  O  O328  1  0.94270043  0.41672800  0.06311350  1
  O  O329  1  0.94245200  0.41667124  0.31429821  1
  O  O330  1  0.93921195  0.41660897  0.56258897  1
  O  O331  1  0.94071278  0.41661160  0.81197242  1
  O  O332  1  0.94446533  0.74985415  0.06328844  1
  O  O333  1  0.94367643  0.74953340  0.31369982  1
  O  O334  1  0.94380733  0.74986464  0.56298345  1
  O  O335  1  0.94339279  0.74934764  0.81329054  1
  O  O336  1  0.19238883  0.08318810  0.06178210  1
  O  O337  1  0.19200248  0.08351502  0.31271702  1
  O  O338  1  0.19060095  0.08302611  0.56230882  1
  O  O339  1  0.19087999  0.08379566  0.81247008  1
  O  O340  1  0.19383900  0.41649627  0.06146072  1
  O  O341  1  0.19400007  0.41680685  0.31158718  1
  O  O342  1  0.19501146  0.41698272  0.56193250  1
  O  O343  1  0.19396452  0.41695518  0.81200530  1
  O  O344  1  0.19108454  0.75005936  0.06309317  1
  O  O345  1  0.19451576  0.74988211  0.31049326  1
  O  O346  1  0.19438547  0.75025198  0.56176197  1
  O  O347  1  0.19462075  0.74946845  0.81215340  1
  O  O348  1  0.69459730  0.08270899  0.06213327  1
  O  O349  1  0.69133923  0.08282677  0.31234577  1
  O  O350  1  0.69315724  0.08287122  0.56094552  1
  O  O351  1  0.69435894  0.08328301  0.81192939  1
  O  O352  1  0.69010827  0.41782387  0.06291637  1
  O  O353  1  0.69069884  0.41681927  0.31184337  1
  O  O354  1  0.69134680  0.41747948  0.56249408  1
  O  O355  1  0.69100327  0.41729762  0.81301056  1
  O  O356  1  0.69024769  0.75019696  0.06349476  1
  O  O357  1  0.69249625  0.75020566  0.31057915  1
  O  O358  1  0.69116101  0.74986130  0.56283793  1
  O  O359  1  0.69263791  0.74959241  0.81134660  1
  O  O360  1  0.30620257  0.24932532  0.18839360  1
  O  O361  1  0.30694775  0.25019862  0.43833505  1
  O  O362  1  0.30690146  0.24972615  0.68812312  1
  O  O363  1  0.30624528  0.25022344  0.93838725  1
  O  O364  1  0.30949219  0.58338214  0.18625176  1
  O  O365  1  0.30688435  0.58310515  0.43868360  1
  O  O366  1  0.30969004  0.58364260  0.68778545  1
  O  O367  1  0.30993091  0.58304848  0.93747822  1
  O  O368  1  0.30959456  0.91670530  0.18703093  1
  O  O369  1  0.30815546  0.91726056  0.43709023  1
  O  O370  1  0.30700257  0.91681507  0.68868184  1
  O  O371  1  0.30842067  0.91694228  0.93787534  1
  O  O372  1  0.80782156  0.25040731  0.18704156  1
  O  O373  1  0.80501553  0.25012357  0.43764072  1
  O  O374  1  0.80568954  0.25016678  0.68894762  1
  O  O375  1  0.80855087  0.25030165  0.93778408  1
  O  O376  1  0.80892939  0.58396142  0.18718258  1
  O  O377  1  0.80518893  0.58304419  0.43810499  1
  O  O378  1  0.80607865  0.58339113  0.68909291  1
  O  O379  1  0.80836070  0.58334411  0.93804415  1
  O  O380  1  0.80932212  0.91595679  0.18717452  1
  O  O381  1  0.80628112  0.91666516  0.43852561  1
  O  O382  1  0.80920716  0.91674055  0.68714200  1
  O  O383  1  0.80613213  0.91594934  0.93900131  1
  O  O384  1  0.23170443  0.24955491  0.03922615  1
  O  O385  1  0.23236959  0.25022407  0.28981385  1
  O  O386  1  0.23413031  0.25043476  0.54034893  1
  O  O387  1  0.23403645  0.25057427  0.79003481  1
  O  O388  1  0.23574902  0.58252924  0.03810542  1
  O  O389  1  0.23379788  0.58342786  0.28640176  1
  O  O390  1  0.23367339  0.58297618  0.54027903  1
  O  O391  1  0.23481342  0.58276587  0.78865253  1
  O  O392  1  0.23315775  0.91767717  0.03815490  1
  O  O393  1  0.23590701  0.91673395  0.28803634  1
  O  O394  1  0.23268573  0.91712417  0.53751773  1
  O  O395  1  0.23448232  0.91681615  0.79060217  1
  O  O396  1  0.73339323  0.25019228  0.03779982  1
  O  O397  1  0.73266758  0.24982261  0.28735172  1
  O  O398  1  0.73104413  0.25056282  0.53874287  1
  O  O399  1  0.73275910  0.25037918  0.79076392  1
  O  O400  1  0.73274176  0.58334632  0.03784937  1
  O  O401  1  0.73399849  0.58335050  0.28746480  1
  O  O402  1  0.73133757  0.58274559  0.53953768  1
  O  O403  1  0.73348228  0.58286451  0.79102538  1
  O  O404  1  0.73248902  0.91731587  0.04047414  1
  O  O405  1  0.73462877  0.91649581  0.28771056  1
  O  O406  1  0.73212694  0.91704767  0.53936099  1
  O  O407  1  0.73465517  0.91641087  0.78798241  1
  O  O408  1  0.26685322  0.08318689  0.21208531  1
  O  O409  1  0.26448020  0.08366510  0.46128130  1
  O  O410  1  0.26631711  0.08338349  0.71218882  1
  O  O411  1  0.26481959  0.08391942  0.95981804  1
  O  O412  1  0.26644124  0.41600437  0.20949626  1
  O  O413  1  0.26888140  0.41759165  0.46025963  1
  O  O414  1  0.26853224  0.41695693  0.71137168  1
  O  O415  1  0.26797928  0.41648184  0.96037643  1
  O  O416  1  0.26780918  0.75006632  0.20897338  1
  O  O417  1  0.26667296  0.74931613  0.45924136  1
  O  O418  1  0.26693398  0.75000062  0.70967138  1
  O  O419  1  0.26546894  0.74975688  0.96237572  1
  O  O420  1  0.76664824  0.08409671  0.21212072  1
  O  O421  1  0.76528252  0.08328380  0.45849308  1
  O  O422  1  0.76669583  0.08452365  0.70950790  1
  O  O423  1  0.76807543  0.08285628  0.96044209  1
  O  O424  1  0.76416385  0.41652348  0.21052690  1
  O  O425  1  0.76538603  0.41664431  0.46099781  1
  O  O426  1  0.76572774  0.41667080  0.71238871  1
  O  O427  1  0.76387034  0.41647147  0.96203819  1
  O  O428  1  0.76553653  0.75026081  0.20899906  1
  O  O429  1  0.76467275  0.74992958  0.46099982  1
  O  O430  1  0.76537519  0.74966827  0.70948383  1
  O  O431  1  0.76467911  0.75022425  0.96248686  1
  O  O432  1  0.01397550  0.08307161  0.16338590  1
  O  O433  1  0.01718399  0.08370458  0.41170057  1
  O  O434  1  0.01792460  0.08294127  0.66461621  1
  O  O435  1  0.01668885  0.08397924  0.91590451  1
  O  O436  1  0.01560449  0.41708654  0.16503928  1
  O  O437  1  0.01569675  0.41637328  0.41577609  1
  O  O438  1  0.01427390  0.41639395  0.66293237  1
  O  O439  1  0.01446935  0.41675762  0.91361844  1
  O  O440  1  0.01820332  0.74994195  0.16505076  1
  O  O441  1  0.01706712  0.74964281  0.41500575  1
  O  O442  1  0.01666000  0.75053601  0.66509485  1
  O  O443  1  0.01618673  0.74894762  0.91509367  1
  O  O444  1  0.51568231  0.08273837  0.16522682  1
  O  O445  1  0.51707625  0.08372628  0.41260496  1
  O  O446  1  0.51612219  0.08309837  0.66567760  1
  O  O447  1  0.51544899  0.08322378  0.91345602  1
  O  O448  1  0.51757028  0.41703185  0.16223462  1
  O  O449  1  0.51810120  0.41577288  0.41466180  1
  O  O450  1  0.51700017  0.41752348  0.66322333  1
  O  O451  1  0.51633403  0.41643344  0.91305859  1
  O  O452  1  0.51725191  0.75011706  0.16537490  1
  O  O453  1  0.51492507  0.75032468  0.41236761  1
  O  O454  1  0.51836918  0.74935187  0.66472418  1
  O  O455  1  0.51559734  0.75020091  0.91556358  1
  O  O456  1  0.48533929  0.24973028  0.08565674  1
  O  O457  1  0.48593485  0.25021075  0.33575612  1
  O  O458  1  0.48587833  0.25010941  0.58661886  1
  O  O459  1  0.48569577  0.25057799  0.83692285  1
  O  O460  1  0.48248467  0.58350406  0.08472553  1
  O  O461  1  0.48460896  0.58261723  0.33658317  1
  O  O462  1  0.48290495  0.58276691  0.58440430  1
  O  O463  1  0.48279161  0.58297354  0.83751790  1
  O  O464  1  0.48164041  0.91659845  0.08521319  1
  O  O465  1  0.48318482  0.91718157  0.33717717  1
  O  O466  1  0.48406225  0.91666483  0.58359732  1
  O  O467  1  0.48294726  0.91643401  0.83763337  1
  O  O468  1  0.98271829  0.24979765  0.08776541  1
  O  O469  1  0.98425031  0.25007100  0.33387905  1
  O  O470  1  0.98320568  0.24909130  0.58466642  1
  O  O471  1  0.98242888  0.24973832  0.83765858  1
  O  O472  1  0.98306264  0.58346710  0.08740352  1
  O  O473  1  0.98570913  0.58319540  0.33707228  1
  O  O474  1  0.98516420  0.58321517  0.58685115  1
  O  O475  1  0.98258104  0.58284897  0.83479451  1
  O  O476  1  0.98266573  0.91656671  0.08534729  1
  O  O477  1  0.98513559  0.91699823  0.33629673  1
  O  O478  1  0.98323077  0.91705656  0.58418953  1
  O  O479  1  0.98463250  0.91712998  0.83743968  1
  O  O480  1  0.08640521  0.31500732  0.07664788  1
  O  O481  1  0.08847708  0.31453497  0.32648208  1
  O  O482  1  0.08676871  0.31451980  0.57721959  1
  O  O483  1  0.08605952  0.31445900  0.82748108  1
  O  O484  1  0.08672563  0.64893818  0.07789109  1
  O  O485  1  0.08981087  0.64761597  0.32712923  1
  O  O486  1  0.08925254  0.64781740  0.57747128  1
  O  O487  1  0.08705148  0.64744862  0.82634321  1
  O  O488  1  0.08696648  0.98086269  0.07691836  1
  O  O489  1  0.08844811  0.98272834  0.32746632  1
  O  O490  1  0.08712400  0.98273221  0.57722077  1
  O  O491  1  0.08769686  0.98325963  0.82890547  1
  O  O492  1  0.58910112  0.31525237  0.07776881  1
  O  O493  1  0.58983413  0.31501378  0.32796864  1
  O  O494  1  0.58898297  0.31666297  0.57861375  1
  O  O495  1  0.58925757  0.31602868  0.82833344  1
  O  O496  1  0.58632828  0.64902220  0.07698616  1
  O  O497  1  0.58830275  0.64709527  0.32781153  1
  O  O498  1  0.58679474  0.64819983  0.57711069  1
  O  O499  1  0.58660246  0.64730584  0.82796157  1
  O  O500  1  0.58591215  0.98091375  0.07619990  1
  O  O501  1  0.58645341  0.98299908  0.32719172  1
  O  O502  1  0.58847751  0.98063947  0.57668250  1
  O  O503  1  0.58636618  0.98191572  0.82740908  1
  O  O504  1  0.41150979  0.01780341  0.17242246  1
  O  O505  1  0.41349233  0.01807852  0.42215337  1
  O  O506  1  0.41183921  0.01837624  0.67282365  1
  O  O507  1  0.41180707  0.01780558  0.92165874  1
  O  O508  1  0.41428628  0.35176501  0.17265975  1
  O  O509  1  0.41411009  0.35099147  0.42353612  1
  O  O510  1  0.41329292  0.35267897  0.67335948  1
  O  O511  1  0.41251448  0.35190657  0.92345727  1
  O  O512  1  0.41337373  0.68470579  0.17281075  1
  O  O513  1  0.41143178  0.68572743  0.42179735  1
  O  O514  1  0.41466789  0.68380733  0.67183573  1
  O  O515  1  0.41193029  0.68505239  0.92219896  1
  O  O516  1  0.91025347  0.01800215  0.17195500  1
  O  O517  1  0.91356749  0.01886363  0.42223089  1
  O  O518  1  0.91444486  0.01694080  0.67186286  1
  O  O519  1  0.91250270  0.01933283  0.92368903  1
  O  O520  1  0.91203527  0.35157557  0.17232697  1
  O  O521  1  0.91146488  0.35159149  0.42346817  1
  O  O522  1  0.91039114  0.35143652  0.67257656  1
  O  O523  1  0.91076418  0.35187083  0.92180163  1
  O  O524  1  0.91422505  0.68493120  0.17270990  1
  O  O525  1  0.91326049  0.68461863  0.42322670  1
  O  O526  1  0.91261204  0.68610503  0.67234299  1
  O  O527  1  0.91257991  0.68323840  0.92226683  1
  O  O528  1  0.16287791  0.01924388  0.20250342  1
  O  O529  1  0.16124060  0.01738814  0.45228164  1
  O  O530  1  0.16248350  0.01860677  0.70237997  1
  O  O531  1  0.16110404  0.01841294  0.95241799  1
  O  O532  1  0.16225229  0.35143072  0.20281909  1
  O  O533  1  0.16482696  0.35288342  0.45239457  1
  O  O534  1  0.16431779  0.35273604  0.70220651  1
  O  O535  1  0.16418841  0.35059846  0.95224025  1
  O  O536  1  0.16385254  0.68420659  0.20119902  1
  O  O537  1  0.16298765  0.68430769  0.45317907  1
  O  O538  1  0.16368951  0.68353108  0.70336368  1
  O  O539  1  0.16174262  0.68553007  0.95311977  1
  O  O540  1  0.66336997  0.01881817  0.20183786  1
  O  O541  1  0.66147467  0.01779798  0.45172285  1
  O  O542  1  0.66293491  0.01950755  0.70248314  1
  O  O543  1  0.66417604  0.01758787  0.95280160  1
  O  O544  1  0.66072909  0.35043624  0.20258582  1
  O  O545  1  0.66136003  0.35204571  0.45285218  1
  O  O546  1  0.66237449  0.35059289  0.70348862  1
  O  O547  1  0.65986537  0.35215606  0.95347937  1
  O  O548  1  0.66150122  0.68520668  0.20125645  1
  O  O549  1  0.66101546  0.68485130  0.45335349  1
  O  O550  1  0.66143677  0.68459474  0.70212680  1
  O  O551  1  0.66109783  0.68524079  0.95362764  1
  O  O552  1  0.33525556  0.31592650  0.04794803  1
  O  O553  1  0.33693766  0.31386829  0.29752850  1
  O  O554  1  0.33787414  0.31613449  0.54716084  1
  O  O555  1  0.33831395  0.31482153  0.79703663  1
  O  O556  1  0.33978907  0.64672394  0.04779752  1
  O  O557  1  0.33697173  0.64937219  0.29620914  1
  O  O558  1  0.33785811  0.64734124  0.54847709  1
  O  O559  1  0.33858313  0.64773935  0.79806166  1
  O  O560  1  0.33725780  0.98209496  0.04780773  1
  O  O561  1  0.33962276  0.98183149  0.29711919  1
  O  O562  1  0.33634080  0.98202760  0.54717923  1
  O  O563  1  0.33803778  0.98301568  0.79773147  1
  O  O564  1  0.83737382  0.31437994  0.04826625  1
  O  O565  1  0.83613039  0.31455564  0.29742884  1
  O  O566  1  0.83476209  0.31579995  0.54706567  1
  O  O567  1  0.83628738  0.31644137  0.79817538  1
  O  O568  1  0.83679530  0.64816268  0.04833090  1
  O  O569  1  0.83733894  0.64876428  0.29739237  1
  O  O570  1  0.83537583  0.64731492  0.54782108  1
  O  O571  1  0.83769414  0.64731278  0.79862221  1
  O  O572  1  0.83693715  0.98216742  0.04773727  1
  O  O573  1  0.83783473  0.98261525  0.29664027  1
  O  O574  1  0.83626605  0.98205826  0.54787369  1
  O  O575  1  0.83818422  0.98170569  0.79701468  1
  O  O576  1  0.41187674  0.14793011  0.17372398  1
  O  O577  1  0.41353351  0.14827497  0.42269722  1
  O  O578  1  0.41227935  0.14836042  0.67361125  1
  O  O579  1  0.41203564  0.14801418  0.92257407  1
  O  O580  1  0.41385929  0.48197412  0.17152249  1
  O  O581  1  0.41409719  0.48091963  0.42337814  1
  O  O582  1  0.41310696  0.48274317  0.67222156  1
  O  O583  1  0.41254305  0.48185145  0.92246760  1
  O  O584  1  0.41291365  0.81489069  0.17267440  1
  O  O585  1  0.41168567  0.81611896  0.42146810  1
  O  O586  1  0.41436857  0.81402227  0.67217740  1
  O  O587  1  0.41174833  0.81528132  0.92229115  1
  O  O588  1  0.91028303  0.14838159  0.17228491  1
  O  O589  1  0.91370253  0.14888842  0.42237864  1
  O  O590  1  0.91376771  0.14714117  0.67254639  1
  O  O591  1  0.91252362  0.14931004  0.92330382  1
  O  O592  1  0.91176595  0.48204546  0.17216511  1
  O  O593  1  0.91173364  0.48157400  0.42381041  1
  O  O594  1  0.91044674  0.48145825  0.67267328  1
  O  O595  1  0.91095154  0.48215364  0.92151955  1
  O  O596  1  0.91445410  0.81526319  0.17244180  1
  O  O597  1  0.91322516  0.81474681  0.42287669  1
  O  O598  1  0.91324355  0.81652890  0.67161407  1
  O  O599  1  0.91223451  0.81348857  0.92285042  1
  O  O600  1  0.08663352  0.18499849  0.07726894  1
  O  O601  1  0.08811129  0.18448311  0.32660877  1
  O  O602  1  0.08736294  0.18433365  0.57846126  1
  O  O603  1  0.08611530  0.18426843  0.82868464  1
  O  O604  1  0.08665604  0.51884720  0.07706651  1
  O  O605  1  0.08913352  0.51761602  0.32718673  1
  O  O606  1  0.08872811  0.51781993  0.57699952  1
  O  O607  1  0.08651187  0.51749395  0.82597768  1
  O  O608  1  0.08671601  0.85078821  0.07742459  1
  O  O609  1  0.08895737  0.85252806  0.32722939  1
  O  O610  1  0.08764436  0.85272389  0.57654572  1
  O  O611  1  0.08840962  0.85289037  0.82822272  1
  O  O612  1  0.58929979  0.18513709  0.07690951  1
  O  O613  1  0.58956561  0.18482004  0.32759067  1
  O  O614  1  0.59006698  0.18646145  0.57771330  1
  O  O615  1  0.58959464  0.18594867  0.82730541  1
  O  O616  1  0.58676486  0.51898572  0.07656727  1
  O  O617  1  0.58786862  0.51685364  0.32831870  1
  O  O618  1  0.58727292  0.51819333  0.57728619  1
  O  O619  1  0.58602735  0.51722691  0.82806045  1
  O  O620  1  0.58560200  0.85094432  0.07714751  1
  O  O621  1  0.58698087  0.85288013  0.32717319  1
  O  O622  1  0.58758192  0.85048448  0.57714174  1
  O  O623  1  0.58679582  0.85191212  0.82814949  1
  O  O624  1  0.33606566  0.18587533  0.04797672  1
  O  O625  1  0.33566776  0.18373013  0.29798654  1
  O  O626  1  0.33801241  0.18590170  0.54769718  1
  O  O627  1  0.33731355  0.18454146  0.79757276  1
  O  O628  1  0.33931683  0.51659309  0.04688539  1
  O  O629  1  0.33765093  0.51911180  0.29660126  1
  O  O630  1  0.33780364  0.51749920  0.54787160  1
  O  O631  1  0.33880716  0.51759184  0.79729239  1
  O  O632  1  0.33682343  0.85218873  0.04810479  1
  O  O633  1  0.33957366  0.85150265  0.29666235  1
  O  O634  1  0.33620703  0.85193281  0.54714400  1
  O  O635  1  0.33893058  0.85287824  0.79812874  1
  O  O636  1  0.83696961  0.18431073  0.04757671  1
  O  O637  1  0.83622003  0.18444530  0.29699912  1
  O  O638  1  0.83483666  0.18563162  0.54734894  1
  O  O639  1  0.83735658  0.18644532  0.79847484  1
  O  O640  1  0.83651790  0.51822458  0.04816956  1
  O  O641  1  0.83754458  0.51854535  0.29707003  1
  O  O642  1  0.83504699  0.51725166  0.54739092  1
  O  O643  1  0.83725278  0.51723597  0.79799814  1
  O  O644  1  0.83652020  0.85223726  0.04900465  1
  O  O645  1  0.83838517  0.85221473  0.29743037  1
  O  O646  1  0.83623071  0.85203950  0.54830540  1
  O  O647  1  0.83816170  0.85148025  0.79716024  1
  O  O648  1  0.16335136  0.14930476  0.20301324  1
  O  O649  1  0.16014280  0.14748752  0.45250206  1
  O  O650  1  0.16257807  0.14864147  0.70232330  1
  O  O651  1  0.16063896  0.14857761  0.95270796  1
  O  O652  1  0.16302273  0.48174706  0.20203888  1
  O  O653  1  0.16509225  0.48297990  0.45278229  1
  O  O654  1  0.16491908  0.48280759  0.70258728  1
  O  O655  1  0.16391838  0.48077923  0.95181249  1
  O  O656  1  0.16336163  0.81419826  0.20116031  1
  O  O657  1  0.16315424  0.81481198  0.45234840  1
  O  O658  1  0.16270999  0.81382218  0.70306661  1
  O  O659  1  0.16233732  0.81600288  0.95353136  1
  O  O660  1  0.66287587  0.14887818  0.20263801  1
  O  O661  1  0.66105345  0.14800960  0.45206694  1
  O  O662  1  0.66284286  0.14965750  0.70350179  1
  O  O663  1  0.66416715  0.14780610  0.95288004  1
  O  O664  1  0.66002296  0.48052306  0.20166685  1
  O  O665  1  0.66175950  0.48214959  0.45240499  1
  O  O666  1  0.66151889  0.48053596  0.70237337  1
  O  O667  1  0.66057934  0.48244370  0.95266464  1
  O  O668  1  0.66128951  0.81504481  0.20133501  1
  O  O669  1  0.66127654  0.81538700  0.45326117  1
  O  O670  1  0.66126016  0.81455295  0.70209424  1
  O  O671  1  0.66141960  0.81589847  0.95393304  1
