# generated using pymatgen
data_Na2MnFe(PO4)2
_symmetry_space_group_name_H-M   'P 1'
_cell_length_a   21.08820682
_cell_length_b   18.94188854
_cell_length_c   20.04736091
_cell_angle_alpha   89.99989954
_cell_angle_beta   89.99828235
_cell_angle_gamma   90.00029874
_symmetry_Int_Tables_number   1
_chemical_formula_structural   Na2MnFe(PO4)2
_chemical_formula_sum   'Na96 Mn48 Fe48 P96 O384'
_cell_volume   8007.92759514
_cell_formula_units_Z   48
loop_
 _symmetry_equiv_pos_site_id
 _symmetry_equiv_pos_as_xyz
  1  'x, y, z'
loop_
 _atom_site_type_symbol
 _atom_site_label
 _atom_site_symmetry_multiplicity
 _atom_site_fract_x
 _atom_site_fract_y
 _atom_site_fract_z
 _atom_site_occupancy
  Na  Na0  1  0.00019882  0.00030312  -0.00097338  1
  Na  Na1  1  -0.00022952  -0.00021776  0.25035659  1
  Na  Na2  1  0.00038305  0.00057184  0.49992200  1
  Na  Na3  1  -0.00300737  -0.00101838  0.75080660  1
  Na  Na4  1  -0.00148137  0.33253663  -0.00041103  1
  Na  Na5  1  -0.00032645  0.33294759  0.25067537  1
  Na  Na6  1  -0.00066543  0.33229082  0.49982779  1
  Na  Na7  1  -0.00129631  0.33280607  0.74979240  1
  Na  Na8  1  0.00029416  0.66653792  -0.00147641  1
  Na  Na9  1  -0.00017335  0.66581550  0.25014735  1
  Na  Na10  1  -0.00045009  0.66652422  0.50034771  1
  Na  Na11  1  -0.00195950  0.66606740  0.75106148  1
  Na  Na12  1  0.50238019  0.00115493  -0.00125009  1
  Na  Na13  1  0.50059301  0.00069918  0.25123347  1
  Na  Na14  1  0.49956939  -0.00044861  0.50085176  1
  Na  Na15  1  0.50159310  0.00053751  0.74886268  1
  Na  Na16  1  0.49742525  0.33256180  -0.00011718  1
  Na  Na17  1  0.49793157  0.33302574  0.25048628  1
  Na  Na18  1  0.50081653  0.33305147  0.49993595  1
  Na  Na19  1  0.50062030  0.33343848  0.74919074  1
  Na  Na20  1  0.49940357  0.66592530  0.00014603  1
  Na  Na21  1  0.50029742  0.66613223  0.24971626  1
  Na  Na22  1  0.50290368  0.66729360  0.50033291  1
  Na  Na23  1  0.50062179  0.66670889  0.75013355  1
  Na  Na24  1  0.24840691  -0.00056604  0.12520581  1
  Na  Na25  1  0.24858326  0.00003612  0.37491327  1
  Na  Na26  1  0.25158005  0.00073429  0.62526343  1
  Na  Na27  1  0.25037809  -0.00068992  0.87415107  1
  Na  Na28  1  0.25242666  0.33367392  0.12414486  1
  Na  Na29  1  0.25047241  0.33331341  0.37434426  1
  Na  Na30  1  0.24918205  0.33216974  0.62482871  1
  Na  Na31  1  0.25330807  0.33409576  0.87650378  1
  Na  Na32  1  0.25099558  0.66641341  0.12450862  1
  Na  Na33  1  0.24896660  0.66658145  0.37508160  1
  Na  Na34  1  0.24894020  0.66650845  0.62516869  1
  Na  Na35  1  0.25201785  0.66722964  0.87582984  1
  Na  Na36  1  0.74976636  0.00054778  0.12391783  1
  Na  Na37  1  0.74892882  0.00009947  0.37573608  1
  Na  Na38  1  0.74933134  -0.00003699  0.62634081  1
  Na  Na39  1  0.74912654  -0.00002188  0.87486572  1
  Na  Na40  1  0.74959638  0.33298388  0.12464165  1
  Na  Na41  1  0.75159789  0.33303014  0.37414019  1
  Na  Na42  1  0.74957247  0.33227670  0.62510723  1
  Na  Na43  1  0.74984729  0.33320902  0.87565679  1
  Na  Na44  1  0.74963926  0.66579764  0.12459495  1
  Na  Na45  1  0.74990367  0.66594107  0.37542523  1
  Na  Na46  1  0.74923815  0.66644149  0.62528230  1
  Na  Na47  1  0.74968118  0.66619107  0.87441102  1
  Na  Na48  1  -0.00207108  0.16679449  -0.00054021  1
  Na  Na49  1  -0.00173539  0.16742075  0.25036884  1
  Na  Na50  1  -0.00033309  0.16634398  0.50002224  1
  Na  Na51  1  -0.00337585  0.16758686  0.75006994  1
  Na  Na52  1  0.00135034  0.49962014  -0.00057210  1
  Na  Na53  1  -0.00071501  0.50085860  0.25018394  1
  Na  Na54  1  -0.00043197  0.50037229  0.50022877  1
  Na  Na55  1  -0.00156691  0.50111349  0.75043598  1
  Na  Na56  1  0.00062617  0.83268950  -0.00130431  1
  Na  Na57  1  0.00187575  0.83270210  0.25051594  1
  Na  Na58  1  0.00058877  0.83320129  0.50004308  1
  Na  Na59  1  -0.00187783  0.83408796  0.75090579  1
  Na  Na60  1  0.50083460  0.16632678  -0.00067455  1
  Na  Na61  1  0.49856827  0.16766813  0.25111134  1
  Na  Na62  1  0.50039147  0.16653161  0.50112870  1
  Na  Na63  1  0.50064229  0.16637663  0.74821343  1
  Na  Na64  1  0.49993819  0.50044611  0.00031759  1
  Na  Na65  1  0.50061090  0.50005117  0.25011694  1
  Na  Na66  1  0.50158405  0.50054353  0.49935887  1
  Na  Na67  1  0.50041126  0.50108141  0.74991213  1
  Na  Na68  1  0.50034679  0.83249261  -0.00045139  1
  Na  Na69  1  0.49904938  0.83346264  0.25010738  1
  Na  Na70  1  0.50084507  0.83347187  0.50058809  1
  Na  Na71  1  0.50091902  0.83290483  0.74997556  1
  Na  Na72  1  0.25152682  0.16675814  0.12497771  1
  Na  Na73  1  0.25040000  0.16689830  0.37410691  1
  Na  Na74  1  0.25084629  0.16629599  0.62460701  1
  Na  Na75  1  0.25231384  0.16613871  0.87582641  1
  Na  Na76  1  0.25104669  0.50007026  0.12413824  1
  Na  Na77  1  0.24948282  0.49997725  0.37440182  1
  Na  Na78  1  0.24922329  0.50051342  0.62564342  1
  Na  Na79  1  0.25237768  0.49972078  0.87595595  1
  Na  Na80  1  0.24894009  0.83312409  0.12482091  1
  Na  Na81  1  0.24787733  0.83357104  0.37604517  1
  Na  Na82  1  0.24995234  0.83340471  0.62501833  1
  Na  Na83  1  0.25160770  0.83237709  0.87463601  1
  Na  Na84  1  0.75122851  0.16667754  0.12447373  1
  Na  Na85  1  0.75124144  0.16628688  0.37525476  1
  Na  Na86  1  0.74927879  0.16682674  0.62529589  1
  Na  Na87  1  0.74973369  0.16666346  0.87534917  1
  Na  Na88  1  0.74837176  0.50129546  0.12458773  1
  Na  Na89  1  0.74964555  0.50070347  0.37412892  1
  Na  Na90  1  0.74974866  0.50097789  0.62507863  1
  Na  Na91  1  0.74946916  0.50091303  0.87535995  1
  Na  Na92  1  0.74892876  0.83368359  0.12419740  1
  Na  Na93  1  0.75050722  0.83304958  0.37565627  1
  Na  Na94  1  0.74914816  0.83358857  0.62627339  1
  Na  Na95  1  0.74902590  0.83349014  0.87420562  1
  Mn  Mn96  1  0.35812211  0.08331876  0.25236506  1
  Mn  Mn97  1  0.14158290  0.91647936  0.24741017  1
  Mn  Mn98  1  0.14194783  0.58252124  0.24717000  1
  Mn  Mn99  1  0.85708716  0.08323407  0.00220230  1
  Mn  Mn100  1  0.39250057  0.58340837  0.37770409  1
  Mn  Mn101  1  0.60846679  0.75024674  0.37256609  1
  Mn  Mn102  1  0.60750505  0.74991044  0.12250669  1
  Mn  Mn103  1  0.85787763  0.41640909  0.25136754  1
  Mn  Mn104  1  0.35876057  0.08250494  0.00237071  1
  Mn  Mn105  1  0.14268089  0.25053425  0.24736393  1
  Mn  Mn106  1  0.14235046  0.91679314  0.74757712  1
  Mn  Mn107  1  0.39256175  0.24990686  0.62702843  1
  Mn  Mn108  1  0.60746455  0.08370380  0.37318715  1
  Mn  Mn109  1  0.10731029  0.41686130  0.62312785  1
  Mn  Mn110  1  0.60717434  0.41660183  0.87260744  1
  Mn  Mn111  1  0.14275598  0.24982691  0.99779518  1
  Mn  Mn112  1  0.14251133  0.58344012  0.74859402  1
  Mn  Mn113  1  0.39163676  0.91690565  0.37808330  1
  Mn  Mn114  1  0.10727681  0.08295814  0.62362136  1
  Mn  Mn115  1  0.85775564  0.41661962  0.50240835  1
  Mn  Mn116  1  0.85754765  0.75055758  0.50314845  1
  Mn  Mn117  1  0.35720184  0.41669551  0.50247735  1
  Mn  Mn118  1  0.39263500  0.58424201  0.62664975  1
  Mn  Mn119  1  0.10722857  0.08352116  0.12226073  1
  Mn  Mn120  1  0.10772686  0.74995106  0.87232558  1
  Mn  Mn121  1  0.35723343  0.75032307  0.50282773  1
  Mn  Mn122  1  0.10760115  0.41617333  0.37264310  1
  Mn  Mn123  1  0.64198787  0.91674722  0.24737163  1
  Mn  Mn124  1  0.14240330  0.24952576  0.74858164  1
  Mn  Mn125  1  0.60884150  0.41685646  0.62210969  1
  Mn  Mn126  1  0.39326429  0.91663655  0.87712256  1
  Mn  Mn127  1  0.35741122  0.74980573  0.25237572  1
  Mn  Mn128  1  0.89271126  0.91621598  0.12737513  1
  Mn  Mn129  1  0.60800805  0.41624543  0.37239817  1
  Mn  Mn130  1  0.64156982  0.91590693  0.99736619  1
  Mn  Mn131  1  0.85773596  0.41735014  0.00286037  1
  Mn  Mn132  1  0.85755108  0.08285849  0.50269910  1
  Mn  Mn133  1  0.35861647  0.41674673  0.75206787  1
  Mn  Mn134  1  0.10806081  0.41605262  0.87310855  1
  Mn  Mn135  1  0.10724839  0.08380719  0.87252019  1
  Mn  Mn136  1  0.64241816  0.25025387  0.24767574  1
  Mn  Mn137  1  0.10748045  0.74997498  0.37330457  1
  Mn  Mn138  1  0.64151519  0.25079789  0.99786457  1
  Mn  Mn139  1  0.85829162  0.75060857  0.25146016  1
  Mn  Mn140  1  0.85734565  0.41659231  0.75242242  1
  Mn  Mn141  1  0.39205567  0.91723510  0.12707321  1
  Mn  Mn142  1  0.85731194  0.74980637  0.00222079  1
  Mn  Mn143  1  0.89213436  0.91686358  0.37766464  1
  Fe  Fe144  1  0.64355150  0.58316890  0.49799865  1
  Fe  Fe145  1  0.39320558  0.58276702  0.12698218  1
  Fe  Fe146  1  0.60639911  0.41628327  0.12343764  1
  Fe  Fe147  1  0.85752468  0.08290750  0.25153522  1
  Fe  Fe148  1  0.10785183  0.41679693  0.12320020  1
  Fe  Fe149  1  0.35771518  0.41712881  0.25158434  1
  Fe  Fe150  1  0.14138594  0.58318888  0.49891359  1
  Fe  Fe151  1  0.35642882  0.08328234  0.50127542  1
  Fe  Fe152  1  0.39246005  0.25004348  0.37777262  1
  Fe  Fe153  1  0.85656977  0.75042027  0.75131939  1
  Fe  Fe154  1  0.35809751  0.41750077  0.00238415  1
  Fe  Fe155  1  0.89197981  0.24965564  0.62690538  1
  Fe  Fe156  1  0.35826258  0.75017268  0.75128392  1
  Fe  Fe157  1  0.64210546  0.58355044  0.99814592  1
  Fe  Fe158  1  0.60733807  0.08275037  0.62295370  1
  Fe  Fe159  1  0.39360565  0.25013499  0.87598582  1
  Fe  Fe160  1  0.14200481  0.24942524  0.49832206  1
  Fe  Fe161  1  0.60750707  0.08341952  0.87228598  1
  Fe  Fe162  1  0.89196709  0.58316214  0.87730016  1
  Fe  Fe163  1  0.89180997  0.91647541  0.62687488  1
  Fe  Fe164  1  0.60694811  0.74999438  0.87271522  1
  Fe  Fe165  1  0.89334779  0.58304019  0.12603346  1
  Fe  Fe166  1  0.35749292  0.74994986  0.00164200  1
  Fe  Fe167  1  0.39338192  0.58332553  0.87683539  1
  Fe  Fe168  1  0.14261335  0.91611654  0.99808842  1
  Fe  Fe169  1  0.64297374  0.91651284  0.74789267  1
  Fe  Fe170  1  0.14371810  0.58352514  0.99843940  1
  Fe  Fe171  1  0.60777325  0.08422534  0.12413320  1
  Fe  Fe172  1  0.89270026  0.25063134  0.12675030  1
  Fe  Fe173  1  0.39311704  0.91640318  0.62647202  1
  Fe  Fe174  1  0.10727157  0.08382044  0.37366083  1
  Fe  Fe175  1  0.14221447  0.91729043  0.49978855  1
  Fe  Fe176  1  0.64332609  0.25012889  0.49784688  1
  Fe  Fe177  1  0.10777783  0.74902345  0.12249710  1
  Fe  Fe178  1  0.89225671  0.58298442  0.37679084  1
  Fe  Fe179  1  0.85599606  0.08297678  0.75151966  1
  Fe  Fe180  1  0.64282444  0.58351162  0.74833772  1
  Fe  Fe181  1  0.89220748  0.58376764  0.62688195  1
  Fe  Fe182  1  0.89176087  0.91652302  0.87714554  1
  Fe  Fe183  1  0.64313552  0.58327940  0.24779571  1
  Fe  Fe184  1  0.64249713  0.91678100  0.49879299  1
  Fe  Fe185  1  0.39320050  0.25009807  0.12660932  1
  Fe  Fe186  1  0.89301716  0.25011946  0.37706196  1
  Fe  Fe187  1  0.35850131  0.08299101  0.75163960  1
  Fe  Fe188  1  0.64261115  0.25003138  0.74832128  1
  Fe  Fe189  1  0.10663319  0.75014956  0.62460640  1
  Fe  Fe190  1  0.60783163  0.75057355  0.62368858  1
  Fe  Fe191  1  0.89142266  0.25028515  0.87661308  1
  P  P192  1  0.05216661  0.25082665  0.10995876  1
  P  P193  1  0.05378755  0.24900801  0.36114573  1
  P  P194  1  0.05220548  0.24948523  0.60999871  1
  P  P195  1  0.05145159  0.24987542  0.86000677  1
  P  P196  1  0.05328559  0.58301749  0.10906433  1
  P  P197  1  0.05313858  0.58313891  0.36116881  1
  P  P198  1  0.05216035  0.58444398  0.61062638  1
  P  P199  1  0.05327389  0.58310930  0.86131216  1
  P  P200  1  0.05383138  0.91566512  0.10875689  1
  P  P201  1  0.05476722  0.91788225  0.36174464  1
  P  P202  1  0.05185904  0.91607150  0.61045123  1
  P  P203  1  0.05321436  0.91672962  0.86085327  1
  P  P204  1  0.55220274  0.25053642  0.11048247  1
  P  P205  1  0.55326252  0.24989063  0.36116873  1
  P  P206  1  0.55584386  0.24916280  0.61036909  1
  P  P207  1  0.55288099  0.24968751  0.85904010  1
  P  P208  1  0.55413570  0.58237699  0.11069640  1
  P  P209  1  0.55573659  0.58330421  0.36010407  1
  P  P210  1  0.55588919  0.58451480  0.61058178  1
  P  P211  1  0.55407164  0.58411667  0.86073318  1
  P  P212  1  0.55300277  0.91764452  0.10982046  1
  P  P213  1  0.55417511  0.91688660  0.36122365  1
  P  P214  1  0.55457174  0.91651005  0.61116392  1
  P  P215  1  0.55447446  0.91634931  0.85892131  1
  P  P216  1  0.44835560  0.08396583  0.14005705  1
  P  P217  1  0.44565265  0.08416478  0.39148124  1
  P  P218  1  0.44582379  0.08235809  0.63863694  1
  P  P219  1  0.44740220  0.08391364  0.88807060  1
  P  P220  1  0.44592830  0.41709815  0.13931583  1
  P  P221  1  0.44560256  0.41625212  0.38925334  1
  P  P222  1  0.44745340  0.41714693  0.63954067  1
  P  P223  1  0.44601826  0.41709854  0.89029398  1
  P  P224  1  0.44527351  0.74917173  0.13876338  1
  P  P225  1  0.44687321  0.74978445  0.39070679  1
  P  P226  1  0.44773374  0.75075819  0.64027040  1
  P  P227  1  0.44626261  0.74923816  0.88913684  1
  P  P228  1  0.94582750  0.08382297  0.14039595  1
  P  P229  1  0.94631448  0.08402578  0.38911829  1
  P  P230  1  0.94523434  0.08297428  0.64070964  1
  P  P231  1  0.94397483  0.08315998  0.88836700  1
  P  P232  1  0.94824861  0.41718669  0.13967706  1
  P  P233  1  0.94615316  0.41657311  0.38983556  1
  P  P234  1  0.94607495  0.41663329  0.63994860  1
  P  P235  1  0.94585673  0.41676915  0.88999537  1
  P  P236  1  0.94853898  0.74885282  0.13931290  1
  P  P237  1  0.94603491  0.74931288  0.39021817  1
  P  P238  1  0.94662412  0.75025953  0.64083836  1
  P  P239  1  0.94428484  0.75010074  0.88840576  1
  P  P240  1  0.19564036  0.08399281  0.23568110  1
  P  P241  1  0.19646300  0.08333357  0.48496022  1
  P  P242  1  0.19850626  0.08340313  0.73515495  1
  P  P243  1  0.19688499  0.08255541  0.98472031  1
  P  P244  1  0.19766227  0.41635605  0.23365344  1
  P  P245  1  0.19586221  0.41641039  0.48511877  1
  P  P246  1  0.19727934  0.41637796  0.73544658  1
  P  P247  1  0.19705144  0.41747516  0.98651729  1
  P  P248  1  0.19560124  0.74933737  0.23406329  1
  P  P249  1  0.19437820  0.75018361  0.48719977  1
  P  P250  1  0.19766856  0.74997770  0.73474389  1
  P  P251  1  0.19649791  0.74938320  0.98597334  1
  P  P252  1  0.69757661  0.08388603  0.23446496  1
  P  P253  1  0.69517456  0.08321756  0.48671548  1
  P  P254  1  0.69523401  0.08334348  0.73591527  1
  P  P255  1  0.69409116  0.08381673  0.98517021  1
  P  P256  1  0.69609995  0.41711896  0.23388556  1
  P  P257  1  0.69700644  0.41639011  0.48455901  1
  P  P258  1  0.69646126  0.41680714  0.73536565  1
  P  P259  1  0.69496587  0.41759446  0.98620550  1
  P  P260  1  0.69710110  0.74920211  0.23464919  1
  P  P261  1  0.69544585  0.75043289  0.48676303  1
  P  P262  1  0.69565483  0.74992167  0.73608658  1
  P  P263  1  0.69545450  0.74876311  0.98380072  1
  P  P264  1  0.30631245  0.25039918  0.01435999  1
  P  P265  1  0.30599074  0.25113809  0.26415557  1
  P  P266  1  0.30293344  0.24911253  0.51370704  1
  P  P267  1  0.30453881  0.24899855  0.76576119  1
  P  P268  1  0.30523835  0.58369006  0.01420150  1
  P  P269  1  0.30452218  0.58240994  0.26384494  1
  P  P270  1  0.30135823  0.58338874  0.51507856  1
  P  P271  1  0.30466223  0.58457493  0.76574666  1
  P  P272  1  0.30241856  0.91568128  0.01466053  1
  P  P273  1  0.30288282  0.91645643  0.26543735  1
  P  P274  1  0.30239604  0.91768505  0.51573305  1
  P  P275  1  0.30549409  0.91626274  0.76345841  1
  P  P276  1  0.80463527  0.25035245  0.01474614  1
  P  P277  1  0.80556020  0.24918307  0.26423717  1
  P  P278  1  0.80390365  0.24977109  0.51455108  1
  P  P279  1  0.80325296  0.24904428  0.76435423  1
  P  P280  1  0.80348199  0.58353175  0.01463541  1
  P  P281  1  0.80441904  0.58328536  0.26388760  1
  P  P282  1  0.80393060  0.58340728  0.51457143  1
  P  P283  1  0.80392954  0.58426170  0.76430792  1
  P  P284  1  0.80375107  0.91643484  0.01398545  1
  P  P285  1  0.80323191  0.91756010  0.26501424  1
  P  P286  1  0.80217633  0.91685862  0.51636872  1
  P  P287  1  0.80369390  0.91666481  0.76413185  1
  O  O288  1  0.05610471  0.25035548  0.18664223  1
  O  O289  1  0.05862532  0.24934946  0.43781946  1
  O  O290  1  0.05623295  0.24942180  0.68667165  1
  O  O291  1  0.05617883  0.24954919  0.93663397  1
  O  O292  1  0.05630691  0.58305561  0.18584818  1
  O  O293  1  0.05806437  0.58307243  0.43782182  1
  O  O294  1  0.05595940  0.58376515  0.68731502  1
  O  O295  1  0.05916277  0.58331398  0.93783576  1
  O  O296  1  0.05641460  0.91638849  0.18563270  1
  O  O297  1  0.05888215  0.91746425  0.43848961  1
  O  O298  1  0.05560146  0.91694858  0.68716948  1
  O  O299  1  0.05895307  0.91648700  0.93742873  1
  O  O300  1  0.55563752  0.25069711  0.18715690  1
  O  O301  1  0.55875966  0.25000197  0.43776971  1
  O  O302  1  0.55989337  0.25004672  0.68713943  1
  O  O303  1  0.55601589  0.25032608  0.93576228  1
  O  O304  1  0.55891481  0.58328054  0.18736160  1
  O  O305  1  0.56043590  0.58322677  0.43688920  1
  O  O306  1  0.55970986  0.58357367  0.68740481  1
  O  O307  1  0.55827421  0.58354108  0.93741680  1
  O  O308  1  0.55555536  0.91681158  0.18665244  1
  O  O309  1  0.55868012  0.91670462  0.43796897  1
  O  O310  1  0.55927604  0.91654685  0.68783828  1
  O  O311  1  0.55667967  0.91620306  0.93572129  1
  O  O312  1  0.44494602  0.08300334  0.06329894  1
  O  O313  1  0.44294325  0.08337591  0.31466814  1
  O  O314  1  0.44056137  0.08297890  0.56207522  1
  O  O315  1  0.44274837  0.08317468  0.81141958  1
  O  O316  1  0.44173938  0.41750887  0.06256266  1
  O  O317  1  0.44171356  0.41711232  0.31250516  1
  O  O318  1  0.44392180  0.41708154  0.56277328  1
  O  O319  1  0.44385139  0.41733066  0.81347573  1
  O  O320  1  0.44125017  0.74985343  0.06196984  1
  O  O321  1  0.44323168  0.74956688  0.31393080  1
  O  O322  1  0.44371717  0.75006902  0.56359416  1
  O  O323  1  0.44198925  0.74992306  0.81246326  1
  O  O324  1  0.94275353  0.08292059  0.06357890  1
  O  O325  1  0.94179278  0.08310113  0.31250925  1
  O  O326  1  0.94297973  0.08288664  0.56387530  1
  O  O327  1  0.93968574  0.08304282  0.81165400  1
  O  O328  1  0.94451998  0.41705831  0.06302488  1
  O  O329  1  0.94345029  0.41687100  0.31310129  1
  O  O330  1  0.94357478  0.41652447  0.56318824  1
  O  O331  1  0.94276275  0.41706684  0.81324688  1
  O  O332  1  0.94452298  0.74957410  0.06264404  1
  O  O333  1  0.94338670  0.74991213  0.31343054  1
  O  O334  1  0.94348820  0.75033771  0.56410105  1
  O  O335  1  0.93983387  0.75023077  0.81171166  1
  O  O336  1  0.19340601  0.08354096  0.06150918  1
  O  O337  1  0.19120685  0.08432106  0.31239525  1
  O  O338  1  0.19308253  0.08363238  0.56168964  1
  O  O339  1  0.19406655  0.08340741  0.81178621  1
  O  O340  1  0.19170834  0.41661100  0.06312012  1
  O  O341  1  0.19305254  0.41629524  0.31034394  1
  O  O342  1  0.19298950  0.41630329  0.56192891  1
  O  O343  1  0.19435471  0.41634592  0.81226798  1
  O  O344  1  0.19173096  0.74921073  0.06262100  1
  O  O345  1  0.19215815  0.74923494  0.31089005  1
  O  O346  1  0.19031207  0.75005017  0.56392783  1
  O  O347  1  0.19384186  0.75003494  0.81149505  1
  O  O348  1  0.68997619  0.08416627  0.06195004  1
  O  O349  1  0.69343946  0.08418628  0.31118954  1
  O  O350  1  0.69149902  0.08307764  0.56348691  1
  O  O351  1  0.69108082  0.08356248  0.81268776  1
  O  O352  1  0.69045784  0.41660646  0.06287990  1
  O  O353  1  0.69344599  0.41604899  0.31066932  1
  O  O354  1  0.69457227  0.41638598  0.56135220  1
  O  O355  1  0.69369143  0.41679370  0.81214883  1
  O  O356  1  0.69253585  0.74946723  0.06060127  1
  O  O357  1  0.69450297  0.74965342  0.31144519  1
  O  O358  1  0.69183181  0.75060424  0.56353716  1
  O  O359  1  0.69120364  0.74978815  0.81272694  1
  O  O360  1  0.31031334  0.24998257  0.18733948  1
  O  O361  1  0.30769103  0.24995931  0.43706037  1
  O  O362  1  0.30707146  0.24960907  0.68889674  1
  O  O363  1  0.31073811  0.24960314  0.93764130  1
  O  O364  1  0.30891662  0.58293113  0.18712109  1
  O  O365  1  0.30550862  0.58355780  0.43840705  1
  O  O366  1  0.30727701  0.58387036  0.68895384  1
  O  O367  1  0.30972308  0.58353583  0.93751776  1
  O  O368  1  0.30636809  0.91664438  0.18865676  1
  O  O369  1  0.30563619  0.91674435  0.43901810  1
  O  O370  1  0.30957594  0.91637625  0.68674310  1
  O  O371  1  0.30683015  0.91628995  0.93797228  1
  O  O372  1  0.80966936  0.25048279  0.18743679  1
  O  O373  1  0.80900832  0.24967819  0.43787259  1
  O  O374  1  0.80802215  0.24974828  0.68765398  1
  O  O375  1  0.80866739  0.25048135  0.93794005  1
  O  O376  1  0.80966070  0.58322995  0.18720926  1
  O  O377  1  0.80879365  0.58334905  0.43786968  1
  O  O378  1  0.80876095  0.58375793  0.68759546  1
  O  O379  1  0.80848891  0.58315115  0.93792939  1
  O  O380  1  0.80640509  0.91678244  0.18822143  1
  O  O381  1  0.80639101  0.91686099  0.43968962  1
  O  O382  1  0.80828097  0.91645013  0.68744397  1
  O  O383  1  0.80785858  0.91641857  0.93720440  1
  O  O384  1  0.23613169  0.25006826  0.03823970  1
  O  O385  1  0.23581616  0.25057154  0.28791475  1
  O  O386  1  0.23261625  0.24910291  0.53757911  1
  O  O387  1  0.23503919  0.24992895  0.79155649  1
  O  O388  1  0.23483540  0.58348049  0.03797593  1
  O  O389  1  0.23447809  0.58289100  0.28794805  1
  O  O390  1  0.23125896  0.58341033  0.53948372  1
  O  O391  1  0.23505156  0.58372709  0.79128760  1
  O  O392  1  0.23230892  0.91590179  0.03889398  1
  O  O393  1  0.23314581  0.91641815  0.29018239  1
  O  O394  1  0.23229719  0.91730698  0.54042719  1
  O  O395  1  0.23552539  0.91599278  0.78796772  1
  O  O396  1  0.73451797  0.25008952  0.03853368  1
  O  O397  1  0.73546962  0.24990954  0.28830977  1
  O  O398  1  0.73348801  0.24961530  0.53784246  1
  O  O399  1  0.73282442  0.24952632  0.78804322  1
  O  O400  1  0.73302118  0.58368542  0.03775977  1
  O  O401  1  0.73391723  0.58294155  0.28710187  1
  O  O402  1  0.73346776  0.58352225  0.53784973  1
  O  O403  1  0.73337143  0.58377159  0.78761305  1
  O  O404  1  0.73373934  0.91657113  0.03799757  1
  O  O405  1  0.73367260  0.91696637  0.29045297  1
  O  O406  1  0.73208936  0.91698429  0.54052510  1
  O  O407  1  0.73310760  0.91673123  0.78748238  1
  O  O408  1  0.26569155  0.08361917  0.21157571  1
  O  O409  1  0.26650523  0.08329727  0.46013311  1
  O  O410  1  0.26861063  0.08321870  0.71094924  1
  O  O411  1  0.26675822  0.08267795  0.96006761  1
  O  O412  1  0.26786667  0.41652480  0.20989197  1
  O  O413  1  0.26539787  0.41657202  0.45948366  1
  O  O414  1  0.26686239  0.41647887  0.71005987  1
  O  O415  1  0.26765435  0.41741066  0.96358023  1
  O  O416  1  0.26541941  0.74969582  0.20954331  1
  O  O417  1  0.26429865  0.75029139  0.46243826  1
  O  O418  1  0.26776741  0.75002744  0.71044208  1
  O  O419  1  0.26689439  0.74947318  0.96225230  1
  O  O420  1  0.76762263  0.08374347  0.21011789  1
  O  O421  1  0.76505027  0.08326217  0.46200848  1
  O  O422  1  0.76563026  0.08306482  0.71212704  1
  O  O423  1  0.76419844  0.08358879  0.96134150  1
  O  O424  1  0.76579283  0.41701706  0.20868968  1
  O  O425  1  0.76641914  0.41668409  0.45868715  1
  O  O426  1  0.76598012  0.41685259  0.70969334  1
  O  O427  1  0.76494193  0.41738008  0.96200728  1
  O  O428  1  0.76654853  0.74964386  0.20879822  1
  O  O429  1  0.76528086  0.74990761  0.46193204  1
  O  O430  1  0.76609517  0.75014700  0.71227224  1
  O  O431  1  0.76511512  0.74955731  0.95878380  1
  O  O432  1  0.01558655  0.08354180  0.16535148  1
  O  O433  1  0.01642006  0.08396140  0.41347944  1
  O  O434  1  0.01481883  0.08309831  0.66636140  1
  O  O435  1  0.01395217  0.08330570  0.91277083  1
  O  O436  1  0.01815950  0.41721212  0.16478464  1
  O  O437  1  0.01567561  0.41622283  0.41541920  1
  O  O438  1  0.01554930  0.41693672  0.66582358  1
  O  O439  1  0.01550623  0.41623555  0.91520051  1
  O  O440  1  0.01849742  0.74889110  0.16405937  1
  O  O441  1  0.01560111  0.74973934  0.41556504  1
  O  O442  1  0.01657683  0.75015854  0.66601628  1
  O  O443  1  0.01442443  0.74989851  0.91223473  1
  O  O444  1  0.51817809  0.08428988  0.16535784  1
  O  O445  1  0.51533655  0.08352501  0.41651390  1
  O  O446  1  0.51648227  0.08292479  0.66157155  1
  O  O447  1  0.51778662  0.08336923  0.91168460  1
  O  O448  1  0.51618626  0.41697653  0.16348740  1
  O  O449  1  0.51555959  0.41646474  0.41363424  1
  O  O450  1  0.51716036  0.41707291  0.66442532  1
  O  O451  1  0.51558982  0.41669871  0.91588459  1
  O  O452  1  0.51520802  0.74939834  0.16322276  1
  O  O453  1  0.51666726  0.74996947  0.41524391  1
  O  O454  1  0.51790823  0.75035972  0.66445839  1
  O  O455  1  0.51664069  0.74958483  0.91288720  1
  O  O456  1  0.48228697  0.25020336  0.08542076  1
  O  O457  1  0.48288211  0.24985914  0.33797889  1
  O  O458  1  0.48564953  0.24972838  0.58653281  1
  O  O459  1  0.48290390  0.25025661  0.83417270  1
  O  O460  1  0.48368832  0.58273620  0.08724220  1
  O  O461  1  0.48555169  0.58324139  0.33663793  1
  O  O462  1  0.48589578  0.58393779  0.58611946  1
  O  O463  1  0.48372723  0.58368858  0.83693552  1
  O  O464  1  0.48366164  0.91710004  0.08365343  1
  O  O465  1  0.48415800  0.91722854  0.33724113  1
  O  O466  1  0.48411278  0.91655602  0.58752150  1
  O  O467  1  0.48488448  0.91671244  0.83352005  1
  O  O468  1  0.98199415  0.25022103  0.08566009  1
  O  O469  1  0.98344594  0.24995455  0.33755286  1
  O  O470  1  0.98188263  0.24922817  0.58603479  1
  O  O471  1  0.98117285  0.25019633  0.83624760  1
  O  O472  1  0.98323733  0.58298665  0.08418018  1
  O  O473  1  0.98280963  0.58318859  0.33749675  1
  O  O474  1  0.98190960  0.58374599  0.58635983  1
  O  O475  1  0.98268768  0.58343990  0.83845793  1
  O  O476  1  0.98415645  0.91642808  0.08347872  1
  O  O477  1  0.98485172  0.91675643  0.33724896  1
  O  O478  1  0.98173433  0.91669329  0.58590459  1
  O  O479  1  0.98263503  0.91658358  0.83808105  1
  O  O480  1  0.08571076  0.31600263  0.07726727  1
  O  O481  1  0.08735037  0.31392608  0.32769727  1
  O  O482  1  0.08589462  0.31453086  0.57712346  1
  O  O483  1  0.08520233  0.31490491  0.82730509  1
  O  O484  1  0.08738669  0.64795416  0.07629049  1
  O  O485  1  0.08649724  0.64807540  0.32784300  1
  O  O486  1  0.08552480  0.64977345  0.57808101  1
  O  O487  1  0.08635179  0.64802982  0.82752601  1
  O  O488  1  0.08851263  0.98047533  0.07634215  1
  O  O489  1  0.08777781  0.98328022  0.32879631  1
  O  O490  1  0.08619329  0.98084370  0.57752469  1
  O  O491  1  0.08609686  0.98177670  0.82714065  1
  O  O492  1  0.58569084  0.31574053  0.07755394  1
  O  O493  1  0.58644263  0.31473195  0.32738150  1
  O  O494  1  0.58974200  0.31386198  0.57687651  1
  O  O495  1  0.58721269  0.31457353  0.82641915  1
  O  O496  1  0.58757160  0.64713594  0.07676643  1
  O  O497  1  0.58926469  0.64824278  0.32679893  1
  O  O498  1  0.58928285  0.64996031  0.57825727  1
  O  O499  1  0.58745802  0.64914662  0.82747261  1
  O  O500  1  0.58724227  0.98291435  0.07824921  1
  O  O501  1  0.58784893  0.98194767  0.32833719  1
  O  O502  1  0.58794644  0.98152182  0.57777587  1
  O  O503  1  0.58913122  0.98118820  0.82671598  1
  O  O504  1  0.41446050  0.01894401  0.17288784  1
  O  O505  1  0.41099216  0.01945771  0.42411417  1
  O  O506  1  0.41309320  0.01718339  0.67223420  1
  O  O507  1  0.41411720  0.01900264  0.92186480  1
  O  O508  1  0.41239336  0.35198033  0.17213329  1
  O  O509  1  0.41203294  0.35095996  0.42188755  1
  O  O510  1  0.41347379  0.35198132  0.67183133  1
  O  O511  1  0.41142109  0.35212438  0.92225007  1
  O  O512  1  0.41193339  0.68379060  0.17139998  1
  O  O513  1  0.41306939  0.68476340  0.42353543  1
  O  O514  1  0.41374348  0.68592858  0.67336107  1
  O  O515  1  0.41284542  0.68419415  0.92227759  1
  O  O516  1  0.91156875  0.01891916  0.17319788  1
  O  O517  1  0.91283057  0.01913561  0.42278287  1
  O  O518  1  0.91076955  0.01793914  0.67283689  1
  O  O519  1  0.91057011  0.01794349  0.92144307  1
  O  O520  1  0.91412606  0.35224544  0.17231399  1
  O  O521  1  0.91182558  0.35139712  0.42187492  1
  O  O522  1  0.91193918  0.35132810  0.67194850  1
  O  O523  1  0.91132507  0.35179087  0.92200255  1
  O  O524  1  0.91459572  0.68371477  0.17162432  1
  O  O525  1  0.91202538  0.68412162  0.42230112  1
  O  O526  1  0.91224448  0.68527640  0.67318316  1
  O  O527  1  0.91090194  0.68496056  0.92152730  1
  O  O528  1  0.16185644  0.01897361  0.20293044  1
  O  O529  1  0.16246769  0.01808058  0.45274892  1
  O  O530  1  0.16468513  0.01840361  0.70225946  1
  O  O531  1  0.16296162  0.01737105  0.95249150  1
  O  O532  1  0.16399733  0.35139653  0.20053950  1
  O  O533  1  0.16195509  0.35109010  0.45280712  1
  O  O534  1  0.16304450  0.35140860  0.70315971  1
  O  O535  1  0.16412602  0.35242784  0.95267370  1
  O  O536  1  0.16185275  0.68424085  0.20127833  1
  O  O537  1  0.16087921  0.68504506  0.45406796  1
  O  O538  1  0.16353959  0.68496615  0.70231983  1
  O  O539  1  0.16344135  0.68411698  0.95263925  1
  O  O540  1  0.66346503  0.01899434  0.20173813  1
  O  O541  1  0.66162593  0.01800135  0.45398812  1
  O  O542  1  0.66174467  0.01823701  0.70279954  1
  O  O543  1  0.66043206  0.01886620  0.95205542  1
  O  O544  1  0.66172685  0.35222010  0.20123974  1
  O  O545  1  0.66295768  0.35109558  0.45239477  1
  O  O546  1  0.66242321  0.35167008  0.70312461  1
  O  O547  1  0.66147622  0.35263729  0.95274497  1
  O  O548  1  0.66295412  0.68403187  0.20254209  1
  O  O549  1  0.66163811  0.68537199  0.45401849  1
  O  O550  1  0.66236993  0.68495704  0.70268988  1
  O  O551  1  0.66156572  0.68347754  0.95164132  1
  O  O552  1  0.33970414  0.31569182  0.04716496  1
  O  O553  1  0.33913309  0.31659384  0.29681400  1
  O  O554  1  0.33635539  0.31395371  0.54743225  1
  O  O555  1  0.33959894  0.31370340  0.79795571  1
  O  O556  1  0.33853103  0.64878397  0.04739230  1
  O  O557  1  0.33812987  0.64724535  0.29729972  1
  O  O558  1  0.33526110  0.64834533  0.54798137  1
  O  O559  1  0.33857279  0.65003350  0.79765253  1
  O  O560  1  0.33609250  0.98078280  0.04767836  1
  O  O561  1  0.33682602  0.98160194  0.29785575  1
  O  O562  1  0.33636573  0.98289351  0.54786646  1
  O  O563  1  0.33894642  0.98144139  0.79653186  1
  O  O564  1  0.83816615  0.31530563  0.04804291  1
  O  O565  1  0.83959208  0.31396033  0.29752795  1
  O  O566  1  0.83706642  0.31479480  0.54803311  1
  O  O567  1  0.83673903  0.31394172  0.79795397  1
  O  O568  1  0.83689666  0.64847354  0.04791515  1
  O  O569  1  0.83747483  0.64830133  0.29752479  1
  O  O570  1  0.83719709  0.64825232  0.54830714  1
  O  O571  1  0.83694931  0.64940439  0.79750693  1
  O  O572  1  0.83728577  0.98138925  0.04696699  1
  O  O573  1  0.83699212  0.98292659  0.29729219  1
  O  O574  1  0.83618674  0.98169269  0.54923663  1
  O  O575  1  0.83678507  0.98179197  0.79746275  1
  O  O576  1  0.41408304  0.14897834  0.17213952  1
  O  O577  1  0.41162500  0.14943740  0.42354213  1
  O  O578  1  0.41254959  0.14724510  0.67243742  1
  O  O579  1  0.41446066  0.14908233  0.92121775  1
  O  O580  1  0.41246991  0.48208053  0.17271335  1
  O  O581  1  0.41203483  0.48118587  0.42258582  1
  O  O582  1  0.41353169  0.48219396  0.67198500  1
  O  O583  1  0.41199146  0.48226750  0.92277186  1
  O  O584  1  0.41167803  0.81416253  0.17189287  1
  O  O585  1  0.41284806  0.81484391  0.42321230  1
  O  O586  1  0.41403753  0.81587535  0.67291585  1
  O  O587  1  0.41267028  0.81412932  0.92268135  1
  O  O588  1  0.91179476  0.14901053  0.17245888  1
  O  O589  1  0.91273040  0.14916321  0.42199984  1
  O  O590  1  0.91055269  0.14801929  0.67259205  1
  O  O591  1  0.91039447  0.14833830  0.92118256  1
  O  O592  1  0.91425485  0.48236191  0.17204033  1
  O  O593  1  0.91210458  0.48170724  0.42221158  1
  O  O594  1  0.91161636  0.48169389  0.67195527  1
  O  O595  1  0.91206211  0.48201720  0.92256743  1
  O  O596  1  0.91478471  0.81390269  0.17235083  1
  O  O597  1  0.91176192  0.81427722  0.42278212  1
  O  O598  1  0.91240510  0.81532203  0.67326026  1
  O  O599  1  0.91104447  0.81526884  0.92163682  1
  O  O600  1  0.08597178  0.18589451  0.07690446  1
  O  O601  1  0.08666850  0.18388058  0.32774595  1
  O  O602  1  0.08608840  0.18449976  0.57713397  1
  O  O603  1  0.08472795  0.18485063  0.82664513  1
  O  O604  1  0.08756299  0.51798970  0.07670793  1
  O  O605  1  0.08637569  0.51812177  0.32764716  1
  O  O606  1  0.08631782  0.51970913  0.57746541  1
  O  O607  1  0.08605068  0.51795316  0.82776471  1
  O  O608  1  0.08771571  0.85031307  0.07667892  1
  O  O609  1  0.08874508  0.85298917  0.32873205  1
  O  O610  1  0.08562802  0.85082336  0.57825502  1
  O  O611  1  0.08630404  0.85175701  0.82717580  1
  O  O612  1  0.58634120  0.18562818  0.07797876  1
  O  O613  1  0.58640713  0.18485296  0.32766995  1
  O  O614  1  0.58901122  0.18377871  0.57769372  1
  O  O615  1  0.58681600  0.18470884  0.82642920  1
  O  O616  1  0.58725431  0.51718213  0.07754918  1
  O  O617  1  0.58928364  0.51839362  0.32676613  1
  O  O618  1  0.59002230  0.51987943  0.57713984  1
  O  O619  1  0.58776369  0.51930726  0.82725677  1
  O  O620  1  0.58758031  0.85264608  0.07754400  1
  O  O621  1  0.58749778  0.85190546  0.32782661  1
  O  O622  1  0.58786391  0.85143073  0.57791514  1
  O  O623  1  0.58861790  0.85110636  0.82679200  1
  O  O624  1  0.34003956  0.18554130  0.04782181  1
  O  O625  1  0.33984040  0.18648350  0.29777173  1
  O  O626  1  0.33640426  0.18399648  0.54664924  1
  O  O627  1  0.33862512  0.18362105  0.79761287  1
  O  O628  1  0.33881966  0.51877665  0.04766598  1
  O  O629  1  0.33776201  0.51702992  0.29663345  1
  O  O630  1  0.33523816  0.51844693  0.54783636  1
  O  O631  1  0.33957426  0.51993692  0.79826434  1
  O  O632  1  0.33607987  0.85059620  0.04726331  1
  O  O633  1  0.33675409  0.85139638  0.29802851  1
  O  O634  1  0.33682678  0.85298958  0.54869007  1
  O  O635  1  0.33912033  0.85107568  0.79630119  1
  O  O636  1  0.83843353  0.18547504  0.04768510  1
  O  O637  1  0.83877622  0.18385005  0.29703766  1
  O  O638  1  0.83725155  0.18494152  0.54821184  1
  O  O639  1  0.83632024  0.18384204  0.79743293  1
  O  O640  1  0.83677419  0.51873610  0.04843670  1
  O  O641  1  0.83769962  0.51825125  0.29739412  1
  O  O642  1  0.83711980  0.51844734  0.54805197  1
  O  O643  1  0.83724580  0.51935349  0.79803611  1
  O  O644  1  0.83710642  0.85135854  0.04711117  1
  O  O645  1  0.83766921  0.85262248  0.29744148  1
  O  O646  1  0.83599197  0.85190430  0.54935174  1
  O  O647  1  0.83688604  0.85161747  0.79753239  1
  O  O648  1  0.16249775  0.14905750  0.20222174  1
  O  O649  1  0.16240841  0.14818367  0.45190001  1
  O  O650  1  0.16480313  0.14840605  0.70232645  1
  O  O651  1  0.16301681  0.14773496  0.95202492  1
  O  O652  1  0.16373864  0.48128380  0.20076081  1
  O  O653  1  0.16162537  0.48163453  0.45305472  1
  O  O654  1  0.16302704  0.48152281  0.70338241  1
  O  O655  1  0.16407952  0.48272091  0.95328018  1
  O  O656  1  0.16120159  0.81415292  0.20157975  1
  O  O657  1  0.16091024  0.81560835  0.45464169  1
  O  O658  1  0.16345620  0.81480680  0.70200253  1
  O  O659  1  0.16315302  0.81437238  0.95254348  1
  O  O660  1  0.66376745  0.14888520  0.20141192  1
  O  O661  1  0.66167822  0.14837548  0.45369084  1
  O  O662  1  0.66190179  0.14826946  0.70256730  1
  O  O663  1  0.66064799  0.14882922  0.95186762  1
  O  O664  1  0.66175396  0.48223064  0.20202090  1
  O  O665  1  0.66260773  0.48150778  0.45268553  1
  O  O666  1  0.66238538  0.48201023  0.70322502  1
  O  O667  1  0.66151445  0.48282082  0.95340532  1
  O  O668  1  0.66254338  0.81414400  0.20247698  1
  O  O669  1  0.66217242  0.81582547  0.45393258  1
  O  O670  1  0.66224432  0.81498476  0.70277044  1
  O  O671  1  0.66073541  0.81346998  0.95121902  1
