# generated using pymatgen
data_Na2MnFe(PO4)2
_symmetry_space_group_name_H-M   'P 1'
_cell_length_a   21.08649988
_cell_length_b   18.93964133
_cell_length_c   20.04518908
_cell_angle_alpha   89.99989547
_cell_angle_beta   89.99624353
_cell_angle_gamma   89.99991360
_symmetry_Int_Tables_number   1
_chemical_formula_structural   Na2MnFe(PO4)2
_chemical_formula_sum   'Na96 Mn48 Fe48 P96 O384'
_cell_volume   8005.46206798
_cell_formula_units_Z   48
loop_
 _symmetry_equiv_pos_site_id
 _symmetry_equiv_pos_as_xyz
  1  'x, y, z'
loop_
 _atom_site_type_symbol
 _atom_site_label
 _atom_site_symmetry_multiplicity
 _atom_site_fract_x
 _atom_site_fract_y
 _atom_site_fract_z
 _atom_site_occupancy
  Na  Na0  1  0.00033154  -0.00024810  0.00146495  1
  Na  Na1  1  0.00198418  0.00011659  0.24972555  1
  Na  Na2  1  0.00095276  0.00016433  0.49886522  1
  Na  Na3  1  -0.00070144  -0.00063166  0.74994386  1
  Na  Na4  1  0.00082402  0.33398707  -0.00026270  1
  Na  Na5  1  -0.00136712  0.33364925  0.24908894  1
  Na  Na6  1  -0.00286835  0.33305173  0.50077601  1
  Na  Na7  1  0.00019714  0.33349840  0.75085981  1
  Na  Na8  1  0.00231473  0.66745686  0.00117411  1
  Na  Na9  1  0.00011353  0.66637629  0.24936661  1
  Na  Na10  1  -0.00159445  0.66590619  0.49879288  1
  Na  Na11  1  -0.00170194  0.66528536  0.75084427  1
  Na  Na12  1  0.49990203  -0.00052271  0.00055328  1
  Na  Na13  1  0.50191543  -0.00021802  0.24957234  1
  Na  Na14  1  0.50220629  0.00019653  0.49992639  1
  Na  Na15  1  0.49860304  -0.00104850  0.75039654  1
  Na  Na16  1  0.49816848  0.33329627  -0.00011184  1
  Na  Na17  1  0.49829230  0.33359717  0.25005651  1
  Na  Na18  1  0.49775870  0.33259710  0.50002266  1
  Na  Na19  1  0.50002124  0.33386605  0.74936145  1
  Na  Na20  1  0.49931521  0.66570812  0.00081454  1
  Na  Na21  1  0.50039305  0.66657528  0.25007095  1
  Na  Na22  1  0.50194864  0.66727072  0.49839719  1
  Na  Na23  1  0.49932834  0.66587472  0.75039634  1
  Na  Na24  1  0.25000663  -0.00087288  0.12448456  1
  Na  Na25  1  0.24894762  -0.00082573  0.37474858  1
  Na  Na26  1  0.24789384  -0.00035183  0.62521242  1
  Na  Na27  1  0.24984374  0.00059022  0.87598779  1
  Na  Na28  1  0.25146177  0.33403944  0.12551218  1
  Na  Na29  1  0.25216509  0.33414300  0.37540164  1
  Na  Na30  1  0.24942833  0.33395419  0.62557272  1
  Na  Na31  1  0.24775685  0.33301431  0.87399389  1
  Na  Na32  1  0.24957986  0.66595312  0.12440842  1
  Na  Na33  1  0.24988210  0.66658659  0.37435386  1
  Na  Na34  1  0.25035598  0.66674602  0.62512524  1
  Na  Na35  1  0.25142716  0.66696777  0.87595628  1
  Na  Na36  1  0.74838868  -0.00086184  0.12515578  1
  Na  Na37  1  0.74765536  -0.00115738  0.37353935  1
  Na  Na38  1  0.74964629  -0.00048498  0.62569084  1
  Na  Na39  1  0.75210892  0.00056062  0.87545935  1
  Na  Na40  1  0.74994408  0.33386769  0.12470479  1
  Na  Na41  1  0.75198594  0.33405547  0.37500668  1
  Na  Na42  1  0.75327236  0.33397287  0.62467553  1
  Na  Na43  1  0.75053722  0.33348206  0.87567595  1
  Na  Na44  1  0.74795815  0.66564728  0.12375398  1
  Na  Na45  1  0.74968196  0.66634909  0.37506134  1
  Na  Na46  1  0.75095339  0.66613650  0.62531862  1
  Na  Na47  1  0.75057018  0.66642250  0.87563322  1
  Na  Na48  1  0.00222593  0.16595934  0.00003575  1
  Na  Na49  1  -0.00013715  0.16661933  0.24904505  1
  Na  Na50  1  -0.00130856  0.16789408  0.50023539  1
  Na  Na51  1  0.00292483  0.16545555  0.75136269  1
  Na  Na52  1  0.00070078  0.50057235  0.00053035  1
  Na  Na53  1  0.00032133  0.49993404  0.24842035  1
  Na  Na54  1  -0.00288329  0.50067442  0.49977454  1
  Na  Na55  1  -0.00104321  0.49963855  0.75099044  1
  Na  Na56  1  -0.00160362  0.83437602  0.00107585  1
  Na  Na57  1  0.00021331  0.83334491  0.25083016  1
  Na  Na58  1  0.00025450  0.83306621  0.49806458  1
  Na  Na59  1  -0.00160354  0.83403601  0.75001195  1
  Na  Na60  1  0.49948732  0.16735935  -0.00065900  1
  Na  Na61  1  0.50117668  0.16576459  0.25003586  1
  Na  Na62  1  0.50060744  0.16656029  0.50037992  1
  Na  Na63  1  0.50094498  0.16683141  0.74973230  1
  Na  Na64  1  0.49861942  0.50038002  0.00106207  1
  Na  Na65  1  0.50049534  0.49979882  0.25007156  1
  Na  Na66  1  0.50076800  0.49951470  0.49918280  1
  Na  Na67  1  0.49799110  0.50065191  0.74973277  1
  Na  Na68  1  0.49881319  0.83391477  0.00073419  1
  Na  Na69  1  0.49942370  0.83363503  0.24968808  1
  Na  Na70  1  0.50066630  0.83355888  0.49881041  1
  Na  Na71  1  0.49932299  0.83363737  0.75074602  1
  Na  Na72  1  0.24802123  0.16724494  0.12468574  1
  Na  Na73  1  0.25003918  0.16662037  0.37507837  1
  Na  Na74  1  0.24914901  0.16640503  0.62555474  1
  Na  Na75  1  0.24611325  0.16767339  0.87479431  1
  Na  Na76  1  0.25156023  0.50004894  0.12473406  1
  Na  Na77  1  0.25090422  0.49966310  0.37498550  1
  Na  Na78  1  0.24902737  0.49967922  0.62581382  1
  Na  Na79  1  0.25003452  0.49992284  0.87468807  1
  Na  Na80  1  0.25240038  0.83302964  0.12471162  1
  Na  Na81  1  0.25048258  0.83396665  0.37449337  1
  Na  Na82  1  0.24913522  0.83418323  0.62461733  1
  Na  Na83  1  0.25266575  0.83227984  0.87646298  1
  Na  Na84  1  0.74969850  0.16594989  0.12550632  1
  Na  Na85  1  0.74932559  0.16691230  0.37483625  1
  Na  Na86  1  0.75082224  0.16714979  0.62429067  1
  Na  Na87  1  0.75020048  0.16678965  0.87548755  1
  Na  Na88  1  0.74768220  0.50106947  0.12421211  1
  Na  Na89  1  0.75018865  0.50039189  0.37443511  1
  Na  Na90  1  0.75154421  0.50025632  0.62534896  1
  Na  Na91  1  0.75230747  0.49888062  0.87537669  1
  Na  Na92  1  0.74924566  0.83360368  0.12380791  1
  Na  Na93  1  0.74930578  0.83378954  0.37428670  1
  Na  Na94  1  0.75079425  0.83373164  0.62608186  1
  Na  Na95  1  0.75048390  0.83396626  0.87598240  1
  Mn  Mn96  1  0.60686233  0.74975727  0.87314835  1
  Mn  Mn97  1  0.64273087  0.58235751  0.74824304  1
  Mn  Mn98  1  0.64297490  0.25032175  0.49789098  1
  Mn  Mn99  1  0.39229478  0.58395193  0.37723015  1
  Mn  Mn100  1  0.85755810  0.74982970  0.00300602  1
  Mn  Mn101  1  0.14219207  0.25036094  0.24791362  1
  Mn  Mn102  1  0.89325252  0.24961280  0.87787294  1
  Mn  Mn103  1  0.39246276  0.58319904  0.62644570  1
  Mn  Mn104  1  0.14145944  0.91652754  0.74822992  1
  Mn  Mn105  1  0.35780351  0.08365295  0.50245320  1
  Mn  Mn106  1  0.89202687  0.91691324  0.37668097  1
  Mn  Mn107  1  0.60751713  0.41668228  0.87280601  1
  Mn  Mn108  1  0.14172365  0.25022460  0.49797132  1
  Mn  Mn109  1  0.85887369  0.08404830  0.75232690  1
  Mn  Mn110  1  0.39133957  0.25001859  0.87677430  1
  Mn  Mn111  1  0.60794873  0.08357200  0.87286106  1
  Mn  Mn112  1  0.60836644  0.75052864  0.37189849  1
  Mn  Mn113  1  0.85712793  0.08269837  0.25204999  1
  Mn  Mn114  1  0.35667977  0.41655834  0.75217388  1
  Mn  Mn115  1  0.64254922  0.91718417  0.74832874  1
  Mn  Mn116  1  0.60861634  0.74984695  0.62307928  1
  Mn  Mn117  1  0.10803637  0.75043947  0.87310317  1
  Mn  Mn118  1  0.85772549  0.75024076  0.50215794  1
  Mn  Mn119  1  0.64179010  0.24987303  0.99797018  1
  Mn  Mn120  1  0.39184058  0.91708352  0.62688044  1
  Mn  Mn121  1  0.85862346  0.74957832  0.75285841  1
  Mn  Mn122  1  0.14112906  0.58346438  0.49777545  1
  Mn  Mn123  1  0.35786032  0.74973075  0.50233533  1
  Mn  Mn124  1  0.85755914  0.08310307  0.50202369  1
  Mn  Mn125  1  0.10715004  0.74974727  0.62252087  1
  Mn  Mn126  1  0.10890908  0.41680760  0.12231663  1
  Mn  Mn127  1  0.35806507  0.08296126  0.25180790  1
  Mn  Mn128  1  0.10783204  0.08425541  0.37236117  1
  Mn  Mn129  1  0.14158212  0.58361911  0.74793283  1
  Mn  Mn130  1  0.10718187  0.41674105  0.37336375  1
  Mn  Mn131  1  0.60844387  0.41662726  0.62277959  1
  Mn  Mn132  1  0.39206695  0.24882361  0.37761703  1
  Mn  Mn133  1  0.35826365  0.75022518  0.75202670  1
  Mn  Mn134  1  0.85723207  0.41759108  0.25162008  1
  Mn  Mn135  1  0.10780660  0.74914870  0.37188525  1
  Mn  Mn136  1  0.64182337  0.25050011  0.24720685  1
  Mn  Mn137  1  0.14281081  0.91610012  0.99788244  1
  Mn  Mn138  1  0.89257302  0.58433618  0.12695066  1
  Mn  Mn139  1  0.89262546  0.24933386  0.12666516  1
  Mn  Mn140  1  0.35720398  0.08408503  0.00248478  1
  Mn  Mn141  1  0.60822984  0.08330627  0.62304718  1
  Mn  Mn142  1  0.60798960  0.41589687  0.37308732  1
  Mn  Mn143  1  0.35663344  0.08345996  0.75224829  1
  Fe  Fe144  1  0.60606049  0.41647558  0.12304069  1
  Fe  Fe145  1  0.64332536  0.25050637  0.74810381  1
  Fe  Fe146  1  0.89291386  0.91641327  0.12708639  1
  Fe  Fe147  1  0.10554354  0.41668244  0.62291402  1
  Fe  Fe148  1  0.10744329  0.08263936  0.12328317  1
  Fe  Fe149  1  0.35738533  0.74982379  0.25095209  1
  Fe  Fe150  1  0.14199696  0.91648493  0.49824173  1
  Fe  Fe151  1  0.39379817  0.91692558  0.12708350  1
  Fe  Fe152  1  0.14285268  0.25117049  0.99859869  1
  Fe  Fe153  1  0.10660002  0.08323592  0.62289699  1
  Fe  Fe154  1  0.60702090  0.08362643  0.12274077  1
  Fe  Fe155  1  0.64372531  0.58341655  0.49862887  1
  Fe  Fe156  1  0.89258951  0.91648344  0.87743024  1
  Fe  Fe157  1  0.64249557  0.58371914  0.24802675  1
  Fe  Fe158  1  0.60762677  0.08331896  0.37343821  1
  Fe  Fe159  1  0.14176416  0.25032001  0.74722121  1
  Fe  Fe160  1  0.89269585  0.91702554  0.62580352  1
  Fe  Fe161  1  0.14303332  0.58373602  0.24826343  1
  Fe  Fe162  1  0.64303027  0.91647954  0.99817388  1
  Fe  Fe163  1  0.35717232  0.41674183  0.50226568  1
  Fe  Fe164  1  0.10701151  0.41696361  0.87367069  1
  Fe  Fe165  1  0.85782394  0.08347792  0.00233917  1
  Fe  Fe166  1  0.35791602  0.74917102  0.00264704  1
  Fe  Fe167  1  0.64210084  0.58317374  0.99781941  1
  Fe  Fe168  1  0.89210616  0.58336691  0.62702613  1
  Fe  Fe169  1  0.35760853  0.41732860  0.25149534  1
  Fe  Fe170  1  0.85805929  0.41625027  0.75245923  1
  Fe  Fe171  1  0.10801432  0.75068886  0.12390141  1
  Fe  Fe172  1  0.39304670  0.58336524  0.12729522  1
  Fe  Fe173  1  0.10673822  0.08284518  0.87374105  1
  Fe  Fe174  1  0.89319768  0.24973623  0.62772768  1
  Fe  Fe175  1  0.39201393  0.24972492  0.12627069  1
  Fe  Fe176  1  0.85769040  0.41700723  0.50188748  1
  Fe  Fe177  1  0.64227933  0.91554997  0.24724805  1
  Fe  Fe178  1  0.89189953  0.25031800  0.37623492  1
  Fe  Fe179  1  0.64253679  0.91621356  0.49847052  1
  Fe  Fe180  1  0.85665460  0.74977152  0.25039507  1
  Fe  Fe181  1  0.14415470  0.58289275  0.99831993  1
  Fe  Fe182  1  0.39253157  0.24974251  0.62710685  1
  Fe  Fe183  1  0.85732316  0.41630527  0.00180279  1
  Fe  Fe184  1  0.60675169  0.74971493  0.12321977  1
  Fe  Fe185  1  0.14361459  0.91585077  0.24777165  1
  Fe  Fe186  1  0.39327663  0.91718594  0.37659155  1
  Fe  Fe187  1  0.35693414  0.41672381  0.00129943  1
  Fe  Fe188  1  0.89183283  0.58299515  0.37574576  1
  Fe  Fe189  1  0.39194843  0.58344163  0.87736193  1
  Fe  Fe190  1  0.89318227  0.58355136  0.87796879  1
  Fe  Fe191  1  0.39229528  0.91659668  0.87711059  1
  P  P192  1  0.05447185  0.24947286  0.10935810  1
  P  P193  1  0.05134810  0.25093892  0.35982783  1
  P  P194  1  0.05291045  0.25037911  0.61153184  1
  P  P195  1  0.05581484  0.25044349  0.86136634  1
  P  P196  1  0.05625791  0.58453314  0.11058479  1
  P  P197  1  0.05219862  0.58259713  0.35878585  1
  P  P198  1  0.05107594  0.58233608  0.61020374  1
  P  P199  1  0.05371115  0.58272666  0.86200326  1
  P  P200  1  0.05418263  0.91583897  0.11166587  1
  P  P201  1  0.05539233  0.91658041  0.35980666  1
  P  P202  1  0.05232739  0.91706864  0.60923294  1
  P  P203  1  0.05192509  0.91705144  0.86078821  1
  P  P204  1  0.55159572  0.25048949  0.11006527  1
  P  P205  1  0.55338796  0.24944172  0.36009413  1
  P  P206  1  0.55356180  0.25041380  0.61086390  1
  P  P207  1  0.55374830  0.25053815  0.85891989  1
  P  P208  1  0.55411265  0.58327039  0.11113544  1
  P  P209  1  0.55560021  0.58317487  0.36028301  1
  P  P210  1  0.55435272  0.58301368  0.60894023  1
  P  P211  1  0.55267042  0.58292555  0.86126239  1
  P  P212  1  0.55452310  0.91604644  0.11072591  1
  P  P213  1  0.55463480  0.91722559  0.36007125  1
  P  P214  1  0.55394796  0.91643910  0.60941108  1
  P  P215  1  0.55312439  0.91657084  0.86161196  1
  P  P216  1  0.44778493  0.08336590  0.13954956  1
  P  P217  1  0.44804503  0.08183926  0.38986268  1
  P  P218  1  0.44651677  0.08404378  0.64028520  1
  P  P219  1  0.44633480  0.08303014  0.89011040  1
  P  P220  1  0.44519591  0.41690724  0.13897630  1
  P  P221  1  0.44463904  0.41693894  0.38957271  1
  P  P222  1  0.44537351  0.41595628  0.63888225  1
  P  P223  1  0.44544472  0.41723658  0.89061711  1
  P  P224  1  0.44603622  0.74954761  0.13928217  1
  P  P225  1  0.44548589  0.75111519  0.38812048  1
  P  P226  1  0.44741118  0.74998501  0.63989545  1
  P  P227  1  0.44548413  0.74974542  0.89122307  1
  P  P228  1  0.94668457  0.08222784  0.13887822  1
  P  P229  1  0.94646337  0.08389825  0.38958770  1
  P  P230  1  0.94781589  0.08330739  0.63966599  1
  P  P231  1  0.94736585  0.08273789  0.89113054  1
  P  P232  1  0.94583845  0.41698127  0.13835511  1
  P  P233  1  0.94531124  0.41725000  0.38989190  1
  P  P234  1  0.94525874  0.41666297  0.63979634  1
  P  P235  1  0.94613508  0.41717123  0.88998874  1
  P  P236  1  0.94738537  0.75085473  0.14074150  1
  P  P237  1  0.94483940  0.74894063  0.38776204  1
  P  P238  1  0.94640646  0.75015187  0.63960402  1
  P  P239  1  0.94677815  0.74980866  0.89091728  1
  P  P240  1  0.19617418  0.08236708  0.23423264  1
  P  P241  1  0.19509380  0.08305718  0.48600540  1
  P  P242  1  0.19354083  0.08368623  0.73568665  1
  P  P243  1  0.19443091  0.08392204  0.98595378  1
  P  P244  1  0.19799602  0.41758561  0.23538556  1
  P  P245  1  0.19626072  0.41663233  0.48615831  1
  P  P246  1  0.19343992  0.41633773  0.73549982  1
  P  P247  1  0.19743773  0.41711269  0.98463341  1
  P  P248  1  0.19766042  0.75022746  0.23433317  1
  P  P249  1  0.19627997  0.75053248  0.48454126  1
  P  P250  1  0.19681713  0.75018196  0.73497826  1
  P  P251  1  0.19728516  0.74923490  0.98677006  1
  P  P252  1  0.69420047  0.08252625  0.23522507  1
  P  P253  1  0.69616196  0.08246374  0.48427776  1
  P  P254  1  0.69731482  0.08457536  0.73528500  1
  P  P255  1  0.69662198  0.08232754  0.98641723  1
  P  P256  1  0.69556248  0.41757178  0.23402287  1
  P  P257  1  0.69852243  0.41732811  0.48516213  1
  P  P258  1  0.69852242  0.41578859  0.73525402  1
  P  P259  1  0.69600545  0.41719339  0.98621272  1
  P  P260  1  0.69677646  0.74972240  0.23371376  1
  P  P261  1  0.69676403  0.75008452  0.48508496  1
  P  P262  1  0.69725910  0.74972300  0.73573927  1
  P  P263  1  0.69472103  0.75004811  0.98640408  1
  P  P264  1  0.30229641  0.25105322  0.01507804  1
  P  P265  1  0.30467826  0.25030388  0.26381905  1
  P  P266  1  0.30374021  0.25057267  0.51618316  1
  P  P267  1  0.30204603  0.24985431  0.76389608  1
  P  P268  1  0.30481788  0.58287114  0.01453583  1
  P  P269  1  0.30395353  0.58383348  0.26341133  1
  P  P270  1  0.30265385  0.58261600  0.51506106  1
  P  P271  1  0.30373902  0.58337293  0.76577645  1
  P  P272  1  0.30583682  0.91614495  0.01485743  1
  P  P273  1  0.30488278  0.91596561  0.26396758  1
  P  P274  1  0.30286090  0.91706141  0.51378944  1
  P  P275  1  0.30329909  0.91700280  0.76618116  1
  P  P276  1  0.80356907  0.24975737  0.01507892  1
  P  P277  1  0.80362768  0.24995353  0.26512893  1
  P  P278  1  0.80581753  0.25062670  0.51440671  1
  P  P279  1  0.80425068  0.25062800  0.76444265  1
  P  P280  1  0.80337154  0.58251225  0.01391288  1
  P  P281  1  0.80235406  0.58464079  0.26441759  1
  P  P282  1  0.80428102  0.58276960  0.51415453  1
  P  P283  1  0.80577214  0.58221356  0.76525170  1
  P  P284  1  0.80460325  0.91753409  0.01490553  1
  P  P285  1  0.80301730  0.91539723  0.26298397  1
  P  P286  1  0.80235001  0.91685511  0.51523143  1
  P  P287  1  0.80573918  0.91697627  0.76508566  1
  O  O288  1  0.05696522  0.25055074  0.18618617  1
  O  O289  1  0.05522977  0.25105449  0.43652952  1
  O  O290  1  0.05719261  0.25032268  0.68824430  1
  O  O291  1  0.05959993  0.25105114  0.93814792  1
  O  O292  1  0.06039921  0.58335841  0.18734769  1
  O  O293  1  0.05576092  0.58288561  0.43553861  1
  O  O294  1  0.05489856  0.58284882  0.68687866  1
  O  O295  1  0.05925581  0.58329984  0.93861486  1
  O  O296  1  0.05902064  0.91566624  0.18828007  1
  O  O297  1  0.05945029  0.91631345  0.43658360  1
  O  O298  1  0.05561186  0.91626360  0.68595847  1
  O  O299  1  0.05613458  0.91631077  0.93747633  1
  O  O300  1  0.55528095  0.25062774  0.18671212  1
  O  O301  1  0.55672265  0.25041060  0.43685964  1
  O  O302  1  0.55887219  0.25097926  0.68748721  1
  O  O303  1  0.55702438  0.25069838  0.93572885  1
  O  O304  1  0.55863000  0.58353837  0.18783489  1
  O  O305  1  0.56046335  0.58314463  0.43698214  1
  O  O306  1  0.55720424  0.58272261  0.68581000  1
  O  O307  1  0.55795986  0.58256876  0.93793754  1
  O  O308  1  0.55885509  0.91562939  0.18747517  1
  O  O309  1  0.55919466  0.91612473  0.43674741  1
  O  O310  1  0.55700487  0.91634677  0.68624530  1
  O  O311  1  0.55834867  0.91680344  0.93823917  1
  O  O312  1  0.44377834  0.08358174  0.06292225  1
  O  O313  1  0.44423874  0.08228576  0.31319804  1
  O  O314  1  0.44367711  0.08360157  0.56349094  1
  O  O315  1  0.44302574  0.08347084  0.81337779  1
  O  O316  1  0.44058879  0.41679883  0.06231307  1
  O  O317  1  0.44043686  0.41744544  0.31273077  1
  O  O318  1  0.44130228  0.41659921  0.56211478  1
  O  O319  1  0.44244250  0.41670210  0.81381969  1
  O  O320  1  0.44158530  0.74921841  0.06259562  1
  O  O321  1  0.44111719  0.75001405  0.31138925  1
  O  O322  1  0.44445132  0.75000160  0.56306394  1
  O  O323  1  0.44327478  0.74966336  0.81438461  1
  O  O324  1  0.94192683  0.08290525  0.06222535  1
  O  O325  1  0.94332017  0.08291059  0.31279747  1
  O  O326  1  0.94422181  0.08358091  0.56301160  1
  O  O327  1  0.94404045  0.08362120  0.81440514  1
  O  O328  1  0.94132946  0.41719879  0.06162552  1
  O  O329  1  0.94287316  0.41735155  0.31305406  1
  O  O330  1  0.94100379  0.41685885  0.56306431  1
  O  O331  1  0.94179574  0.41625685  0.81326562  1
  O  O332  1  0.94344214  0.75009851  0.06402144  1
  O  O333  1  0.94055459  0.74966381  0.31109510  1
  O  O334  1  0.94392834  0.75000578  0.56275344  1
  O  O335  1  0.94402509  0.74954296  0.81417832  1
  O  O336  1  0.19057704  0.08246056  0.06273597  1
  O  O337  1  0.19350752  0.08336210  0.31108082  1
  O  O338  1  0.19044391  0.08362462  0.56277582  1
  O  O339  1  0.18956631  0.08269621  0.81251751  1
  O  O340  1  0.19465486  0.41714039  0.06141484  1
  O  O341  1  0.19409312  0.41691052  0.31203766  1
  O  O342  1  0.19040157  0.41678216  0.56275403  1
  O  O343  1  0.18956667  0.41712597  0.81228976  1
  O  O344  1  0.19231127  0.75047705  0.06332733  1
  O  O345  1  0.19408808  0.75028367  0.31103259  1
  O  O346  1  0.19293309  0.74997569  0.56134341  1
  O  O347  1  0.19380120  0.75007238  0.81182259  1
  O  O348  1  0.69107433  0.08309742  0.06308262  1
  O  O349  1  0.69038251  0.08340516  0.31199128  1
  O  O350  1  0.69367669  0.08338370  0.56110017  1
  O  O351  1  0.69425701  0.08379125  0.81209746  1
  O  O352  1  0.69038359  0.41672384  0.06279539  1
  O  O353  1  0.69311714  0.41635589  0.31082639  1
  O  O354  1  0.69497826  0.41662304  0.56184577  1
  O  O355  1  0.69440229  0.41636038  0.81193986  1
  O  O356  1  0.69036272  0.74982175  0.06310333  1
  O  O357  1  0.69389773  0.75015248  0.31050098  1
  O  O358  1  0.69447569  0.75004628  0.56184440  1
  O  O359  1  0.69372845  0.74987629  0.81254177  1
  O  O360  1  0.30885920  0.24929543  0.18703595  1
  O  O361  1  0.30678026  0.24943179  0.43929981  1
  O  O362  1  0.30759309  0.24974360  0.68735486  1
  O  O363  1  0.30540813  0.24992200  0.93836506  1
  O  O364  1  0.30867494  0.58376142  0.18671899  1
  O  O365  1  0.30598443  0.58321663  0.43827829  1
  O  O366  1  0.30703614  0.58324468  0.68902383  1
  O  O367  1  0.30868513  0.58325682  0.93782605  1
  O  O368  1  0.31014542  0.91700308  0.18725225  1
  O  O369  1  0.30821079  0.91751498  0.43716801  1
  O  O370  1  0.30612137  0.91728011  0.68934394  1
  O  O371  1  0.30960338  0.91704630  0.93809451  1
  O  O372  1  0.80691475  0.24965551  0.18835988  1
  O  O373  1  0.80942760  0.24972969  0.43759930  1
  O  O374  1  0.80927814  0.24962904  0.68773539  1
  O  O375  1  0.80680866  0.24965572  0.93829821  1
  O  O376  1  0.80613349  0.58385701  0.18773407  1
  O  O377  1  0.80833532  0.58334955  0.43744500  1
  O  O378  1  0.80961145  0.58323218  0.68838763  1
  O  O379  1  0.80874116  0.58319866  0.93728918  1
  O  O380  1  0.80818794  0.91632790  0.18636788  1
  O  O381  1  0.80621695  0.91701344  0.43848126  1
  O  O382  1  0.81018211  0.91711067  0.68832103  1
  O  O383  1  0.80948907  0.91700712  0.93816475  1
  O  O384  1  0.23223202  0.25100336  0.03977951  1
  O  O385  1  0.23473662  0.25020885  0.28841715  1
  O  O386  1  0.23396272  0.25028298  0.54103726  1
  O  O387  1  0.23160222  0.25025423  0.78705766  1
  O  O388  1  0.23447455  0.58278908  0.03849294  1
  O  O389  1  0.23363590  0.58387653  0.28741941  1
  O  O390  1  0.23300260  0.58305768  0.54030594  1
  O  O391  1  0.23393062  0.58341698  0.79057148  1
  O  O392  1  0.23565969  0.91626793  0.03873462  1
  O  O393  1  0.23430564  0.91638000  0.28698027  1
  O  O394  1  0.23250022  0.91678138  0.53747218  1
  O  O395  1  0.23367373  0.91642014  0.79156845  1
  O  O396  1  0.73388391  0.24981163  0.04025573  1
  O  O397  1  0.73383310  0.25047790  0.28987150  1
  O  O398  1  0.73579663  0.25028788  0.53874743  1
  O  O399  1  0.73410803  0.25051244  0.78851766  1
  O  O400  1  0.73284345  0.58311035  0.03702220  1
  O  O401  1  0.73224820  0.58368113  0.28880425  1
  O  O402  1  0.73405458  0.58331413  0.53844829  1
  O  O403  1  0.73574939  0.58259132  0.78954253  1
  O  O404  1  0.73406577  0.91650699  0.03802048  1
  O  O405  1  0.73255744  0.91584911  0.28633507  1
  O  O406  1  0.73230763  0.91659539  0.53967416  1
  O  O407  1  0.73562263  0.91721740  0.78905283  1
  O  O408  1  0.26584685  0.08287557  0.20896841  1
  O  O409  1  0.26509031  0.08345934  0.46173688  1
  O  O410  1  0.26356717  0.08320085  0.71148713  1
  O  O411  1  0.26447218  0.08384943  0.96175173  1
  O  O412  1  0.26806453  0.41730717  0.21079099  1
  O  O413  1  0.26667403  0.41644067  0.46291719  1
  O  O414  1  0.26360273  0.41681385  0.71170771  1
  O  O415  1  0.26733978  0.41679976  0.95952295  1
  O  O416  1  0.26777455  0.74990259  0.20978303  1
  O  O417  1  0.26592941  0.75012788  0.45936456  1
  O  O418  1  0.26635829  0.75036131  0.70962327  1
  O  O419  1  0.26775518  0.74924805  0.96345919  1
  O  O420  1  0.76432175  0.08270991  0.21115569  1
  O  O421  1  0.76571897  0.08279770  0.45866554  1
  O  O422  1  0.76690452  0.08385101  0.70995131  1
  O  O423  1  0.76706269  0.08295160  0.96302927  1
  O  O424  1  0.76528156  0.41754683  0.20882426  1
  O  O425  1  0.76848048  0.41712717  0.46034664  1
  O  O426  1  0.76858266  0.41663265  0.71088539  1
  O  O427  1  0.76651165  0.41663367  0.96293598  1
  O  O428  1  0.76663529  0.74964934  0.20841474  1
  O  O429  1  0.76619545  0.75023577  0.45914655  1
  O  O430  1  0.76695679  0.74966187  0.71083004  1
  O  O431  1  0.76483319  0.75010849  0.96239218  1
  O  O432  1  0.01706125  0.08278328  0.16253484  1
  O  O433  1  0.01610008  0.08380860  0.41475672  1
  O  O434  1  0.01773549  0.08294268  0.66468988  1
  O  O435  1  0.01753873  0.08320449  0.91544096  1
  O  O436  1  0.01598312  0.41679469  0.16216891  1
  O  O437  1  0.01479238  0.41704453  0.41580692  1
  O  O438  1  0.01552241  0.41631231  0.66392014  1
  O  O439  1  0.01658084  0.41696452  0.91361290  1
  O  O440  1  0.01751922  0.75015315  0.16490295  1
  O  O441  1  0.01485217  0.74926466  0.41199315  1
  O  O442  1  0.01578950  0.74977100  0.66575168  1
  O  O443  1  0.01635616  0.75040114  0.91645647  1
  O  O444  1  0.51797316  0.08296285  0.16381144  1
  O  O445  1  0.51801137  0.08278474  0.41452789  1
  O  O446  1  0.51610529  0.08318830  0.66567700  1
  O  O447  1  0.51605559  0.08354644  0.91523846  1
  O  O448  1  0.51564304  0.41724232  0.16272327  1
  O  O449  1  0.51479641  0.41633745  0.41337319  1
  O  O450  1  0.51531722  0.41689572  0.66336048  1
  O  O451  1  0.51513789  0.41663919  0.91575376  1
  O  O452  1  0.51650397  0.74976747  0.16293064  1
  O  O453  1  0.51562756  0.75079202  0.41193005  1
  O  O454  1  0.51681633  0.74984636  0.66570934  1
  O  O455  1  0.51504409  0.74983949  0.91687819  1
  O  O456  1  0.48151791  0.25029322  0.08531776  1
  O  O457  1  0.48368091  0.24946622  0.33508049  1
  O  O458  1  0.48327621  0.24980463  0.58718615  1
  O  O459  1  0.48389711  0.25037743  0.83436294  1
  O  O460  1  0.48350427  0.58312142  0.08788352  1
  O  O461  1  0.48536899  0.58341303  0.33681095  1
  O  O462  1  0.48474062  0.58316601  0.58362104  1
  O  O463  1  0.48228345  0.58323539  0.83795112  1
  O  O464  1  0.48392831  0.91635456  0.08746401  1
  O  O465  1  0.48436599  0.91665316  0.33609026  1
  O  O466  1  0.48428289  0.91700165  0.58425934  1
  O  O467  1  0.48272679  0.91623862  0.83818657  1
  O  O468  1  0.98487000  0.24993130  0.08394409  1
  O  O469  1  0.98140615  0.25058150  0.33508928  1
  O  O470  1  0.98262054  0.25057570  0.58758395  1
  O  O471  1  0.98571144  0.24967311  0.83711739  1
  O  O472  1  0.98605938  0.58419710  0.08680373  1
  O  O473  1  0.98215920  0.58296583  0.33422979  1
  O  O474  1  0.98101469  0.58295192  0.58566304  1
  O  O475  1  0.98327331  0.58261148  0.83868535  1
  O  O476  1  0.98383531  0.91625368  0.08788760  1
  O  O477  1  0.98519926  0.91676843  0.33609400  1
  O  O478  1  0.98230572  0.91681120  0.58425131  1
  O  O479  1  0.98184331  0.91684821  0.83647911  1
  O  O480  1  0.08908386  0.31433093  0.07676089  1
  O  O481  1  0.08508420  0.31597666  0.32699957  1
  O  O482  1  0.08612864  0.31549873  0.57818862  1
  O  O483  1  0.08881393  0.31569750  0.82805606  1
  O  O484  1  0.08968366  0.64988961  0.07810945  1
  O  O485  1  0.08674789  0.64732448  0.32608017  1
  O  O486  1  0.08505395  0.64721748  0.57723865  1
  O  O487  1  0.08655214  0.64783148  0.82817929  1
  O  O488  1  0.08767963  0.98075103  0.07833455  1
  O  O489  1  0.08922773  0.98145980  0.32687833  1
  O  O490  1  0.08635119  0.98223427  0.57694680  1
  O  O491  1  0.08546078  0.98222128  0.82820529  1
  O  O492  1  0.58517382  0.31563830  0.07722660  1
  O  O493  1  0.58721535  0.31450002  0.32724657  1
  O  O494  1  0.58656988  0.31543223  0.57701701  1
  O  O495  1  0.58782158  0.31555122  0.82627312  1
  O  O496  1  0.58723861  0.64830820  0.07754630  1
  O  O497  1  0.58908676  0.64816945  0.32681270  1
  O  O498  1  0.58885315  0.64798250  0.57673823  1
  O  O499  1  0.58606642  0.64790511  0.82805452  1
  O  O500  1  0.58796811  0.98106786  0.07752034  1
  O  O501  1  0.58795764  0.98246417  0.32732454  1
  O  O502  1  0.58865633  0.98125064  0.57712607  1
  O  O503  1  0.58619831  0.98159538  0.82798462  1
  O  O504  1  0.41421863  0.01823927  0.17247465  1
  O  O505  1  0.41462821  0.01654210  0.42253731  1
  O  O506  1  0.41187336  0.01915530  0.67243811  1
  O  O507  1  0.41249579  0.01798630  0.92265562  1
  O  O508  1  0.41190048  0.35184415  0.17226686  1
  O  O509  1  0.41062261  0.35207109  0.42241054  1
  O  O510  1  0.41205866  0.35060621  0.67178426  1
  O  O511  1  0.41081092  0.35233834  0.92303887  1
  O  O512  1  0.41275038  0.68450577  0.17276181  1
  O  O513  1  0.41211195  0.68622876  0.42171130  1
  O  O514  1  0.41305365  0.68494470  0.67204533  1
  O  O515  1  0.41124513  0.68459442  0.92355619  1
  O  O516  1  0.91364822  0.01702935  0.17219219  1
  O  O517  1  0.91246071  0.01878437  0.42223347  1
  O  O518  1  0.91375775  0.01819503  0.67191776  1
  O  O519  1  0.91355127  0.01770480  0.92368886  1
  O  O520  1  0.91222304  0.35204477  0.17130218  1
  O  O521  1  0.91077444  0.35237200  0.42219501  1
  O  O522  1  0.91171258  0.35161462  0.67307492  1
  O  O523  1  0.91264471  0.35218897  0.92339807  1
  O  O524  1  0.91302757  0.68600325  0.17342991  1
  O  O525  1  0.91150849  0.68358395  0.42049443  1
  O  O526  1  0.91188280  0.68516682  0.67176015  1
  O  O527  1  0.91291893  0.68459361  0.92350070  1
  O  O528  1  0.16220274  0.01700970  0.20223774  1
  O  O529  1  0.16166568  0.01794692  0.45316417  1
  O  O530  1  0.15971249  0.01884156  0.70237835  1
  O  O531  1  0.16077028  0.01899764  0.95241376  1
  O  O532  1  0.16416103  0.35263837  0.20236194  1
  O  O533  1  0.16322506  0.35152563  0.45253291  1
  O  O534  1  0.16008368  0.35112821  0.70252743  1
  O  O535  1  0.16291187  0.35229358  0.95233384  1
  O  O536  1  0.16340850  0.68537036  0.20183840  1
  O  O537  1  0.16205304  0.68540893  0.45207534  1
  O  O538  1  0.16266381  0.68507416  0.70265066  1
  O  O539  1  0.16411933  0.68403012  0.95367770  1
  O  O540  1  0.66067543  0.01734764  0.20249151  1
  O  O541  1  0.66195782  0.01721775  0.45238890  1
  O  O542  1  0.66279102  0.01965817  0.70302762  1
  O  O543  1  0.66382453  0.01695474  0.95315516  1
  O  O544  1  0.66117976  0.35277480  0.20113582  1
  O  O545  1  0.66466994  0.35228367  0.45225448  1
  O  O546  1  0.66514945  0.35058065  0.70232651  1
  O  O547  1  0.66285504  0.35216887  0.95263973  1
  O  O548  1  0.66241887  0.68461427  0.20161390  1
  O  O549  1  0.66256109  0.68497414  0.45282729  1
  O  O550  1  0.66338819  0.68454239  0.70339486  1
  O  O551  1  0.66130310  0.68490064  0.95331576  1
  O  O552  1  0.33638851  0.31616442  0.04725033  1
  O  O553  1  0.33826710  0.31556621  0.29615915  1
  O  O554  1  0.33787307  0.31578226  0.54813441  1
  O  O555  1  0.33530677  0.31483033  0.79737897  1
  O  O556  1  0.33840391  0.64765916  0.04821762  1
  O  O557  1  0.33721336  0.64900475  0.29656549  1
  O  O558  1  0.33693769  0.64768123  0.54736254  1
  O  O559  1  0.33801216  0.64827073  0.79833713  1
  O  O560  1  0.33937013  0.98111758  0.04828886  1
  O  O561  1  0.33819743  0.98075732  0.29796984  1
  O  O562  1  0.33583340  0.98202876  0.54764023  1
  O  O563  1  0.33732009  0.98208970  0.79871948  1
  O  O564  1  0.83764838  0.31496126  0.04719029  1
  O  O565  1  0.83804025  0.31494800  0.29731437  1
  O  O566  1  0.83940545  0.31588975  0.54693291  1
  O  O567  1  0.83773275  0.31580435  0.79733815  1
  O  O568  1  0.83654439  0.64752779  0.04763521  1
  O  O569  1  0.83575084  0.64995386  0.29697048  1
  O  O570  1  0.83802756  0.64757540  0.54762685  1
  O  O571  1  0.83978014  0.64696893  0.79859115  1
  O  O572  1  0.83748985  0.98270229  0.04834786  1
  O  O573  1  0.83629652  0.98017304  0.29694643  1
  O  O574  1  0.83619146  0.98182898  0.54820340  1
  O  O575  1  0.83951873  0.98187178  0.79828994  1
  O  O576  1  0.41422582  0.14844605  0.17244914  1
  O  O577  1  0.41373017  0.14661464  0.42265986  1
  O  O578  1  0.41264991  0.14935415  0.67257257  1
  O  O579  1  0.41211258  0.14818085  0.92249436  1
  O  O580  1  0.41189273  0.48206352  0.17245647  1
  O  O581  1  0.41136033  0.48201343  0.42287262  1
  O  O582  1  0.41127586  0.48072472  0.67193644  1
  O  O583  1  0.41147679  0.48230443  0.92313915  1
  O  O584  1  0.41256548  0.81462469  0.17234518  1
  O  O585  1  0.41225021  0.81648942  0.42081260  1
  O  O586  1  0.41312366  0.81509612  0.67202076  1
  O  O587  1  0.41098802  0.81471428  0.92338599  1
  O  O588  1  0.91313228  0.14712841  0.17218212  1
  O  O589  1  0.91242147  0.14903599  0.42161234  1
  O  O590  1  0.91436415  0.14840432  0.67292466  1
  O  O591  1  0.91335683  0.14764951  0.92411791  1
  O  O592  1  0.91261685  0.48213086  0.17156349  1
  O  O593  1  0.91108462  0.48261190  0.42189586  1
  O  O594  1  0.91196173  0.48176425  0.67299616  1
  O  O595  1  0.91259608  0.48211883  0.92312229  1
  O  O596  1  0.91349628  0.81591859  0.17328991  1
  O  O597  1  0.91129156  0.81392294  0.42115062  1
  O  O598  1  0.91236249  0.81551860  0.67144823  1
  O  O599  1  0.91218941  0.81483118  0.92288700  1
  O  O600  1  0.08859116  0.18420732  0.07768402  1
  O  O601  1  0.08557995  0.18603266  0.32727914  1
  O  O602  1  0.08612399  0.18527519  0.57829704  1
  O  O603  1  0.08967995  0.18531841  0.82882497  1
  O  O604  1  0.09003739  0.51976714  0.07695167  1
  O  O605  1  0.08610648  0.51751780  0.32627629  1
  O  O606  1  0.08441734  0.51705590  0.57741868  1
  O  O607  1  0.08676594  0.51764093  0.82862060  1
  O  O608  1  0.08717167  0.85064436  0.07806651  1
  O  O609  1  0.08893089  0.85158800  0.32650549  1
  O  O610  1  0.08650247  0.85220796  0.57627810  1
  O  O611  1  0.08561252  0.85213240  0.82764467  1
  O  O612  1  0.58559780  0.18544019  0.07741668  1
  O  O613  1  0.58741542  0.18426120  0.32806034  1
  O  O614  1  0.58725375  0.18538487  0.57790648  1
  O  O615  1  0.58821432  0.18561800  0.82665826  1
  O  O616  1  0.58732065  0.51822648  0.07759857  1
  O  O617  1  0.58887872  0.51816038  0.32694097  1
  O  O618  1  0.58875360  0.51808641  0.57645553  1
  O  O619  1  0.58572604  0.51794683  0.82749006  1
  O  O620  1  0.58748421  0.85092294  0.07726123  1
  O  O621  1  0.58840551  0.85247316  0.32619091  1
  O  O622  1  0.58795292  0.85139612  0.57673043  1
  O  O623  1  0.58643763  0.85161506  0.82821697  1
  O  O624  1  0.33630175  0.18625953  0.04839352  1
  O  O625  1  0.33808096  0.18515208  0.29708982  1
  O  O626  1  0.33811445  0.18571570  0.54888468  1
  O  O627  1  0.33480633  0.18484053  0.79780627  1
  O  O628  1  0.33822836  0.51767033  0.04745936  1
  O  O629  1  0.33731470  0.51882895  0.29665155  1
  O  O630  1  0.33656683  0.51746407  0.54739652  1
  O  O631  1  0.33778865  0.51835660  0.79840417  1
  O  O632  1  0.33948226  0.85103661  0.04761615  1
  O  O633  1  0.33783127  0.85062751  0.29692056  1
  O  O634  1  0.33622810  0.85197826  0.54699781  1
  O  O635  1  0.33818312  0.85218270  0.79825023  1
  O  O636  1  0.83754153  0.18455057  0.04748671  1
  O  O637  1  0.83749207  0.18490981  0.29783234  1
  O  O638  1  0.83964371  0.18578478  0.54783623  1
  O  O639  1  0.83777412  0.18573212  0.79797536  1
  O  O640  1  0.83634784  0.51747709  0.04728582  1
  O  O641  1  0.83676830  0.52001719  0.29750006  1
  O  O642  1  0.83763030  0.51757995  0.54719307  1
  O  O643  1  0.83933920  0.51689616  0.79770945  1
  O  O644  1  0.83833279  0.85270564  0.04841673  1
  O  O645  1  0.83590136  0.85009963  0.29604386  1
  O  O646  1  0.83652215  0.85198572  0.54792229  1
  O  O647  1  0.83913057  0.85189188  0.79838487  1
  O  O648  1  0.16135842  0.14711771  0.20193734  1
  O  O649  1  0.16165341  0.14828084  0.45283022  1
  O  O650  1  0.16003833  0.14896553  0.70292379  1
  O  O651  1  0.16082424  0.14919691  0.95370199  1
  O  O652  1  0.16442126  0.48268097  0.20261079  1
  O  O653  1  0.16322138  0.48165981  0.45246552  1
  O  O654  1  0.15963011  0.48113930  0.70210958  1
  O  O655  1  0.16343441  0.48229666  0.95218676  1
  O  O656  1  0.16404591  0.81538329  0.20136755  1
  O  O657  1  0.16232328  0.81562878  0.45223716  1
  O  O658  1  0.16248505  0.81518767  0.70283683  1
  O  O659  1  0.16424065  0.81416552  0.95275667  1
  O  O660  1  0.66050817  0.14745051  0.20176659  1
  O  O661  1  0.66157845  0.14737871  0.45184877  1
  O  O662  1  0.66358254  0.14993282  0.70308216  1
  O  O663  1  0.66314710  0.14722016  0.95294783  1
  O  O664  1  0.66130339  0.48277644  0.20221155  1
  O  O665  1  0.66454450  0.48231957  0.45272360  1
  O  O666  1  0.66444348  0.48069302  0.70245308  1
  O  O667  1  0.66319429  0.48238969  0.95259199  1
  O  O668  1  0.66239654  0.81455403  0.20108400  1
  O  O669  1  0.66239926  0.81515451  0.45279501  1
  O  O670  1  0.66335840  0.81484805  0.70332327  1
  O  O671  1  0.66154012  0.81547928  0.95356494  1
