# generated using pymatgen
data_Na2MnFe(PO4)2
_symmetry_space_group_name_H-M   'P 1'
_cell_length_a   21.07963852
_cell_length_b   18.93154093
_cell_length_c   20.03983992
_cell_angle_alpha   89.99983046
_cell_angle_beta   89.99671365
_cell_angle_gamma   90.00169355
_symmetry_Int_Tables_number   1
_chemical_formula_structural   Na2MnFe(PO4)2
_chemical_formula_sum   'Na96 Mn48 Fe48 P96 O384'
_cell_volume   7997.29968922
_cell_formula_units_Z   48
loop_
 _symmetry_equiv_pos_site_id
 _symmetry_equiv_pos_as_xyz
  1  'x, y, z'
loop_
 _atom_site_type_symbol
 _atom_site_label
 _atom_site_symmetry_multiplicity
 _atom_site_fract_x
 _atom_site_fract_y
 _atom_site_fract_z
 _atom_site_occupancy
  Na  Na0  1  -0.00035131  -0.00035146  0.00018263  1
  Na  Na1  1  -0.00105916  -0.00020882  0.25086168  1
  Na  Na2  1  0.00054749  0.00058192  0.49905710  1
  Na  Na3  1  0.00092930  0.00012308  0.74973358  1
  Na  Na4  1  0.00177203  0.33305009  0.00055798  1
  Na  Na5  1  0.00083362  0.33383435  0.25026638  1
  Na  Na6  1  -0.00039989  0.33292045  0.50060432  1
  Na  Na7  1  0.00160823  0.33357777  0.74908604  1
  Na  Na8  1  0.00026489  0.66726821  -0.00035152  1
  Na  Na9  1  -0.00141585  0.66619115  0.24997999  1
  Na  Na10  1  0.00000989  0.66723157  0.49926075  1
  Na  Na11  1  -0.00092883  0.66669239  0.75108336  1
  Na  Na12  1  0.50037538  0.00038990  0.00047081  1
  Na  Na13  1  0.49890598  -0.00085270  0.25017395  1
  Na  Na14  1  0.49995069  0.00035484  0.49937737  1
  Na  Na15  1  0.49818245  -0.00037097  0.75006870  1
  Na  Na16  1  0.49899015  0.33251279  0.00074254  1
  Na  Na17  1  0.49883040  0.33255086  0.25008049  1
  Na  Na18  1  0.50069711  0.33406823  0.49873666  1
  Na  Na19  1  0.49929957  0.33270467  0.75032416  1
  Na  Na20  1  0.49745061  0.66655829  0.00033406  1
  Na  Na21  1  0.49835219  0.66667831  0.24965633  1
  Na  Na22  1  0.50021584  0.66754064  0.49918306  1
  Na  Na23  1  0.49790195  0.66652306  0.75036333  1
  Na  Na24  1  0.25181851  0.00073851  0.12664636  1
  Na  Na25  1  0.25091579  0.00072629  0.37393254  1
  Na  Na26  1  0.24937836  -0.00018581  0.62407914  1
  Na  Na27  1  0.25219425  0.00099950  0.87591140  1
  Na  Na28  1  0.25066507  0.33357876  0.12520802  1
  Na  Na29  1  0.24796970  0.33252115  0.37383211  1
  Na  Na30  1  0.24982592  0.33275705  0.62454992  1
  Na  Na31  1  0.25057222  0.33258018  0.87614077  1
  Na  Na32  1  0.25054533  0.66681240  0.12492668  1
  Na  Na33  1  0.25121427  0.66708076  0.37401102  1
  Na  Na34  1  0.25004752  0.66642873  0.62414523  1
  Na  Na35  1  0.25280641  0.66789641  0.87621854  1
  Na  Na36  1  0.74970107  -0.00020110  0.12515232  1
  Na  Na37  1  0.75121982  -0.00023734  0.37428819  1
  Na  Na38  1  0.75029220  -0.00031123  0.62482819  1
  Na  Na39  1  0.74848786  -0.00056068  0.87500657  1
  Na  Na40  1  0.75019641  0.33349742  0.12612595  1
  Na  Na41  1  0.75147444  0.33375927  0.37552036  1
  Na  Na42  1  0.74978860  0.33331113  0.62371983  1
  Na  Na43  1  0.74837332  0.33295029  0.87483186  1
  Na  Na44  1  0.75076582  0.66746662  0.12545114  1
  Na  Na45  1  0.75264872  0.66810833  0.37582267  1
  Na  Na46  1  0.74962846  0.66645021  0.62369965  1
  Na  Na47  1  0.75108000  0.66818718  0.87586202  1
  Na  Na48  1  0.00115566  0.16664013  0.00086039  1
  Na  Na49  1  -0.00037973  0.16653589  0.25016611  1
  Na  Na50  1  -0.00005146  0.16656575  0.50007639  1
  Na  Na51  1  0.00235607  0.16561452  0.74907205  1
  Na  Na52  1  0.00240077  0.49955194  -0.00002695  1
  Na  Na53  1  0.00001871  0.50015011  0.25044383  1
  Na  Na54  1  0.00012377  0.49968355  0.49984629  1
  Na  Na55  1  0.00082092  0.50025705  0.74998603  1
  Na  Na56  1  -0.00123441  0.83328997  -0.00022466  1
  Na  Na57  1  -0.00190507  0.83409311  0.25030001  1
  Na  Na58  1  -0.00055164  0.83349927  0.49902650  1
  Na  Na59  1  -0.00202712  0.83409220  0.75076543  1
  Na  Na60  1  0.49829389  0.16687203  -0.00019882  1
  Na  Na61  1  0.49999170  0.16558480  0.25019374  1
  Na  Na62  1  0.49648038  0.16706358  0.49922190  1
  Na  Na63  1  0.49652460  0.16703896  0.75030937  1
  Na  Na64  1  0.49809247  0.50066673  0.00091712  1
  Na  Na65  1  0.49745649  0.50064776  0.25001988  1
  Na  Na66  1  0.50093294  0.49936951  0.49931004  1
  Na  Na67  1  0.49952764  0.50000785  0.74964715  1
  Na  Na68  1  0.49951331  0.83373063  0.00054107  1
  Na  Na69  1  0.49992451  0.83395222  0.25002285  1
  Na  Na70  1  0.50157037  0.83329921  0.49851961  1
  Na  Na71  1  0.50049309  0.83308125  0.75095117  1
  Na  Na72  1  0.24986721  0.16640239  0.12538280  1
  Na  Na73  1  0.24943609  0.16626538  0.37455175  1
  Na  Na74  1  0.25097863  0.16587822  0.62447743  1
  Na  Na75  1  0.25252703  0.16555605  0.87583536  1
  Na  Na76  1  0.24997359  0.50035180  0.12591302  1
  Na  Na77  1  0.24957969  0.50019247  0.37345597  1
  Na  Na78  1  0.24861058  0.50085319  0.62429688  1
  Na  Na79  1  0.25105376  0.50001373  0.87605045  1
  Na  Na80  1  0.25289126  0.83221329  0.12556769  1
  Na  Na81  1  0.25037137  0.83392641  0.37391120  1
  Na  Na82  1  0.25009702  0.83362142  0.62386989  1
  Na  Na83  1  0.25176190  0.83279025  0.87628265  1
  Na  Na84  1  0.74934849  0.16655051  0.12543795  1
  Na  Na85  1  0.75304745  0.16522787  0.37496688  1
  Na  Na86  1  0.75065077  0.16665232  0.62416247  1
  Na  Na87  1  0.74901291  0.16642714  0.87591076  1
  Na  Na88  1  0.75157361  0.49921675  0.12596606  1
  Na  Na89  1  0.75181481  0.49895254  0.37546312  1
  Na  Na90  1  0.74867320  0.50013897  0.62397867  1
  Na  Na91  1  0.74896715  0.49980617  0.87489785  1
  Na  Na92  1  0.74957432  0.83378075  0.12533665  1
  Na  Na93  1  0.75067873  0.83404658  0.37521246  1
  Na  Na94  1  0.75028026  0.83383583  0.62419885  1
  Na  Na95  1  0.75049890  0.83293193  0.87493134  1
  Mn  Mn96  1  0.39204324  0.58320969  0.62664890  1
  Mn  Mn97  1  0.89229057  0.58419133  0.62766549  1
  Mn  Mn98  1  0.10912189  0.08318586  0.87320836  1
  Mn  Mn99  1  0.85791972  0.41652177  0.00209350  1
  Mn  Mn100  1  0.14314187  0.24980445  0.99802150  1
  Mn  Mn101  1  0.10817833  0.75037012  0.87294149  1
  Mn  Mn102  1  0.35759202  0.75043449  0.50215788  1
  Mn  Mn103  1  0.64221253  0.58352108  0.49706768  1
  Mn  Mn104  1  0.10894589  0.41630972  0.87248355  1
  Mn  Mn105  1  0.10810950  0.75063222  0.62345389  1
  Mn  Mn106  1  0.60685342  0.08342852  0.62231987  1
  Mn  Mn107  1  0.64238337  0.24883742  0.49773511  1
  Mn  Mn108  1  0.60729966  0.74949325  0.87326682  1
  Mn  Mn109  1  0.64307682  0.24950032  0.24820304  1
  Mn  Mn110  1  0.89273848  0.24939468  0.62800633  1
  Mn  Mn111  1  0.14306948  0.58360188  0.74806144  1
  Mn  Mn112  1  0.39151180  0.25007371  0.37701424  1
  Mn  Mn113  1  0.85836615  0.08351131  0.75232231  1
  Mn  Mn114  1  0.89168432  0.91731225  0.87754850  1
  Mn  Mn115  1  0.89185434  0.58264866  0.87753059  1
  Mn  Mn116  1  0.64140514  0.58335108  0.99824263  1
  Mn  Mn117  1  0.85720262  0.08337141  0.00245696  1
  Mn  Mn118  1  0.60772824  0.74940869  0.37197006  1
  Mn  Mn119  1  0.10718210  0.75007583  0.37212862  1
  Mn  Mn120  1  0.64074572  0.24981093  0.74715689  1
  Mn  Mn121  1  0.89238992  0.25011233  0.87693490  1
  Mn  Mn122  1  0.89251508  0.24981790  0.12713001  1
  Mn  Mn123  1  0.60664432  0.08376334  0.87282853  1
  Mn  Mn124  1  0.14300914  0.91625558  0.99917086  1
  Mn  Mn125  1  0.10837376  0.41682965  0.62237439  1
  Mn  Mn126  1  0.39204027  0.91670055  0.62665520  1
  Mn  Mn127  1  0.14257909  0.58355906  0.24748626  1
  Mn  Mn128  1  0.60775016  0.08376450  0.37296676  1
  Mn  Mn129  1  0.14221711  0.24999145  0.49721405  1
  Mn  Mn130  1  0.35732719  0.41618358  0.50173204  1
  Mn  Mn131  1  0.64124352  0.58370324  0.74792271  1
  Mn  Mn132  1  0.60696058  0.41693974  0.87327871  1
  Mn  Mn133  1  0.14252834  0.91662711  0.24732271  1
  Mn  Mn134  1  0.35780769  0.41669543  0.00320981  1
  Mn  Mn135  1  0.85734254  0.41690039  0.75233323  1
  Mn  Mn136  1  0.89279745  0.58345438  0.12686536  1
  Mn  Mn137  1  0.64287142  0.58385168  0.24808938  1
  Mn  Mn138  1  0.35824300  0.41663797  0.75209335  1
  Mn  Mn139  1  0.64206799  0.91658022  0.74727919  1
  Mn  Mn140  1  0.39169348  0.91648330  0.87783779  1
  Mn  Mn141  1  0.14260077  0.91671405  0.74755946  1
  Mn  Mn142  1  0.60728660  0.41653476  0.12359479  1
  Mn  Mn143  1  0.85792738  0.75037520  0.50290385  1
  Fe  Fe144  1  0.14211712  0.58386438  0.49757480  1
  Fe  Fe145  1  0.85707151  0.75016535  0.00237931  1
  Fe  Fe146  1  0.10772486  0.41707052  0.12367703  1
  Fe  Fe147  1  0.10659392  0.41625067  0.37331414  1
  Fe  Fe148  1  0.60759077  0.74986283  0.62382003  1
  Fe  Fe149  1  0.64331427  0.91734053  0.49829216  1
  Fe  Fe150  1  0.60698404  0.75027833  0.12370854  1
  Fe  Fe151  1  0.39275824  0.24960750  0.12752397  1
  Fe  Fe152  1  0.14226251  0.24974316  0.24826899  1
  Fe  Fe153  1  0.35805993  0.08265838  0.00337934  1
  Fe  Fe154  1  0.89317811  0.91684656  0.62635125  1
  Fe  Fe155  1  0.85874649  0.41668339  0.25250948  1
  Fe  Fe156  1  0.39254698  0.58333422  0.37682609  1
  Fe  Fe157  1  0.14398974  0.24956662  0.74876787  1
  Fe  Fe158  1  0.39196059  0.25052428  0.87723099  1
  Fe  Fe159  1  0.35676222  0.08282121  0.75125026  1
  Fe  Fe160  1  0.85732243  0.41615452  0.50197060  1
  Fe  Fe161  1  0.39301326  0.91618909  0.37688989  1
  Fe  Fe162  1  0.60744457  0.41683796  0.37286173  1
  Fe  Fe163  1  0.39210493  0.25049386  0.62653885  1
  Fe  Fe164  1  0.60711119  0.41660976  0.62304752  1
  Fe  Fe165  1  0.35620252  0.08293268  0.50144082  1
  Fe  Fe166  1  0.89306151  0.58262264  0.37689365  1
  Fe  Fe167  1  0.64150881  0.24969849  0.99888694  1
  Fe  Fe168  1  0.64252833  0.91679778  0.99909324  1
  Fe  Fe169  1  0.39367916  0.91692326  0.12729688  1
  Fe  Fe170  1  0.10818027  0.08265309  0.62278623  1
  Fe  Fe171  1  0.35771115  0.75045895  0.00306115  1
  Fe  Fe172  1  0.35832636  0.75055703  0.75134038  1
  Fe  Fe173  1  0.10715090  0.08253787  0.12385497  1
  Fe  Fe174  1  0.39214681  0.58331784  0.12726133  1
  Fe  Fe175  1  0.89253800  0.91724173  0.37710673  1
  Fe  Fe176  1  0.60707779  0.08311277  0.12392409  1
  Fe  Fe177  1  0.85824359  0.08340677  0.50194428  1
  Fe  Fe178  1  0.85748452  0.75017369  0.25097910  1
  Fe  Fe179  1  0.64317216  0.91676796  0.24838635  1
  Fe  Fe180  1  0.89346718  0.25007836  0.37629940  1
  Fe  Fe181  1  0.35662308  0.41638915  0.25207855  1
  Fe  Fe182  1  0.14368431  0.58411576  0.99880517  1
  Fe  Fe183  1  0.10670478  0.08376064  0.37305574  1
  Fe  Fe184  1  0.85777451  0.08317968  0.25136436  1
  Fe  Fe185  1  0.89204695  0.91679528  0.12655047  1
  Fe  Fe186  1  0.85685915  0.74975925  0.75139026  1
  Fe  Fe187  1  0.14214425  0.91630279  0.49780507  1
  Fe  Fe188  1  0.39179564  0.58290225  0.87712460  1
  Fe  Fe189  1  0.35723261  0.08350705  0.25178642  1
  Fe  Fe190  1  0.35792144  0.75028225  0.25156059  1
  Fe  Fe191  1  0.10723141  0.75043238  0.12335830  1
  P  P192  1  0.05523930  0.24963536  0.11184392  1
  P  P193  1  0.05310350  0.24990563  0.35974273  1
  P  P194  1  0.05542354  0.24888174  0.61104006  1
  P  P195  1  0.05469033  0.24956494  0.85899045  1
  P  P196  1  0.05457205  0.58378521  0.10971563  1
  P  P197  1  0.05335309  0.58265940  0.36088747  1
  P  P198  1  0.05414082  0.58409654  0.60912394  1
  P  P199  1  0.05482848  0.58375507  0.86117654  1
  P  P200  1  0.05191887  0.91663453  0.11056387  1
  P  P201  1  0.05330549  0.91743983  0.36086503  1
  P  P202  1  0.05314273  0.91699770  0.60900626  1
  P  P203  1  0.05360482  0.91661879  0.86016872  1
  P  P204  1  0.55257113  0.24881414  0.11039570  1
  P  P205  1  0.55325568  0.25032114  0.35976052  1
  P  P206  1  0.55126703  0.25008424  0.60931196  1
  P  P207  1  0.55217610  0.24986735  0.86117422  1
  P  P208  1  0.55172124  0.58416828  0.11080453  1
  P  P209  1  0.55214844  0.58269963  0.35944968  1
  P  P210  1  0.55320421  0.58369188  0.60963462  1
  P  P211  1  0.55106213  0.58350628  0.86034170  1
  P  P212  1  0.55440636  0.91675248  0.11146737  1
  P  P213  1  0.55437145  0.91707470  0.36018679  1
  P  P214  1  0.55371043  0.91602837  0.60897726  1
  P  P215  1  0.55414404  0.91663848  0.86136407  1
  P  P216  1  0.44618106  0.08314433  0.13976136  1
  P  P217  1  0.44426056  0.08225118  0.38917167  1
  P  P218  1  0.44419089  0.08388470  0.63895644  1
  P  P219  1  0.44386565  0.08374158  0.88975370  1
  P  P220  1  0.44556461  0.41621986  0.14105713  1
  P  P221  1  0.44618888  0.41730007  0.38852675  1
  P  P222  1  0.44768089  0.41590124  0.63929257  1
  P  P223  1  0.44586322  0.41672921  0.89041121  1
  P  P224  1  0.44602335  0.75057547  0.13953887  1
  P  P225  1  0.44517801  0.75018954  0.38835380  1
  P  P226  1  0.44765710  0.75054312  0.64009269  1
  P  P227  1  0.44436911  0.74949973  0.89007231  1
  P  P228  1  0.94705676  0.08252450  0.14052499  1
  P  P229  1  0.94578156  0.08370769  0.38897045  1
  P  P230  1  0.94738863  0.08207567  0.63867111  1
  P  P231  1  0.94741857  0.08378457  0.89061297  1
  P  P232  1  0.94779205  0.41667775  0.14051908  1
  P  P233  1  0.94605920  0.41623492  0.38945846  1
  P  P234  1  0.94596381  0.41689522  0.63919148  1
  P  P235  1  0.94756725  0.41629629  0.89035260  1
  P  P236  1  0.94608701  0.75076417  0.13929558  1
  P  P237  1  0.94463654  0.75007417  0.38829791  1
  P  P238  1  0.94640541  0.75131796  0.64066862  1
  P  P239  1  0.94452486  0.74998239  0.88995522  1
  P  P240  1  0.19556923  0.08393911  0.23592373  1
  P  P241  1  0.19540763  0.08232416  0.48479160  1
  P  P242  1  0.19763427  0.08395338  0.73449900  1
  P  P243  1  0.19751061  0.08266341  0.98705408  1
  P  P244  1  0.19555712  0.41586536  0.23586150  1
  P  P245  1  0.19578029  0.41743940  0.48340714  1
  P  P246  1  0.19758457  0.41574874  0.73496213  1
  P  P247  1  0.19574846  0.41768286  0.98686081  1
  P  P248  1  0.19755457  0.75017826  0.23436496  1
  P  P249  1  0.19617287  0.75029892  0.48428035  1
  P  P250  1  0.19909703  0.75016149  0.73511944  1
  P  P251  1  0.19695152  0.74974868  0.98697243  1
  P  P252  1  0.69737610  0.08236932  0.23494088  1
  P  P253  1  0.69826822  0.08245177  0.48485328  1
  P  P254  1  0.69651249  0.08341564  0.73447846  1
  P  P255  1  0.69435417  0.08307642  0.98683942  1
  P  P256  1  0.69739269  0.41683389  0.23676475  1
  P  P257  1  0.69562384  0.41615830  0.48512054  1
  P  P258  1  0.69542695  0.41666450  0.73377935  1
  P  P259  1  0.69602383  0.41574549  0.98558489  1
  P  P260  1  0.69733114  0.75093161  0.23488366  1
  P  P261  1  0.69531734  0.75130677  0.48594129  1
  P  P262  1  0.69711356  0.74998220  0.73415185  1
  P  P263  1  0.69595644  0.75106547  0.98681505  1
  P  P264  1  0.30561075  0.24905905  0.01542312  1
  P  P265  1  0.30322782  0.24970255  0.26354816  1
  P  P266  1  0.30361564  0.24913050  0.51497769  1
  P  P267  1  0.30422826  0.24914756  0.76439372  1
  P  P268  1  0.30436904  0.58407320  0.01528187  1
  P  P269  1  0.30557004  0.58350675  0.26408454  1
  P  P270  1  0.30286910  0.58312348  0.51324152  1
  P  P271  1  0.30432905  0.58406570  0.76556859  1
  P  P272  1  0.30464693  0.91673956  0.01671854  1
  P  P273  1  0.30582412  0.91682716  0.26410323  1
  P  P274  1  0.30290591  0.91747513  0.51307523  1
  P  P275  1  0.30342996  0.91678354  0.76485860  1
  P  P276  1  0.80150263  0.24992189  0.01539096  1
  P  P277  1  0.80486212  0.24967713  0.26559419  1
  P  P278  1  0.80558617  0.24978637  0.51337674  1
  P  P279  1  0.80240944  0.24993514  0.76529184  1
  P  P280  1  0.80282416  0.58385680  0.01548489  1
  P  P281  1  0.80470074  0.58377248  0.26569286  1
  P  P282  1  0.80495187  0.58221743  0.51366706  1
  P  P283  1  0.80257869  0.58422507  0.76498688  1
  P  P284  1  0.80267370  0.91623544  0.01578727  1
  P  P285  1  0.80459120  0.91668347  0.26401662  1
  P  P286  1  0.80476848  0.91789044  0.51427711  1
  P  P287  1  0.80442420  0.91595783  0.76368203  1
  O  O288  1  0.05857742  0.24970543  0.18865265  1
  O  O289  1  0.05636677  0.24971050  0.43647622  1
  O  O290  1  0.06007993  0.24941390  0.68771085  1
  O  O291  1  0.05797759  0.24952352  0.93587019  1
  O  O292  1  0.05688793  0.58399848  0.18662182  1
  O  O293  1  0.05804263  0.58355277  0.43753752  1
  O  O294  1  0.05750837  0.58407084  0.68596517  1
  O  O295  1  0.05965994  0.58414275  0.93789220  1
  O  O296  1  0.05562624  0.91648421  0.18727619  1
  O  O297  1  0.05823560  0.91669642  0.43748232  1
  O  O298  1  0.05672101  0.91645410  0.68578082  1
  O  O299  1  0.05741246  0.91625428  0.93690915  1
  O  O300  1  0.55677910  0.24916849  0.18709035  1
  O  O301  1  0.55654312  0.24955686  0.43651001  1
  O  O302  1  0.55443449  0.24906998  0.68609297  1
  O  O303  1  0.55727936  0.24951793  0.93782950  1
  O  O304  1  0.55604407  0.58384758  0.18742894  1
  O  O305  1  0.55626564  0.58338371  0.43614913  1
  O  O306  1  0.55551081  0.58382362  0.68644657  1
  O  O307  1  0.55504514  0.58382554  0.93707193  1
  O  O308  1  0.55905911  0.91668560  0.18818861  1
  O  O309  1  0.55944331  0.91747432  0.43682700  1
  O  O310  1  0.55629474  0.91690533  0.68585804  1
  O  O311  1  0.55839061  0.91663191  0.93812267  1
  O  O312  1  0.44217210  0.08305680  0.06300946  1
  O  O313  1  0.44047818  0.08311601  0.31235117  1
  O  O314  1  0.44023386  0.08272738  0.56216240  1
  O  O315  1  0.43988615  0.08279817  0.81293884  1
  O  O316  1  0.44311505  0.41642060  0.06421029  1
  O  O317  1  0.44086769  0.41624775  0.31192144  1
  O  O318  1  0.44398490  0.41640904  0.56258451  1
  O  O319  1  0.44357351  0.41649809  0.81363125  1
  O  O320  1  0.44176146  0.75055960  0.06278079  1
  O  O321  1  0.44145524  0.75046633  0.31159228  1
  O  O322  1  0.44377261  0.75089778  0.56332218  1
  O  O323  1  0.44071562  0.75066846  0.81324729  1
  O  O324  1  0.94334857  0.08317886  0.06382098  1
  O  O325  1  0.94129536  0.08324976  0.31227393  1
  O  O326  1  0.94256680  0.08306505  0.56198151  1
  O  O327  1  0.94430675  0.08365449  0.81379598  1
  O  O328  1  0.94397456  0.41640298  0.06382172  1
  O  O329  1  0.94200576  0.41658046  0.31264561  1
  O  O330  1  0.94149038  0.41659223  0.56241135  1
  O  O331  1  0.94390791  0.41654439  0.81356579  1
  O  O332  1  0.94134322  0.75024673  0.06258816  1
  O  O333  1  0.94103796  0.75023018  0.31151113  1
  O  O334  1  0.94360108  0.75026433  0.56380352  1
  O  O335  1  0.94014731  0.74987726  0.81321042  1
  O  O336  1  0.19188989  0.08244469  0.06367321  1
  O  O337  1  0.19038457  0.08330828  0.31259842  1
  O  O338  1  0.19121153  0.08271185  0.56155522  1
  O  O339  1  0.19477705  0.08331353  0.81130510  1
  O  O340  1  0.19180337  0.41704795  0.06363923  1
  O  O341  1  0.19043867  0.41646149  0.31251368  1
  O  O342  1  0.19332097  0.41680624  0.56025753  1
  O  O343  1  0.19525377  0.41611287  0.81181579  1
  O  O344  1  0.19156523  0.75052062  0.06360751  1
  O  O345  1  0.19307570  0.75036425  0.31103325  1
  O  O346  1  0.19349498  0.75035658  0.56105802  1
  O  O347  1  0.19532893  0.75027091  0.81184933  1
  O  O348  1  0.69056795  0.08332662  0.06363847  1
  O  O349  1  0.69377678  0.08293157  0.31162494  1
  O  O350  1  0.69377478  0.08324146  0.56147886  1
  O  O351  1  0.69261918  0.08349963  0.81128419  1
  O  O352  1  0.69306032  0.41655278  0.06243506  1
  O  O353  1  0.69178789  0.41691724  0.31339722  1
  O  O354  1  0.69020887  0.41628202  0.56180718  1
  O  O355  1  0.69194898  0.41660554  0.81061417  1
  O  O356  1  0.69078813  0.75007989  0.06348539  1
  O  O357  1  0.69381328  0.75027699  0.31163327  1
  O  O358  1  0.69100679  0.75025425  0.56263891  1
  O  O359  1  0.69318834  0.75000731  0.81093993  1
  O  O360  1  0.30799326  0.24963687  0.18689311  1
  O  O361  1  0.30621037  0.25019060  0.43814012  1
  O  O362  1  0.30829798  0.25040543  0.68763730  1
  O  O363  1  0.30921280  0.24988055  0.93857415  1
  O  O364  1  0.30933382  0.58358019  0.18721735  1
  O  O365  1  0.30804032  0.58299384  0.43656908  1
  O  O366  1  0.30680788  0.58318879  0.68865199  1
  O  O367  1  0.30855544  0.58319977  0.93856662  1
  O  O368  1  0.31009658  0.91674147  0.18735898  1
  O  O369  1  0.30775898  0.91680132  0.43645894  1
  O  O370  1  0.30583835  0.91651752  0.68806025  1
  O  O371  1  0.30663805  0.91681341  0.93986865  1
  O  O372  1  0.80713163  0.24988791  0.18875930  1
  O  O373  1  0.80974779  0.24981664  0.43664349  1
  O  O374  1  0.80637454  0.24984319  0.68846168  1
  O  O375  1  0.80543480  0.24987835  0.93872743  1
  O  O376  1  0.80723851  0.58343591  0.18887502  1
  O  O377  1  0.80941271  0.58270853  0.43692252  1
  O  O378  1  0.80564834  0.58344861  0.68816463  1
  O  O379  1  0.80565391  0.58330109  0.93871494  1
  O  O380  1  0.80892022  0.91681674  0.18728565  1
  O  O381  1  0.80931732  0.91731074  0.43747336  1
  O  O382  1  0.80864705  0.91693436  0.68695003  1
  O  O383  1  0.80595172  0.91690069  0.93903232  1
  O  O384  1  0.23559860  0.24968095  0.03960871  1
  O  O385  1  0.23290322  0.24934939  0.28755398  1
  O  O386  1  0.23391811  0.24936576  0.53997572  1
  O  O387  1  0.23413729  0.24922108  0.78906398  1
  O  O388  1  0.23415892  0.58386179  0.03945404  1
  O  O389  1  0.23534729  0.58367548  0.28798285  1
  O  O390  1  0.23256305  0.58354859  0.53687481  1
  O  O391  1  0.23484308  0.58375235  0.79134319  1
  O  O392  1  0.23516573  0.91651020  0.04263586  1
  O  O393  1  0.23554479  0.91714125  0.28781994  1
  O  O394  1  0.23266485  0.91690898  0.53708834  1
  O  O395  1  0.23410340  0.91709348  0.79118678  1
  O  O396  1  0.73152794  0.24979423  0.04025365  1
  O  O397  1  0.73524348  0.24959526  0.29122068  1
  O  O398  1  0.73553958  0.24971588  0.53771638  1
  O  O399  1  0.73257762  0.24970204  0.78984330  1
  O  O400  1  0.73328815  0.58351332  0.04120221  1
  O  O401  1  0.73506571  0.58372451  0.29140216  1
  O  O402  1  0.73481966  0.58295517  0.53746636  1
  O  O403  1  0.73298682  0.58412250  0.79053135  1
  O  O404  1  0.73263823  0.91673197  0.04043173  1
  O  O405  1  0.73413930  0.91670972  0.28785473  1
  O  O406  1  0.73441670  0.91710967  0.53791051  1
  O  O407  1  0.73448903  0.91614766  0.78827689  1
  O  O408  1  0.26627267  0.08332157  0.21312457  1
  O  O409  1  0.26575453  0.08334741  0.46094214  1
  O  O410  1  0.26758683  0.08309531  0.70953087  1
  O  O411  1  0.26796763  0.08290104  0.96390495  1
  O  O412  1  0.26610537  0.41676868  0.21259005  1
  O  O413  1  0.26539717  0.41638351  0.45796866  1
  O  O414  1  0.26700751  0.41668875  0.70895968  1
  O  O415  1  0.26573782  0.41673798  0.96249020  1
  O  O416  1  0.26798035  0.74974114  0.21101496  1
  O  O417  1  0.26580238  0.75047048  0.45883973  1
  O  O418  1  0.26899442  0.75005804  0.71003119  1
  O  O419  1  0.26749680  0.75041779  0.96392915  1
  O  O420  1  0.76760820  0.08294162  0.21067213  1
  O  O421  1  0.76842580  0.08262869  0.46068216  1
  O  O422  1  0.76632116  0.08335761  0.70982608  1
  O  O423  1  0.76425154  0.08271659  0.96204456  1
  O  O424  1  0.76802663  0.41653791  0.21390265  1
  O  O425  1  0.76630115  0.41605635  0.46243093  1
  O  O426  1  0.76519791  0.41671497  0.70894003  1
  O  O427  1  0.76554782  0.41616066  0.95995685  1
  O  O428  1  0.76751445  0.75078088  0.21060565  1
  O  O429  1  0.76546345  0.75123193  0.46206584  1
  O  O430  1  0.76712103  0.75008151  0.70953822  1
  O  O431  1  0.76632305  0.75099325  0.96321263  1
  O  O432  1  0.01716391  0.08293203  0.16508584  1
  O  O433  1  0.01628733  0.08375721  0.41260731  1
  O  O434  1  0.01773831  0.08221687  0.66239760  1
  O  O435  1  0.01705792  0.08335066  0.91585036  1
  O  O436  1  0.01800855  0.41707268  0.16474525  1
  O  O437  1  0.01644443  0.41607488  0.41339870  1
  O  O438  1  0.01610296  0.41710305  0.66299795  1
  O  O439  1  0.01732954  0.41621344  0.91510518  1
  O  O440  1  0.01648400  0.75007978  0.16314613  1
  O  O441  1  0.01457563  0.75030177  0.41289850  1
  O  O442  1  0.01600358  0.75053236  0.66611678  1
  O  O443  1  0.01474938  0.75030548  0.91365771  1
  O  O444  1  0.51654407  0.08267262  0.16381711  1
  O  O445  1  0.51433578  0.08357094  0.41334325  1
  O  O446  1  0.51412000  0.08294357  0.66357028  1
  O  O447  1  0.51390437  0.08331960  0.91391090  1
  O  O448  1  0.51530820  0.41626595  0.16628795  1
  O  O449  1  0.51659718  0.41702322  0.41201462  1
  O  O450  1  0.51757550  0.41624010  0.66433057  1
  O  O451  1  0.51517966  0.41673593  0.91663656  1
  O  O452  1  0.51642524  0.75063820  0.16350381  1
  O  O453  1  0.51514893  0.75019949  0.41271971  1
  O  O454  1  0.51766700  0.75003957  0.66471874  1
  O  O455  1  0.51433545  0.75008641  0.91453621  1
  O  O456  1  0.48224654  0.24958490  0.08655256  1
  O  O457  1  0.48343315  0.24940453  0.33501175  1
  O  O458  1  0.48139651  0.25029838  0.58411836  1
  O  O459  1  0.48177517  0.24997972  0.83766257  1
  O  O460  1  0.48139385  0.58368467  0.08685516  1
  O  O461  1  0.48202052  0.58341635  0.33530550  1
  O  O462  1  0.48368415  0.58370544  0.58366616  1
  O  O463  1  0.48109337  0.58333773  0.83578269  1
  O  O464  1  0.48389835  0.91696756  0.08787193  1
  O  O465  1  0.48385220  0.91658636  0.33703048  1
  O  O466  1  0.48401318  0.91673427  0.58367847  1
  O  O467  1  0.48408997  0.91643694  0.83727059  1
  O  O468  1  0.98538169  0.24957107  0.08682720  1
  O  O469  1  0.98298582  0.25004080  0.33521802  1
  O  O470  1  0.98536366  0.24939227  0.58698258  1
  O  O471  1  0.98505200  0.24967498  0.83382880  1
  O  O472  1  0.98492920  0.58353452  0.08430087  1
  O  O473  1  0.98300187  0.58277203  0.33714063  1
  O  O474  1  0.98429805  0.58392020  0.58447804  1
  O  O475  1  0.98475186  0.58349063  0.83725522  1
  O  O476  1  0.98191053  0.91675001  0.08574676  1
  O  O477  1  0.98276897  0.91718319  0.33760361  1
  O  O478  1  0.98317164  0.91680668  0.58421177  1
  O  O479  1  0.98379295  0.91704161  0.83560738  1
  O  O480  1  0.08894510  0.31485058  0.07922246  1
  O  O481  1  0.08723452  0.31491990  0.32717859  1
  O  O482  1  0.08897550  0.31385492  0.57759999  1
  O  O483  1  0.08929382  0.31441047  0.82655309  1
  O  O484  1  0.08879431  0.64893991  0.07743550  1
  O  O485  1  0.08660483  0.64757797  0.32705004  1
  O  O486  1  0.08811532  0.64923674  0.57653870  1
  O  O487  1  0.08806234  0.64887975  0.82773792  1
  O  O488  1  0.08596073  0.98180801  0.07815026  1
  O  O489  1  0.08638505  0.98261380  0.32766475  1
  O  O490  1  0.08738254  0.98194240  0.57640004  1
  O  O491  1  0.08773637  0.98167431  0.82771476  1
  O  O492  1  0.58657913  0.31374785  0.07741577  1
  O  O493  1  0.58682569  0.31563108  0.32736234  1
  O  O494  1  0.58574389  0.31506127  0.57734118  1
  O  O495  1  0.58542618  0.31498545  0.82797627  1
  O  O496  1  0.58499308  0.64935856  0.07778831  1
  O  O497  1  0.58606989  0.64770142  0.32653694  1
  O  O498  1  0.58755224  0.64883383  0.57747553  1
  O  O499  1  0.58479577  0.64856479  0.82746289  1
  O  O500  1  0.58773662  0.98179484  0.07812739  1
  O  O501  1  0.58743509  0.98214287  0.32648422  1
  O  O502  1  0.58840473  0.98079720  0.57623176  1
  O  O503  1  0.58739475  0.98167511  0.82800910  1
  O  O504  1  0.41238056  0.01826619  0.17290281  1
  O  O505  1  0.41134238  0.01667747  0.42198692  1
  O  O506  1  0.40990421  0.01928608  0.67240432  1
  O  O507  1  0.41018472  0.01886744  0.92337387  1
  O  O508  1  0.41127719  0.35104464  0.17324662  1
  O  O509  1  0.41293320  0.35229160  0.42218097  1
  O  O510  1  0.41375002  0.35080658  0.67186090  1
  O  O511  1  0.41136845  0.35170229  0.92256347  1
  O  O512  1  0.41234076  0.68562407  0.17264923  1
  O  O513  1  0.41160098  0.68498137  0.42116828  1
  O  O514  1  0.41321319  0.68564026  0.67245417  1
  O  O515  1  0.41078062  0.68415604  0.92253542  1
  O  O516  1  0.91313714  0.01743110  0.17313223  1
  O  O517  1  0.91240091  0.01871799  0.42251095  1
  O  O518  1  0.91411514  0.01680066  0.67155590  1
  O  O519  1  0.91287163  0.01886419  0.92291776  1
  O  O520  1  0.91405524  0.35166517  0.17351890  1
  O  O521  1  0.91268425  0.35099363  0.42237500  1
  O  O522  1  0.91268763  0.35178846  0.67244727  1
  O  O523  1  0.91369524  0.35114496  0.92296267  1
  O  O524  1  0.91227635  0.68592582  0.17268428  1
  O  O525  1  0.91121654  0.68486559  0.42120251  1
  O  O526  1  0.91150586  0.68675167  0.67336795  1
  O  O527  1  0.91100580  0.68503350  0.92340357  1
  O  O528  1  0.16230803  0.01900972  0.20205198  1
  O  O529  1  0.16220520  0.01720558  0.45151965  1
  O  O530  1  0.16310177  0.01920087  0.70166035  1
  O  O531  1  0.16461458  0.01758578  0.95336534  1
  O  O532  1  0.16269887  0.35062354  0.20255207  1
  O  O533  1  0.16090432  0.35255329  0.45115596  1
  O  O534  1  0.16374585  0.35039179  0.70290993  1
  O  O535  1  0.16198990  0.35271173  0.95379158  1
  O  O536  1  0.16358338  0.68531259  0.20153616  1
  O  O537  1  0.16214556  0.68509855  0.45182776  1
  O  O538  1  0.16500788  0.68524663  0.70247267  1
  O  O539  1  0.16433430  0.68444448  0.95344964  1
  O  O540  1  0.66359244  0.01724967  0.20227529  1
  O  O541  1  0.66456801  0.01733819  0.45210308  1
  O  O542  1  0.66256593  0.01829636  0.70196132  1
  O  O543  1  0.66065189  0.01779163  0.95423213  1
  O  O544  1  0.66412547  0.35181680  0.20333727  1
  O  O545  1  0.66241325  0.35115724  0.45156901  1
  O  O546  1  0.66122524  0.35166563  0.70109528  1
  O  O547  1  0.66184744  0.35039852  0.95372297  1
  O  O548  1  0.66332557  0.68600949  0.20190030  1
  O  O549  1  0.66200238  0.68629366  0.45225171  1
  O  O550  1  0.66306562  0.68500094  0.70140631  1
  O  O551  1  0.66274261  0.68606107  0.95300603  1
  O  O552  1  0.33956698  0.31388698  0.04863167  1
  O  O553  1  0.33619996  0.31497078  0.29695931  1
  O  O554  1  0.33795961  0.31398998  0.54777712  1
  O  O555  1  0.33796109  0.31397083  0.79805385  1
  O  O556  1  0.33803070  0.64919906  0.04813561  1
  O  O557  1  0.33920923  0.64857522  0.29698998  1
  O  O558  1  0.33645323  0.64807501  0.54652032  1
  O  O559  1  0.33870603  0.64923267  0.79736716  1
  O  O560  1  0.33919492  0.98173325  0.04891048  1
  O  O561  1  0.33940872  0.98185953  0.29717525  1
  O  O562  1  0.33597993  0.98277253  0.54621037  1
  O  O563  1  0.33792438  0.98194141  0.79679725  1
  O  O564  1  0.83562525  0.31485956  0.04816050  1
  O  O565  1  0.83941232  0.31457853  0.29792952  1
  O  O566  1  0.83901956  0.31497144  0.54642395  1
  O  O567  1  0.83616915  0.31517490  0.79781196  1
  O  O568  1  0.83696718  0.64916197  0.04751383  1
  O  O569  1  0.83885986  0.64916485  0.29749692  1
  O  O570  1  0.83850673  0.64731815  0.54679162  1
  O  O571  1  0.83681379  0.64944927  0.79687470  1
  O  O572  1  0.83699283  0.98104120  0.04870915  1
  O  O573  1  0.83801121  0.98182172  0.29730239  1
  O  O574  1  0.83804670  0.98305516  0.54737354  1
  O  O575  1  0.83799988  0.98090029  0.79722673  1
  O  O576  1  0.41274266  0.14827052  0.17301330  1
  O  O577  1  0.40959920  0.14670395  0.42225497  1
  O  O578  1  0.41091790  0.14947626  0.67137914  1
  O  O579  1  0.41035613  0.14895894  0.92247528  1
  O  O580  1  0.41113580  0.48125202  0.17314346  1
  O  O581  1  0.41308294  0.48253217  0.42174389  1
  O  O582  1  0.41367112  0.48097863  0.67189678  1
  O  O583  1  0.41143715  0.48193688  0.92236388  1
  O  O584  1  0.41266316  0.81567656  0.17281311  1
  O  O585  1  0.41176550  0.81541450  0.42147942  1
  O  O586  1  0.41397630  0.81563001  0.67308224  1
  O  O587  1  0.41029798  0.81421291  0.92357962  1
  O  O588  1  0.91290551  0.14741532  0.17343622  1
  O  O589  1  0.91270972  0.14893380  0.42222508  1
  O  O590  1  0.91406049  0.14691252  0.67251156  1
  O  O591  1  0.91347157  0.14892652  0.92307890  1
  O  O592  1  0.91373200  0.48162625  0.17325726  1
  O  O593  1  0.91254327  0.48122545  0.42271284  1
  O  O594  1  0.91256746  0.48202853  0.67223450  1
  O  O595  1  0.91362494  0.48135472  0.92308226  1
  O  O596  1  0.91272459  0.81589255  0.17245788  1
  O  O597  1  0.91098860  0.81524154  0.42118797  1
  O  O598  1  0.91251683  0.81690291  0.67223680  1
  O  O599  1  0.91075045  0.81493676  0.92321544  1
  O  O600  1  0.08895762  0.18433094  0.07925290  1
  O  O601  1  0.08705753  0.18489208  0.32692038  1
  O  O602  1  0.08851927  0.18356669  0.57788624  1
  O  O603  1  0.08911203  0.18450330  0.82672404  1
  O  O604  1  0.08913530  0.51867778  0.07789790  1
  O  O605  1  0.08667549  0.51749117  0.32789697  1
  O  O606  1  0.08849195  0.51921532  0.57646353  1
  O  O607  1  0.08841449  0.51869009  0.82809997  1
  O  O608  1  0.08577984  0.85154267  0.07783208  1
  O  O609  1  0.08653287  0.85257542  0.32696845  1
  O  O610  1  0.08724207  0.85197238  0.57619108  1
  O  O611  1  0.08722479  0.85152988  0.82716621  1
  O  O612  1  0.58582728  0.18356828  0.07741603  1
  O  O613  1  0.58758503  0.18540720  0.32719052  1
  O  O614  1  0.58506499  0.18492760  0.57637387  1
  O  O615  1  0.58509175  0.18488993  0.82725297  1
  O  O616  1  0.58528023  0.51897991  0.07797833  1
  O  O617  1  0.58570744  0.51756225  0.32676434  1
  O  O618  1  0.58742965  0.51844691  0.57755005  1
  O  O619  1  0.58498501  0.51847715  0.82778860  1
  O  O620  1  0.58752906  0.85161324  0.07796287  1
  O  O621  1  0.58797052  0.85220743  0.32666911  1
  O  O622  1  0.58773312  0.85069543  0.57708906  1
  O  O623  1  0.58774309  0.85156253  0.82838408  1
  O  O624  1  0.33914537  0.18389176  0.04827934  1
  O  O625  1  0.33674508  0.18472511  0.29677187  1
  O  O626  1  0.33772113  0.18389154  0.54683807  1
  O  O627  1  0.33778510  0.18378370  0.79682028  1
  O  O628  1  0.33796444  0.51918065  0.04884055  1
  O  O629  1  0.33885179  0.51824363  0.29708886  1
  O  O630  1  0.33588229  0.51797888  0.54675088  1
  O  O631  1  0.33881929  0.51909192  0.79809050  1
  O  O632  1  0.33943153  0.85175503  0.04861412  1
  O  O633  1  0.33905636  0.85155797  0.29725420  1
  O  O634  1  0.33661014  0.85275376  0.54674792  1
  O  O635  1  0.33780914  0.85173830  0.79710345  1
  O  O636  1  0.83554142  0.18486475  0.04810221  1
  O  O637  1  0.83920955  0.18436885  0.29740535  1
  O  O638  1  0.83910682  0.18452156  0.54634793  1
  O  O639  1  0.83652779  0.18490417  0.79784174  1
  O  O640  1  0.83736956  0.51893429  0.04781340  1
  O  O641  1  0.83929221  0.51879754  0.29799370  1
  O  O642  1  0.83797788  0.51692726  0.54666626  1
  O  O643  1  0.83675304  0.51916119  0.79760829  1
  O  O644  1  0.83665045  0.85118057  0.04840342  1
  O  O645  1  0.83793170  0.85160096  0.29728384  1
  O  O646  1  0.83860047  0.85313222  0.54772215  1
  O  O647  1  0.83780531  0.85050434  0.79621252  1
  O  O648  1  0.16260674  0.14897891  0.20246022  1
  O  O649  1  0.16155366  0.14723012  0.45147535  1
  O  O650  1  0.16401924  0.14917894  0.70198326  1
  O  O651  1  0.16451011  0.14773032  0.95340914  1
  O  O652  1  0.16204085  0.48080787  0.20232367  1
  O  O653  1  0.16170936  0.48262384  0.45123927  1
  O  O654  1  0.16276850  0.48064745  0.70293441  1
  O  O655  1  0.16282919  0.48315850  0.95406699  1
  O  O656  1  0.16418324  0.81530218  0.20120227  1
  O  O657  1  0.16193880  0.81545686  0.45194231  1
  O  O658  1  0.16516229  0.81524195  0.70241973  1
  O  O659  1  0.16369832  0.81466314  0.95321375  1
  O  O660  1  0.66304471  0.14715926  0.20205803  1
  O  O661  1  0.66461423  0.14746966  0.45162596  1
  O  O662  1  0.66246833  0.14838687  0.70168823  1
  O  O663  1  0.66082138  0.14836604  0.95393759  1
  O  O664  1  0.66447759  0.48190173  0.20304840  1
  O  O665  1  0.66256106  0.48123428  0.45134266  1
  O  O666  1  0.66120759  0.48177210  0.70140816  1
  O  O667  1  0.66167636  0.48082504  0.95315537  1
  O  O668  1  0.66331201  0.81598602  0.20241410  1
  O  O669  1  0.66205135  0.81663465  0.45315700  1
  O  O670  1  0.66300398  0.81485327  0.70128647  1
  O  O671  1  0.66277791  0.81633870  0.95376509  1
