# generated using pymatgen
data_Na2MnFe(PO4)2
_symmetry_space_group_name_H-M   'P 1'
_cell_length_a   21.08761880
_cell_length_b   18.94072397
_cell_length_c   20.04588826
_cell_angle_alpha   90.00004894
_cell_angle_beta   90.00016394
_cell_angle_gamma   89.99806814
_symmetry_Int_Tables_number   1
_chemical_formula_structural   Na2MnFe(PO4)2
_chemical_formula_sum   'Na96 Mn48 Fe48 P96 O384'
_cell_volume   8006.62378608
_cell_formula_units_Z   48
loop_
 _symmetry_equiv_pos_site_id
 _symmetry_equiv_pos_as_xyz
  1  'x, y, z'
loop_
 _atom_site_type_symbol
 _atom_site_label
 _atom_site_symmetry_multiplicity
 _atom_site_fract_x
 _atom_site_fract_y
 _atom_site_fract_z
 _atom_site_occupancy
  Na  Na0  1  -0.00206299  0.00006428  0.00050073  1
  Na  Na1  1  0.00085839  0.00033758  0.25007843  1
  Na  Na2  1  0.00151971  0.00062532  0.49970733  1
  Na  Na3  1  -0.00236573  -0.00037819  0.74916550  1
  Na  Na4  1  0.00105974  0.33397422  -0.00006171  1
  Na  Na5  1  0.00074394  0.33368009  0.25095162  1
  Na  Na6  1  -0.00128587  0.33287774  0.50023926  1
  Na  Na7  1  -0.00185108  0.33196327  0.74974796  1
  Na  Na8  1  0.00140313  0.66767583  -0.00029951  1
  Na  Na9  1  -0.00004043  0.66611145  0.25105256  1
  Na  Na10  1  0.00252063  0.66741731  0.49981985  1
  Na  Na11  1  0.00231829  0.66736687  0.74940093  1
  Na  Na12  1  0.49990821  -0.00006332  -0.00071560  1
  Na  Na13  1  0.49758420  -0.00106910  0.25123124  1
  Na  Na14  1  0.49889039  -0.00005161  0.50114535  1
  Na  Na15  1  0.50041979  0.00021463  0.74913447  1
  Na  Na16  1  0.50231147  0.33391275  -0.00107025  1
  Na  Na17  1  0.50134708  0.33355996  0.24941327  1
  Na  Na18  1  0.49908140  0.33281570  0.50130406  1
  Na  Na19  1  0.50104822  0.33353034  0.74987744  1
  Na  Na20  1  0.50158358  0.66750523  0.00080090  1
  Na  Na21  1  0.50251007  0.66779535  0.24994101  1
  Na  Na22  1  0.49965511  0.66653128  0.49933083  1
  Na  Na23  1  0.49866033  0.66612918  0.74983749  1
  Na  Na24  1  0.24984816  -0.00025983  0.12421285  1
  Na  Na25  1  0.24873672  -0.00077749  0.37409774  1
  Na  Na26  1  0.25067267  0.00054387  0.62524882  1
  Na  Na27  1  0.25056145  0.00063087  0.87640026  1
  Na  Na28  1  0.24824228  0.33286884  0.12447774  1
  Na  Na29  1  0.24962169  0.33336237  0.37448272  1
  Na  Na30  1  0.25153298  0.33337649  0.62535920  1
  Na  Na31  1  0.25191551  0.33397481  0.87591107  1
  Na  Na32  1  0.24969023  0.66681370  0.12337277  1
  Na  Na33  1  0.25028184  0.66701188  0.37519412  1
  Na  Na34  1  0.25043439  0.66689205  0.62638904  1
  Na  Na35  1  0.25077529  0.66723579  0.87474216  1
  Na  Na36  1  0.75305413  0.00057075  0.12414589  1
  Na  Na37  1  0.75189730  0.00056811  0.37474654  1
  Na  Na38  1  0.74937451  -0.00026635  0.62559016  1
  Na  Na39  1  0.75140952  0.00037994  0.87512622  1
  Na  Na40  1  0.74759002  0.33214857  0.12370010  1
  Na  Na41  1  0.75167255  0.33401387  0.37486260  1
  Na  Na42  1  0.75089059  0.33343808  0.62609309  1
  Na  Na43  1  0.74771008  0.33245813  0.87455666  1
  Na  Na44  1  0.74720345  0.66603227  0.12560957  1
  Na  Na45  1  0.74592521  0.66561943  0.37367802  1
  Na  Na46  1  0.74859838  0.66715171  0.62598119  1
  Na  Na47  1  0.74833854  0.66694030  0.87551195  1
  Na  Na48  1  0.00025395  0.16606751  -0.00082464  1
  Na  Na49  1  0.00056892  0.16598129  0.25016890  1
  Na  Na50  1  -0.00063145  0.16633430  0.49993808  1
  Na  Na51  1  -0.00203301  0.16655455  0.75001784  1
  Na  Na52  1  -0.00102651  0.50069081  -0.00052077  1
  Na  Na53  1  0.00038976  0.50010036  0.25120796  1
  Na  Na54  1  0.00080804  0.50015597  0.50009562  1
  Na  Na55  1  -0.00018346  0.49991973  0.74920322  1
  Na  Na56  1  -0.00085516  0.83427176  0.00079259  1
  Na  Na57  1  0.00135371  0.83316584  0.25097665  1
  Na  Na58  1  0.00210851  0.83325460  0.49952300  1
  Na  Na59  1  0.00204498  0.83285117  0.74962027  1
  Na  Na60  1  0.50285236  0.16534405  -0.00117816  1
  Na  Na61  1  0.49918577  0.16647712  0.25026840  1
  Na  Na62  1  0.49894888  0.16639480  0.50094553  1
  Na  Na63  1  0.50213907  0.16564002  0.75002143  1
  Na  Na64  1  0.50067724  0.49974145  0.00031681  1
  Na  Na65  1  0.50222621  0.49919112  0.25002773  1
  Na  Na66  1  0.49814436  0.50037332  0.49981298  1
  Na  Na67  1  0.49754103  0.50047146  0.75027803  1
  Na  Na68  1  0.49921421  0.83416366  -0.00034582  1
  Na  Na69  1  0.50039367  0.83325955  0.25030175  1
  Na  Na70  1  0.50042679  0.83387068  0.50088286  1
  Na  Na71  1  0.50129762  0.83288485  0.74871560  1
  Na  Na72  1  0.24705842  0.16669695  0.12489981  1
  Na  Na73  1  0.24827760  0.16634099  0.37410702  1
  Na  Na74  1  0.25009715  0.16580637  0.62588702  1
  Na  Na75  1  0.24827914  0.16659111  0.87595139  1
  Na  Na76  1  0.25045248  0.50014495  0.12356991  1
  Na  Na77  1  0.25061983  0.49998938  0.37472916  1
  Na  Na78  1  0.25282709  0.49942832  0.62553637  1
  Na  Na79  1  0.25281643  0.49932631  0.87563140  1
  Na  Na80  1  0.24976021  0.83413330  0.12367995  1
  Na  Na81  1  0.24996852  0.83345923  0.37478763  1
  Na  Na82  1  0.24951192  0.83407328  0.62555575  1
  Na  Na83  1  0.25160843  0.83293904  0.87577854  1
  Na  Na84  1  0.75017937  0.16646199  0.12381333  1
  Na  Na85  1  0.75119973  0.16598845  0.37582054  1
  Na  Na86  1  0.75174267  0.16544220  0.62561452  1
  Na  Na87  1  0.74983508  0.16657828  0.87400304  1
  Na  Na88  1  0.74817911  0.50064120  0.12479220  1
  Na  Na89  1  0.74887151  0.50060983  0.37398555  1
  Na  Na90  1  0.74969055  0.49973000  0.62640234  1
  Na  Na91  1  0.74848757  0.50047535  0.87555105  1
  Na  Na92  1  0.75023013  0.83329658  0.12478066  1
  Na  Na93  1  0.74859329  0.83397675  0.37364456  1
  Na  Na94  1  0.74770773  0.83401403  0.62556278  1
  Na  Na95  1  0.74856273  0.83379726  0.87587567  1
  Mn  Mn96  1  0.89220699  0.91612611  0.62657560  1
  Mn  Mn97  1  0.14215250  0.25023539  0.74817474  1
  Mn  Mn98  1  0.10831432  0.41673939  0.62271332  1
  Mn  Mn99  1  0.60769881  0.08296889  0.37322467  1
  Mn  Mn100  1  0.89238759  0.24999222  0.37743536  1
  Mn  Mn101  1  0.10792887  0.41662014  0.87228795  1
  Mn  Mn102  1  0.35795416  0.75060630  0.75296691  1
  Mn  Mn103  1  0.89226061  0.58385657  0.62645765  1
  Mn  Mn104  1  0.85715995  0.41675662  0.75276833  1
  Mn  Mn105  1  0.89303155  0.91616675  0.37756782  1
  Mn  Mn106  1  0.64250336  0.91691864  0.99760260  1
  Mn  Mn107  1  0.39177489  0.24984367  0.62768756  1
  Mn  Mn108  1  0.64211135  0.24947047  0.24807596  1
  Mn  Mn109  1  0.60811932  0.41647001  0.37353508  1
  Mn  Mn110  1  0.89240611  0.25075930  0.12682341  1
  Mn  Mn111  1  0.89140132  0.58367799  0.37798372  1
  Mn  Mn112  1  0.85679852  0.41680207  0.00232756  1
  Mn  Mn113  1  0.10918681  0.75040999  0.37256772  1
  Mn  Mn114  1  0.39221071  0.91677076  0.62729291  1
  Mn  Mn115  1  0.14191096  0.58388342  0.24698466  1
  Mn  Mn116  1  0.10752441  0.08322803  0.62307777  1
  Mn  Mn117  1  0.39356182  0.58369103  0.12734346  1
  Mn  Mn118  1  0.39117711  0.24934357  0.37765274  1
  Mn  Mn119  1  0.85725658  0.74999152  0.25193403  1
  Mn  Mn120  1  0.14141295  0.24998525  0.24698924  1
  Mn  Mn121  1  0.35797610  0.74997547  0.25165676  1
  Mn  Mn122  1  0.10837199  0.41648457  0.37367253  1
  Mn  Mn123  1  0.60713324  0.41662730  0.62229773  1
  Mn  Mn124  1  0.39265921  0.24939162  0.12632313  1
  Mn  Mn125  1  0.60836836  0.08283399  0.12307436  1
  Mn  Mn126  1  0.14256170  0.58292640  0.99745574  1
  Mn  Mn127  1  0.85769966  0.74963361  0.00239796  1
  Mn  Mn128  1  0.89212030  0.58387644  0.87737316  1
  Mn  Mn129  1  0.39269156  0.58372778  0.37690476  1
  Mn  Mn130  1  0.35781237  0.08375341  0.00211489  1
  Mn  Mn131  1  0.39346538  0.24945457  0.87769930  1
  Mn  Mn132  1  0.64207589  0.91747747  0.24763612  1
  Mn  Mn133  1  0.85691308  0.74979094  0.50222882  1
  Mn  Mn134  1  0.14197048  0.91694426  0.99735682  1
  Mn  Mn135  1  0.35810963  0.41655782  0.25141335  1
  Mn  Mn136  1  0.14223419  0.91734809  0.74886454  1
  Mn  Mn137  1  0.64308829  0.24998916  0.49772740  1
  Mn  Mn138  1  0.14343658  0.58271575  0.74814792  1
  Mn  Mn139  1  0.85794762  0.75047226  0.75223498  1
  Mn  Mn140  1  0.35676781  0.08335663  0.25180423  1
  Mn  Mn141  1  0.85760127  0.41640583  0.25121954  1
  Mn  Mn142  1  0.64082442  0.58340063  0.74769396  1
  Mn  Mn143  1  0.60749290  0.74989278  0.62197946  1
  Fe  Fe144  1  0.14202605  0.25031781  0.99809121  1
  Fe  Fe145  1  0.14296040  0.91622907  0.24754485  1
  Fe  Fe146  1  0.85738282  0.41719140  0.50195310  1
  Fe  Fe147  1  0.10575392  0.08292902  0.87323527  1
  Fe  Fe148  1  0.60660751  0.75074150  0.37386935  1
  Fe  Fe149  1  0.64269021  0.24965388  0.99745122  1
  Fe  Fe150  1  0.35786187  0.41610527  0.00227744  1
  Fe  Fe151  1  0.35811639  0.41558991  0.75258275  1
  Fe  Fe152  1  0.39345193  0.58411857  0.87737694  1
  Fe  Fe153  1  0.14238226  0.24991075  0.49928409  1
  Fe  Fe154  1  0.85720155  0.08371774  0.00138396  1
  Fe  Fe155  1  0.64342207  0.24911117  0.74794921  1
  Fe  Fe156  1  0.89220080  0.24975405  0.87704863  1
  Fe  Fe157  1  0.35737201  0.75005987  0.50152315  1
  Fe  Fe158  1  0.85769431  0.08311597  0.50196984  1
  Fe  Fe159  1  0.60830122  0.08253689  0.87257943  1
  Fe  Fe160  1  0.39195192  0.91659616  0.37728370  1
  Fe  Fe161  1  0.14405652  0.58308493  0.49915854  1
  Fe  Fe162  1  0.14349717  0.91698575  0.49828797  1
  Fe  Fe163  1  0.35730310  0.41633308  0.50119459  1
  Fe  Fe164  1  0.35629207  0.08351630  0.50142536  1
  Fe  Fe165  1  0.10774649  0.75085118  0.87390885  1
  Fe  Fe166  1  0.64227816  0.58303378  0.99798103  1
  Fe  Fe167  1  0.64164744  0.58340879  0.49861230  1
  Fe  Fe168  1  0.64253873  0.91739496  0.74884946  1
  Fe  Fe169  1  0.64235534  0.58289986  0.24756684  1
  Fe  Fe170  1  0.10756717  0.08338679  0.37381276  1
  Fe  Fe171  1  0.64255515  0.91674219  0.49775336  1
  Fe  Fe172  1  0.60787832  0.41645555  0.12242341  1
  Fe  Fe173  1  0.60639775  0.41694824  0.87315341  1
  Fe  Fe174  1  0.35800981  0.74989002  0.00180694  1
  Fe  Fe175  1  0.10623888  0.08318804  0.12276760  1
  Fe  Fe176  1  0.89243046  0.58385116  0.12615775  1
  Fe  Fe177  1  0.39362696  0.91666712  0.87605905  1
  Fe  Fe178  1  0.35790605  0.08381162  0.75250477  1
  Fe  Fe179  1  0.85843077  0.08353618  0.25156455  1
  Fe  Fe180  1  0.10708672  0.74978939  0.12313070  1
  Fe  Fe181  1  0.60752856  0.08341927  0.62279827  1
  Fe  Fe182  1  0.89238496  0.25022165  0.62644983  1
  Fe  Fe183  1  0.89215636  0.91638559  0.87606949  1
  Fe  Fe184  1  0.39274729  0.91682318  0.12657631  1
  Fe  Fe185  1  0.85653047  0.08280716  0.75196121  1
  Fe  Fe186  1  0.10847804  0.74996048  0.62280395  1
  Fe  Fe187  1  0.39190719  0.58347691  0.62609075  1
  Fe  Fe188  1  0.60717747  0.75066658  0.12281236  1
  Fe  Fe189  1  0.60650150  0.75037246  0.87369527  1
  Fe  Fe190  1  0.10741656  0.41722698  0.12301686  1
  Fe  Fe191  1  0.89353245  0.91598823  0.12710804  1
  P  P192  1  0.05367612  0.25003627  0.10919999  1
  P  P193  1  0.05495142  0.24920144  0.36162705  1
  P  P194  1  0.05247514  0.24972672  0.60967268  1
  P  P195  1  0.05286646  0.24896029  0.86099467  1
  P  P196  1  0.05222877  0.58358475  0.10986442  1
  P  P197  1  0.05505639  0.58328575  0.36151046  1
  P  P198  1  0.05478567  0.58382777  0.60943431  1
  P  P199  1  0.05357415  0.58406678  0.85967297  1
  P  P200  1  0.05361357  0.91646695  0.11134892  1
  P  P201  1  0.05621288  0.91780616  0.36057817  1
  P  P202  1  0.05445808  0.91635221  0.60939444  1
  P  P203  1  0.05173330  0.91745449  0.86041671  1
  P  P204  1  0.55442002  0.24993676  0.10879837  1
  P  P205  1  0.55281509  0.24965634  0.36036173  1
  P  P206  1  0.55464174  0.24888915  0.61131758  1
  P  P207  1  0.55602157  0.24974583  0.86020194  1
  P  P208  1  0.55576853  0.58346572  0.11061499  1
  P  P209  1  0.55541909  0.58417080  0.36064141  1
  P  P210  1  0.55170349  0.58303034  0.60926106  1
  P  P211  1  0.55299596  0.58357943  0.86151291  1
  P  P212  1  0.55229501  0.91648335  0.10989100  1
  P  P213  1  0.55300728  0.91637859  0.36156198  1
  P  P214  1  0.55543615  0.91792693  0.61067127  1
  P  P215  1  0.55313175  0.91658005  0.85937855  1
  P  P216  1  0.44687798  0.08254691  0.13990401  1
  P  P217  1  0.44540122  0.08229788  0.39105879  1
  P  P218  1  0.44565564  0.08340796  0.63970112  1
  P  P219  1  0.44751774  0.08257132  0.88853759  1
  P  P220  1  0.44754315  0.41630087  0.13855689  1
  P  P221  1  0.44625924  0.41643768  0.39060818  1
  P  P222  1  0.44417342  0.41722390  0.63943354  1
  P  P223  1  0.44604572  0.41690475  0.88956928  1
  P  P224  1  0.44704476  0.75089793  0.13876781  1
  P  P225  1  0.44678918  0.75099867  0.39049457  1
  P  P226  1  0.44497821  0.74944363  0.63857495  1
  P  P227  1  0.44727757  0.75052878  0.89026733  1
  P  P228  1  0.94589375  0.08307272  0.13898399  1
  P  P229  1  0.94645215  0.08298999  0.38966631  1
  P  P230  1  0.94427046  0.08378866  0.63935879  1
  P  P231  1  0.94471612  0.08305354  0.88896023  1
  P  P232  1  0.94804637  0.41770577  0.13973691  1
  P  P233  1  0.94590494  0.41697738  0.39094633  1
  P  P234  1  0.94532465  0.41632187  0.63892204  1
  P  P235  1  0.94633933  0.41582957  0.89003915  1
  P  P236  1  0.94777208  0.74969334  0.14014051  1
  P  P237  1  0.94711643  0.75005521  0.39041789  1
  P  P238  1  0.94836173  0.75009979  0.63964804  1
  P  P239  1  0.94796060  0.75101345  0.88992041  1
  P  P240  1  0.19414056  0.08195789  0.23506664  1
  P  P241  1  0.19684662  0.08336498  0.48492722  1
  P  P242  1  0.19663051  0.08318975  0.73674107  1
  P  P243  1  0.19401661  0.08388070  0.98561408  1
  P  P244  1  0.19610920  0.41712671  0.23370545  1
  P  P245  1  0.19824008  0.41660394  0.48570770  1
  P  P246  1  0.19872602  0.41636495  0.73534654  1
  P  P247  1  0.19663014  0.41619005  0.98591364  1
  P  P248  1  0.19645938  0.75091081  0.23346737  1
  P  P249  1  0.19729996  0.74997114  0.48657347  1
  P  P250  1  0.19506192  0.75060210  0.73605356  1
  P  P251  1  0.19631713  0.75015132  0.98540136  1
  P  P252  1  0.69871354  0.08309563  0.23474256  1
  P  P253  1  0.69714294  0.08257550  0.48627639  1
  P  P254  1  0.69567703  0.08296010  0.73576459  1
  P  P255  1  0.69724355  0.08342489  0.98410628  1
  P  P256  1  0.69577002  0.41670082  0.23408048  1
  P  P257  1  0.69810405  0.41716827  0.48542257  1
  P  P258  1  0.69443575  0.41590593  0.73648771  1
  P  P259  1  0.69426900  0.41681117  0.98520692  1
  P  P260  1  0.69402593  0.75009268  0.23533875  1
  P  P261  1  0.69548474  0.75021267  0.48415167  1
  P  P262  1  0.69457670  0.75110970  0.73664394  1
  P  P263  1  0.69460362  0.74947831  0.98576360  1
  P  P264  1  0.30212945  0.25010046  0.01497529  1
  P  P265  1  0.30279485  0.24987614  0.26447433  1
  P  P266  1  0.30176697  0.24917094  0.51495670  1
  P  P267  1  0.30373408  0.24935881  0.76587723  1
  P  P268  1  0.30582182  0.58368572  0.01345012  1
  P  P269  1  0.30340127  0.58363579  0.26455157  1
  P  P270  1  0.30339221  0.58368891  0.51522570  1
  P  P271  1  0.30600012  0.58267704  0.76499744  1
  P  P272  1  0.30571433  0.91611087  0.01394451  1
  P  P273  1  0.30390499  0.91640598  0.26406470  1
  P  P274  1  0.30351230  0.91694160  0.51377577  1
  P  P275  1  0.30424770  0.91786115  0.76618917  1
  P  P276  1  0.80316286  0.24937406  0.01310161  1
  P  P277  1  0.80366884  0.24915171  0.26463785  1
  P  P278  1  0.80432412  0.24998164  0.51579659  1
  P  P279  1  0.80420655  0.24902348  0.76429177  1
  P  P280  1  0.80205909  0.58361825  0.01572125  1
  P  P281  1  0.80322350  0.58341682  0.26344069  1
  P  P282  1  0.80091205  0.58323227  0.51522053  1
  P  P283  1  0.80258290  0.58387282  0.76546348  1
  P  P284  1  0.80565882  0.91713348  0.01423655  1
  P  P285  1  0.80523928  0.91727859  0.26361678  1
  P  P286  1  0.80188115  0.91671197  0.51485941  1
  P  P287  1  0.80254983  0.91703232  0.76535404  1
  O  O288  1  0.05602251  0.25010074  0.18607723  1
  O  O289  1  0.05921036  0.24983070  0.43836837  1
  O  O290  1  0.05634977  0.24962375  0.68642044  1
  O  O291  1  0.05801772  0.25010101  0.93759618  1
  O  O292  1  0.05550400  0.58326795  0.18658511  1
  O  O293  1  0.06055383  0.58332093  0.43816034  1
  O  O294  1  0.05790550  0.58270483  0.68620468  1
  O  O295  1  0.05665624  0.58321431  0.93646770  1
  O  O296  1  0.05804258  0.91643767  0.18797999  1
  O  O297  1  0.06060444  0.91697175  0.43735584  1
  O  O298  1  0.05712518  0.91743299  0.68617059  1
  O  O299  1  0.05514723  0.91763313  0.93712853  1
  O  O300  1  0.55681840  0.24924106  0.18563671  1
  O  O301  1  0.55642810  0.24958849  0.43714381  1
  O  O302  1  0.55909142  0.24928607  0.68801938  1
  O  O303  1  0.55979238  0.24934195  0.93703781  1
  O  O304  1  0.55906773  0.58310752  0.18749846  1
  O  O305  1  0.55893342  0.58288614  0.43745614  1
  O  O306  1  0.55535435  0.58296124  0.68601688  1
  O  O307  1  0.55751000  0.58335911  0.93815520  1
  O  O308  1  0.55578738  0.91716204  0.18661011  1
  O  O309  1  0.55811040  0.91742485  0.43819600  1
  O  O310  1  0.55948020  0.91735170  0.68739467  1
  O  O311  1  0.55647095  0.91712122  0.93607332  1
  O  O312  1  0.44411849  0.08343030  0.06310370  1
  O  O313  1  0.44205122  0.08305367  0.31429289  1
  O  O314  1  0.43997776  0.08364963  0.56311265  1
  O  O315  1  0.44258856  0.08359582  0.81192245  1
  O  O316  1  0.44214600  0.41606991  0.06188212  1
  O  O317  1  0.44363773  0.41643401  0.31377459  1
  O  O318  1  0.43976765  0.41605857  0.56263968  1
  O  O319  1  0.44165434  0.41579920  0.81281487  1
  O  O320  1  0.44228896  0.75016907  0.06215225  1
  O  O321  1  0.44358966  0.75045600  0.31374033  1
  O  O322  1  0.44073168  0.75024898  0.56187727  1
  O  O323  1  0.44409855  0.75028524  0.81346271  1
  O  O324  1  0.94115152  0.08392175  0.06229621  1
  O  O325  1  0.94206651  0.08309578  0.31293400  1
  O  O326  1  0.94054732  0.08268534  0.56253608  1
  O  O327  1  0.94040131  0.08309983  0.81220436  1
  O  O328  1  0.94367491  0.41702682  0.06307305  1
  O  O329  1  0.94255447  0.41707498  0.31415283  1
  O  O330  1  0.94097894  0.41730938  0.56219080  1
  O  O331  1  0.94311943  0.41603101  0.81324371  1
  O  O332  1  0.94412079  0.74981663  0.06342975  1
  O  O333  1  0.94306713  0.74994445  0.31370868  1
  O  O334  1  0.94379792  0.75015889  0.56303075  1
  O  O335  1  0.94439586  0.75036485  0.81323693  1
  O  O336  1  0.18957088  0.08267513  0.06236868  1
  O  O337  1  0.19073205  0.08276237  0.31182693  1
  O  O338  1  0.19373302  0.08327938  0.56169706  1
  O  O339  1  0.19093132  0.08292022  0.81331610  1
  O  O340  1  0.19101898  0.41716756  0.06250739  1
  O  O341  1  0.19308831  0.41712651  0.31049909  1
  O  O342  1  0.19499328  0.41660320  0.56241152  1
  O  O343  1  0.19451090  0.41648077  0.81204335  1
  O  O344  1  0.19082077  0.75026592  0.06201823  1
  O  O345  1  0.19400359  0.75013829  0.31035495  1
  O  O346  1  0.19311945  0.75019556  0.56329028  1
  O  O347  1  0.19063256  0.75080162  0.81284413  1
  O  O348  1  0.69376851  0.08259208  0.06079872  1
  O  O349  1  0.69439831  0.08266153  0.31141612  1
  O  O350  1  0.69232915  0.08306400  0.56290365  1
  O  O351  1  0.69143722  0.08274312  0.81250794  1
  O  O352  1  0.69095137  0.41660739  0.06203214  1
  O  O353  1  0.69325157  0.41623663  0.31088578  1
  O  O354  1  0.69414063  0.41654373  0.56212846  1
  O  O355  1  0.69005539  0.41707227  0.81321372  1
  O  O356  1  0.69073417  0.75073805  0.06254063  1
  O  O357  1  0.68989547  0.75111226  0.31205499  1
  O  O358  1  0.69318054  0.75021535  0.56108394  1
  O  O359  1  0.69011170  0.75026113  0.81336779  1
  O  O360  1  0.30638232  0.24956811  0.18775856  1
  O  O361  1  0.30477747  0.24911258  0.43825043  1
  O  O362  1  0.30642335  0.24903976  0.68908655  1
  O  O363  1  0.30677065  0.24943140  0.93835057  1
  O  O364  1  0.30707359  0.58383257  0.18777813  1
  O  O365  1  0.30660477  0.58397636  0.43848375  1
  O  O366  1  0.30926051  0.58376210  0.68820686  1
  O  O367  1  0.31001393  0.58399821  0.93666116  1
  O  O368  1  0.30886764  0.91649437  0.18735668  1
  O  O369  1  0.30764655  0.91651350  0.43704790  1
  O  O370  1  0.30688790  0.91714433  0.68937077  1
  O  O371  1  0.31035379  0.91682134  0.93725397  1
  O  O372  1  0.80644186  0.24978915  0.18781425  1
  O  O373  1  0.80692338  0.24989884  0.43896042  1
  O  O374  1  0.80880454  0.24996229  0.68764913  1
  O  O375  1  0.80794875  0.25011438  0.93645795  1
  O  O376  1  0.80877823  0.58369715  0.18682525  1
  O  O377  1  0.80443395  0.58387790  0.43846812  1
  O  O378  1  0.80646679  0.58395972  0.68872659  1
  O  O379  1  0.80631214  0.58395692  0.93903528  1
  O  O380  1  0.80981159  0.91623427  0.18683732  1
  O  O381  1  0.80609671  0.91620966  0.43818416  1
  O  O382  1  0.80624500  0.91606042  0.68868953  1
  O  O383  1  0.80941525  0.91593039  0.93745812  1
  O  O384  1  0.23194077  0.24981262  0.03892929  1
  O  O385  1  0.23298675  0.24994119  0.28908018  1
  O  O386  1  0.23192727  0.24941789  0.54047621  1
  O  O387  1  0.23417755  0.24996628  0.79137652  1
  O  O388  1  0.23572185  0.58341354  0.03750819  1
  O  O389  1  0.23376045  0.58368836  0.28947767  1
  O  O390  1  0.23345243  0.58332600  0.54039384  1
  O  O391  1  0.23609127  0.58321347  0.78972047  1
  O  O392  1  0.23536076  0.91689135  0.03730540  1
  O  O393  1  0.23347970  0.91620933  0.28736588  1
  O  O394  1  0.23332500  0.91726977  0.53819588  1
  O  O395  1  0.23465133  0.91708442  0.79157725  1
  O  O396  1  0.73276238  0.24943495  0.03661572  1
  O  O397  1  0.73425382  0.24964530  0.29051222  1
  O  O398  1  0.73470589  0.24954836  0.54129241  1
  O  O399  1  0.73371537  0.24916065  0.78763768  1
  O  O400  1  0.73180071  0.58331632  0.03938674  1
  O  O401  1  0.73259561  0.58330371  0.28619303  1
  O  O402  1  0.73095451  0.58355688  0.54026340  1
  O  O403  1  0.73269961  0.58374734  0.78989488  1
  O  O404  1  0.73555305  0.91676210  0.03839388  1
  O  O405  1  0.73516861  0.91721008  0.28758776  1
  O  O406  1  0.73181578  0.91660581  0.53928401  1
  O  O407  1  0.73245494  0.91739618  0.78986130  1
  O  O408  1  0.26405940  0.08296937  0.21039930  1
  O  O409  1  0.26675518  0.08302881  0.45975534  1
  O  O410  1  0.26701373  0.08324787  0.71335944  1
  O  O411  1  0.26432803  0.08333642  0.96217435  1
  O  O412  1  0.26581183  0.41672593  0.20861161  1
  O  O413  1  0.26816441  0.41653701  0.46048222  1
  O  O414  1  0.26884429  0.41610181  0.71133118  1
  O  O415  1  0.26722805  0.41647933  0.96295895  1
  O  O416  1  0.26602185  0.75055386  0.20806777  1
  O  O417  1  0.26746195  0.75013135  0.46198139  1
  O  O418  1  0.26531283  0.75075120  0.71256924  1
  O  O419  1  0.26686893  0.75006566  0.96241164  1
  O  O420  1  0.76866817  0.08322853  0.21013681  1
  O  O421  1  0.76752682  0.08321940  0.46256008  1
  O  O422  1  0.76612820  0.08284158  0.71221943  1
  O  O423  1  0.76735270  0.08329298  0.95970590  1
  O  O424  1  0.76535867  0.41628239  0.20846708  1
  O  O425  1  0.76803059  0.41708475  0.46056124  1
  O  O426  1  0.76451385  0.41619643  0.71263209  1
  O  O427  1  0.76420758  0.41676104  0.96056400  1
  O  O428  1  0.76413498  0.75007699  0.21123059  1
  O  O429  1  0.76489147  0.74996258  0.45811935  1
  O  O430  1  0.76455329  0.75077806  0.71231704  1
  O  O431  1  0.76467320  0.75012399  0.96160840  1
  O  O432  1  0.01638112  0.08332228  0.16244083  1
  O  O433  1  0.01675997  0.08321521  0.41344972  1
  O  O434  1  0.01433375  0.08310227  0.66358206  1
  O  O435  1  0.01499459  0.08321040  0.91305837  1
  O  O436  1  0.01810359  0.41701020  0.16425140  1
  O  O437  1  0.01576557  0.41658991  0.41555511  1
  O  O438  1  0.01536407  0.41625912  0.66321662  1
  O  O439  1  0.01610778  0.41675605  0.91489538  1
  O  O440  1  0.01775770  0.74968213  0.16500349  1
  O  O441  1  0.01715181  0.75040337  0.41440879  1
  O  O442  1  0.01859771  0.75004091  0.66349223  1
  O  O443  1  0.01797151  0.75110687  0.91477827  1
  O  O444  1  0.51633542  0.08255305  0.16570750  1
  O  O445  1  0.51518880  0.08286287  0.41593705  1
  O  O446  1  0.51625238  0.08299461  0.66248403  1
  O  O447  1  0.51800454  0.08271571  0.91192162  1
  O  O448  1  0.51797308  0.41661231  0.16178149  1
  O  O449  1  0.51587580  0.41655290  0.41600416  1
  O  O450  1  0.51428130  0.41668151  0.66334018  1
  O  O451  1  0.51655532  0.41656829  0.91288243  1
  O  O452  1  0.51729020  0.75044207  0.16267769  1
  O  O453  1  0.51677642  0.75060597  0.41524827  1
  O  O454  1  0.51502082  0.74969377  0.66273411  1
  O  O455  1  0.51735993  0.75077573  0.91490124  1
  O  O456  1  0.48490778  0.24940662  0.08296994  1
  O  O457  1  0.48317355  0.24984797  0.33530309  1
  O  O458  1  0.48451195  0.24942275  0.58741052  1
  O  O459  1  0.48592795  0.24965779  0.83603175  1
  O  O460  1  0.48585064  0.58362659  0.08603298  1
  O  O461  1  0.48550498  0.58356003  0.33592956  1
  O  O462  1  0.48165876  0.58339413  0.58491396  1
  O  O463  1  0.48268317  0.58366242  0.83744788  1
  O  O464  1  0.48243625  0.91687805  0.08491612  1
  O  O465  1  0.48263765  0.91622844  0.33799330  1
  O  O466  1  0.48523164  0.91712402  0.58695338  1
  O  O467  1  0.48312246  0.91637664  0.83446080  1
  O  O468  1  0.98401070  0.24992377  0.08379720  1
  O  O469  1  0.98501575  0.24971285  0.33716116  1
  O  O470  1  0.98237661  0.24961270  0.58548313  1
  O  O471  1  0.98247782  0.24884513  0.83745777  1
  O  O472  1  0.98230407  0.58412424  0.08469617  1
  O  O473  1  0.98481003  0.58327935  0.33816709  1
  O  O474  1  0.98502527  0.58386078  0.58440577  1
  O  O475  1  0.98397665  0.58369755  0.83431610  1
  O  O476  1  0.98328172  0.91673050  0.08736726  1
  O  O477  1  0.98609149  0.91668868  0.33676446  1
  O  O478  1  0.98476585  0.91683446  0.58408201  1
  O  O479  1  0.98187746  0.91683767  0.83520946  1
  O  O480  1  0.08800640  0.31508539  0.07692358  1
  O  O481  1  0.08867393  0.31410814  0.32845120  1
  O  O482  1  0.08654105  0.31463522  0.57690953  1
  O  O483  1  0.08602529  0.31391498  0.82713997  1
  O  O484  1  0.08666750  0.64859466  0.07763678  1
  O  O485  1  0.08827402  0.64837772  0.32800015  1
  O  O486  1  0.08916607  0.64895568  0.57746831  1
  O  O487  1  0.08768999  0.64942484  0.82812406  1
  O  O488  1  0.08684754  0.98144310  0.07782814  1
  O  O489  1  0.08901049  0.98325322  0.32767080  1
  O  O490  1  0.08893259  0.98120973  0.57680370  1
  O  O491  1  0.08519347  0.98273588  0.82755448  1
  O  O492  1  0.58865095  0.31511693  0.07679606  1
  O  O493  1  0.58707375  0.31466984  0.32811048  1
  O  O494  1  0.58812224  0.31385994  0.57801802  1
  O  O495  1  0.58943947  0.31502162  0.82751794  1
  O  O496  1  0.58952087  0.64865079  0.07804855  1
  O  O497  1  0.58874554  0.64975212  0.32846581  1
  O  O498  1  0.58596118  0.64788470  0.57666768  1
  O  O499  1  0.58608532  0.64881999  0.82837644  1
  O  O500  1  0.58652026  0.98129071  0.07703920  1
  O  O501  1  0.58615987  0.98128910  0.32758298  1
  O  O502  1  0.58854156  0.98318372  0.57755477  1
  O  O503  1  0.58720995  0.98146122  0.82643817  1
  O  O504  1  0.41245463  0.01738245  0.17171804  1
  O  O505  1  0.41152746  0.01701145  0.42333000  1
  O  O506  1  0.41227717  0.01847826  0.67317907  1
  O  O507  1  0.41423741  0.01746108  0.92148955  1
  O  O508  1  0.41455931  0.35120347  0.17198235  1
  O  O509  1  0.41183270  0.35160786  0.42315912  1
  O  O510  1  0.41047029  0.35237688  0.67307766  1
  O  O511  1  0.41275120  0.35199267  0.92335535  1
  O  O512  1  0.41380335  0.68599485  0.17251589  1
  O  O513  1  0.41261296  0.68598636  0.42307695  1
  O  O514  1  0.41160248  0.68431882  0.67140290  1
  O  O515  1  0.41348569  0.68561523  0.92328891  1
  O  O516  1  0.91281028  0.01790225  0.17219316  1
  O  O517  1  0.91310621  0.01797439  0.42303983  1
  O  O518  1  0.91008488  0.01907668  0.67258549  1
  O  O519  1  0.91140206  0.01792898  0.92205278  1
  O  O520  1  0.91419788  0.35257481  0.17253155  1
  O  O521  1  0.91161828  0.35202937  0.42331304  1
  O  O522  1  0.91179649  0.35097352  0.67148869  1
  O  O523  1  0.91276610  0.35053727  0.92254360  1
  O  O524  1  0.91379405  0.68459661  0.17263455  1
  O  O525  1  0.91344587  0.68504224  0.42328243  1
  O  O526  1  0.91459350  0.68520663  0.67269983  1
  O  O527  1  0.91416714  0.68598155  0.92293096  1
  O  O528  1  0.16102696  0.01651225  0.20226981  1
  O  O529  1  0.16267672  0.01844101  0.45227590  1
  O  O530  1  0.16354371  0.01823161  0.70301769  1
  O  O531  1  0.16035782  0.01908494  0.95190369  1
  O  O532  1  0.16145063  0.35230021  0.20142298  1
  O  O533  1  0.16421612  0.35149228  0.45332855  1
  O  O534  1  0.16477927  0.35143981  0.70258552  1
  O  O535  1  0.16366231  0.35094624  0.95263594  1
  O  O536  1  0.16185392  0.68610611  0.20098054  1
  O  O537  1  0.16401264  0.68479248  0.45354693  1
  O  O538  1  0.16188022  0.68548496  0.70278177  1
  O  O539  1  0.16297840  0.68529240  0.95183977  1
  O  O540  1  0.66494559  0.01819924  0.20151846  1
  O  O541  1  0.66414644  0.01743837  0.45276024  1
  O  O542  1  0.66220742  0.01802723  0.70253509  1
  O  O543  1  0.66339266  0.01836685  0.95109978  1
  O  O544  1  0.66122282  0.35179907  0.20173836  1
  O  O545  1  0.66445354  0.35202811  0.45249856  1
  O  O546  1  0.66133879  0.35050382  0.70372733  1
  O  O547  1  0.66038853  0.35187193  0.95236567  1
  O  O548  1  0.66029615  0.68495611  0.20275565  1
  O  O549  1  0.66063498  0.68525990  0.45244553  1
  O  O550  1  0.66075459  0.68631179  0.70315148  1
  O  O551  1  0.66116054  0.68411785  0.95320001  1
  O  O552  1  0.33584927  0.31517970  0.04767898  1
  O  O553  1  0.33671857  0.31492029  0.29696818  1
  O  O554  1  0.33620451  0.31410085  0.54721937  1
  O  O555  1  0.33836075  0.31439002  0.79776233  1
  O  O556  1  0.33900672  0.64898733  0.04652812  1
  O  O557  1  0.33739871  0.64870723  0.29712006  1
  O  O558  1  0.33721370  0.64874699  0.54807547  1
  O  O559  1  0.34001766  0.64758844  0.79817825  1
  O  O560  1  0.33933831  0.98089904  0.04755283  1
  O  O561  1  0.33706754  0.98140055  0.29762394  1
  O  O562  1  0.33697137  0.98214274  0.54669066  1
  O  O563  1  0.33844124  0.98295930  0.79829903  1
  O  O564  1  0.83619923  0.31430301  0.04699062  1
  O  O565  1  0.83821989  0.31411622  0.29678862  1
  O  O566  1  0.83832164  0.31521560  0.54807840  1
  O  O567  1  0.83753909  0.31373320  0.79830874  1
  O  O568  1  0.83562190  0.64863768  0.04890205  1
  O  O569  1  0.83594478  0.64838575  0.29748168  1
  O  O570  1  0.83489479  0.64827526  0.54798816  1
  O  O571  1  0.83632711  0.64900812  0.79814869  1
  O  O572  1  0.83915977  0.98261005  0.04644070  1
  O  O573  1  0.83883558  0.98248015  0.29624860  1
  O  O574  1  0.83574335  0.98172163  0.54749080  1
  O  O575  1  0.83677872  0.98207630  0.79763067  1
  O  O576  1  0.41257833  0.14754798  0.17229007  1
  O  O577  1  0.41090502  0.14703224  0.42394033  1
  O  O578  1  0.41269611  0.14838137  0.67366653  1
  O  O579  1  0.41437231  0.14739224  0.92262679  1
  O  O580  1  0.41443704  0.48134806  0.17204172  1
  O  O581  1  0.41182554  0.48148877  0.42273321  1
  O  O582  1  0.41098535  0.48262227  0.67197904  1
  O  O583  1  0.41287175  0.48203430  0.92255761  1
  O  O584  1  0.41385684  0.81614458  0.17176218  1
  O  O585  1  0.41266167  0.81587329  0.42318435  1
  O  O586  1  0.41159063  0.81447302  0.67198474  1
  O  O587  1  0.41321132  0.81559635  0.92258215  1
  O  O588  1  0.91262185  0.14800392  0.17269311  1
  O  O589  1  0.91262752  0.14775380  0.42289884  1
  O  O590  1  0.91094145  0.14912595  0.67198177  1
  O  O591  1  0.91116141  0.14803177  0.92235348  1
  O  O592  1  0.91452404  0.48294097  0.17232161  1
  O  O593  1  0.91190372  0.48194632  0.42372110  1
  O  O594  1  0.91173208  0.48130864  0.67219617  1
  O  O595  1  0.91183033  0.48074014  0.92233275  1
  O  O596  1  0.91397662  0.81481947  0.17280427  1
  O  O597  1  0.91339610  0.81511411  0.42317107  1
  O  O598  1  0.91484574  0.81525474  0.67266695  1
  O  O599  1  0.91384385  0.81595477  0.92231068  1
  O  O600  1  0.08793824  0.18493342  0.07704562  1
  O  O601  1  0.08811730  0.18385007  0.32877561  1
  O  O602  1  0.08644941  0.18475453  0.57692682  1
  O  O603  1  0.08604367  0.18365901  0.82798866  1
  O  O604  1  0.08603783  0.51851363  0.07701188  1
  O  O605  1  0.08821336  0.51823271  0.32812202  1
  O  O606  1  0.08899330  0.51888188  0.57664820  1
  O  O607  1  0.08784168  0.51906141  0.82707673  1
  O  O608  1  0.08679651  0.85134255  0.07796967  1
  O  O609  1  0.09045784  0.85318017  0.32719673  1
  O  O610  1  0.08871365  0.85116751  0.57743138  1
  O  O611  1  0.08638505  0.85264584  0.82830877  1
  O  O612  1  0.58921915  0.18506354  0.07651887  1
  O  O613  1  0.58675727  0.18451057  0.32780328  1
  O  O614  1  0.58780808  0.18361635  0.57831211  1
  O  O615  1  0.58980102  0.18473517  0.82722175  1
  O  O616  1  0.58941467  0.51851772  0.07745371  1
  O  O617  1  0.58972579  0.51954281  0.32739902  1
  O  O618  1  0.58550879  0.51806185  0.57640834  1
  O  O619  1  0.58601635  0.51850494  0.82795099  1
  O  O620  1  0.58613366  0.85141283  0.07734522  1
  O  O621  1  0.58638821  0.85126738  0.32856959  1
  O  O622  1  0.58923349  0.85311330  0.57731194  1
  O  O623  1  0.58712576  0.85145369  0.82706873  1
  O  O624  1  0.33565711  0.18496174  0.04796167  1
  O  O625  1  0.33646736  0.18478778  0.29728819  1
  O  O626  1  0.33564454  0.18401247  0.54755938  1
  O  O627  1  0.33767185  0.18417561  0.79836924  1
  O  O628  1  0.33945363  0.51857321  0.04626964  1
  O  O629  1  0.33752903  0.51860518  0.29688534  1
  O  O630  1  0.33762222  0.51863351  0.54751531  1
  O  O631  1  0.33965756  0.51738968  0.79730925  1
  O  O632  1  0.33867399  0.85072972  0.04706559  1
  O  O633  1  0.33735791  0.85150109  0.29755072  1
  O  O634  1  0.33691141  0.85201484  0.54719362  1
  O  O635  1  0.33900013  0.85300005  0.79853654  1
  O  O636  1  0.83647984  0.18424628  0.04609505  1
  O  O637  1  0.83785639  0.18396103  0.29670324  1
  O  O638  1  0.83887919  0.18497806  0.54790613  1
  O  O639  1  0.83735368  0.18368026  0.79720135  1
  O  O640  1  0.83596265  0.51863985  0.04850968  1
  O  O641  1  0.83617464  0.51830298  0.29687994  1
  O  O642  1  0.83497195  0.51820155  0.54759089  1
  O  O643  1  0.83636106  0.51874904  0.79807048  1
  O  O644  1  0.83955714  0.85246255  0.04785024  1
  O  O645  1  0.83850261  0.85228218  0.29716585  1
  O  O646  1  0.83539290  0.85161611  0.54801273  1
  O  O647  1  0.83631264  0.85218140  0.79871977  1
  O  O648  1  0.15959612  0.14651892  0.20202433  1
  O  O649  1  0.16279444  0.14848569  0.45251962  1
  O  O650  1  0.16333749  0.14818009  0.70322907  1
  O  O651  1  0.16073349  0.14911969  0.95279469  1
  O  O652  1  0.16216175  0.48219888  0.20101143  1
  O  O653  1  0.16455526  0.48178183  0.45312455  1
  O  O654  1  0.16528556  0.48143083  0.70239950  1
  O  O655  1  0.16373081  0.48117504  0.95196703  1
  O  O656  1  0.16215388  0.81604613  0.20150946  1
  O  O657  1  0.16382519  0.81498533  0.45332697  1
  O  O658  1  0.16154939  0.81552123  0.70278931  1
  O  O659  1  0.16315474  0.81527012  0.95184844  1
  O  O660  1  0.66480260  0.14817120  0.20224928  1
  O  O661  1  0.66370873  0.14748934  0.45277355  1
  O  O662  1  0.66248597  0.14807182  0.70239307  1
  O  O663  1  0.66316472  0.14825651  0.95145154  1
  O  O664  1  0.66153318  0.48183950  0.20198206  1
  O  O665  1  0.66399271  0.48214102  0.45304528  1
  O  O666  1  0.66082279  0.48071766  0.70294391  1
  O  O667  1  0.66045544  0.48208828  0.95260313  1
  O  O668  1  0.66050749  0.81504818  0.20174767  1
  O  O669  1  0.66111414  0.81545166  0.45211864  1
  O  O670  1  0.66120148  0.81642252  0.70397065  1
  O  O671  1  0.66058695  0.81420233  0.95242318  1
