# generated using pymatgen
data_Na2MnFe(PO4)2
_symmetry_space_group_name_H-M   'P 1'
_cell_length_a   21.08124530
_cell_length_b   18.93296237
_cell_length_c   20.04043014
_cell_angle_alpha   89.99982931
_cell_angle_beta   89.99803873
_cell_angle_gamma   90.00151811
_symmetry_Int_Tables_number   1
_chemical_formula_structural   Na2MnFe(PO4)2
_chemical_formula_sum   'Na96 Mn48 Fe48 P96 O384'
_cell_volume   7998.74537162
_cell_formula_units_Z   48
loop_
 _symmetry_equiv_pos_site_id
 _symmetry_equiv_pos_as_xyz
  1  'x, y, z'
loop_
 _atom_site_type_symbol
 _atom_site_label
 _atom_site_symmetry_multiplicity
 _atom_site_fract_x
 _atom_site_fract_y
 _atom_site_fract_z
 _atom_site_occupancy
  Na  Na0  1  -0.00142020  -0.00056985  -0.00014708  1
  Na  Na1  1  -0.00253180  -0.00068194  0.25048179  1
  Na  Na2  1  -0.00144109  0.00016409  0.49897790  1
  Na  Na3  1  -0.00022347  0.00061290  0.74970387  1
  Na  Na4  1  -0.00241813  0.33261949  0.00025927  1
  Na  Na5  1  0.00154135  0.33431878  0.24954025  1
  Na  Na6  1  0.00121373  0.33333535  0.49974546  1
  Na  Na7  1  -0.00010577  0.33331092  0.75059705  1
  Na  Na8  1  -0.00115603  0.66658194  0.00098284  1
  Na  Na9  1  -0.00064230  0.66700024  0.24928080  1
  Na  Na10  1  -0.00104196  0.66566593  0.49968561  1
  Na  Na11  1  -0.00103836  0.66616714  0.75044674  1
  Na  Na12  1  0.50077197  0.00007860  -0.00023503  1
  Na  Na13  1  0.50105791  0.00024597  0.25032908  1
  Na  Na14  1  0.49717539  -0.00058653  0.50011573  1
  Na  Na15  1  0.49673519  -0.00070542  0.75046083  1
  Na  Na16  1  0.50063699  0.33280661  0.00107777  1
  Na  Na17  1  0.50140481  0.33389102  0.24917681  1
  Na  Na18  1  0.49899236  0.33303549  0.50017261  1
  Na  Na19  1  0.49937170  0.33353080  0.74952110  1
  Na  Na20  1  0.50019184  0.66642331  -0.00135232  1
  Na  Na21  1  0.49995877  0.66651861  0.24896751  1
  Na  Na22  1  0.49884955  0.66599978  0.50073889  1
  Na  Na23  1  0.50042685  0.66641898  0.75141072  1
  Na  Na24  1  0.25245116  0.00033889  0.12409316  1
  Na  Na25  1  0.25185484  0.00061532  0.37527071  1
  Na  Na26  1  0.25115872  0.00085279  0.62609826  1
  Na  Na27  1  0.25050261  -0.00017056  0.87470143  1
  Na  Na28  1  0.24915851  0.33317585  0.12541437  1
  Na  Na29  1  0.24897455  0.33391972  0.37462920  1
  Na  Na30  1  0.24727579  0.33257037  0.62557053  1
  Na  Na31  1  0.25179795  0.33475492  0.87575631  1
  Na  Na32  1  0.24979567  0.66656551  0.12481229  1
  Na  Na33  1  0.25000418  0.66630785  0.37446290  1
  Na  Na34  1  0.25096582  0.66617031  0.62441916  1
  Na  Na35  1  0.25158909  0.66718229  0.87588314  1
  Na  Na36  1  0.74964670  -0.00031134  0.12404876  1
  Na  Na37  1  0.75043918  -0.00035789  0.37455671  1
  Na  Na38  1  0.75347515  0.00130537  0.62560438  1
  Na  Na39  1  0.75070441  -0.00029609  0.87540203  1
  Na  Na40  1  0.74864695  0.33293651  0.12433133  1
  Na  Na41  1  0.74943372  0.33235803  0.37546938  1
  Na  Na42  1  0.75168849  0.33345801  0.62556942  1
  Na  Na43  1  0.75084751  0.33346339  0.87352152  1
  Na  Na44  1  0.74971406  0.66642748  0.12425600  1
  Na  Na45  1  0.75245556  0.66749956  0.37684681  1
  Na  Na46  1  0.74998486  0.66625266  0.62442821  1
  Na  Na47  1  0.74941501  0.66630523  0.87484222  1
  Na  Na48  1  0.00075241  0.16518944  0.00026820  1
  Na  Na49  1  -0.00309553  0.16754737  0.25091257  1
  Na  Na50  1  -0.00105483  0.16649342  0.49937291  1
  Na  Na51  1  -0.00154490  0.16721682  0.74944184  1
  Na  Na52  1  -0.00104180  0.50088138  0.00093501  1
  Na  Na53  1  0.00179079  0.49953596  0.24866928  1
  Na  Na54  1  0.00093725  0.50058036  0.50033159  1
  Na  Na55  1  0.00082710  0.50035665  0.75029228  1
  Na  Na56  1  -0.00312004  0.83379531  0.00027986  1
  Na  Na57  1  -0.00061868  0.83277131  0.24966392  1
  Na  Na58  1  -0.00062561  0.83338926  0.49899430  1
  Na  Na59  1  -0.00226298  0.83421558  0.75055018  1
  Na  Na60  1  0.50168146  0.16627321  0.00000513  1
  Na  Na61  1  0.50147015  0.16627605  0.24998938  1
  Na  Na62  1  0.49932293  0.16606450  0.49991695  1
  Na  Na63  1  0.49735391  0.16759913  0.75008492  1
  Na  Na64  1  0.50064489  0.50003272  -0.00018377  1
  Na  Na65  1  0.49861538  0.50031121  0.24934657  1
  Na  Na66  1  0.49631923  0.50132790  0.50138501  1
  Na  Na67  1  0.50092398  0.49943349  0.75001071  1
  Na  Na68  1  0.49992422  0.83374645  -0.00018265  1
  Na  Na69  1  0.50169610  0.83301997  0.24895768  1
  Na  Na70  1  0.49994244  0.83310261  0.49985548  1
  Na  Na71  1  0.49764525  0.83417163  0.75136370  1
  Na  Na72  1  0.25070236  0.16637809  0.12363095  1
  Na  Na73  1  0.25058169  0.16596293  0.37553925  1
  Na  Na74  1  0.24963365  0.16574290  0.62588869  1
  Na  Na75  1  0.25034969  0.16620881  0.87553557  1
  Na  Na76  1  0.25080284  0.49968565  0.12606147  1
  Na  Na77  1  0.24919562  0.50031655  0.37500036  1
  Na  Na78  1  0.25069459  0.49929886  0.62431074  1
  Na  Na79  1  0.24960310  0.50066054  0.87520426  1
  Na  Na80  1  0.25058162  0.83365893  0.12470572  1
  Na  Na81  1  0.25037248  0.83372534  0.37383026  1
  Na  Na82  1  0.25194881  0.83289729  0.62551411  1
  Na  Na83  1  0.25344371  0.83229529  0.87557058  1
  Na  Na84  1  0.74793679  0.16797154  0.12406276  1
  Na  Na85  1  0.75278184  0.16570561  0.37562256  1
  Na  Na86  1  0.75305026  0.16650557  0.62494723  1
  Na  Na87  1  0.75132530  0.16627129  0.87483450  1
  Na  Na88  1  0.74939196  0.50042079  0.12467589  1
  Na  Na89  1  0.75202855  0.49967930  0.37562042  1
  Na  Na90  1  0.75083396  0.50051150  0.62551228  1
  Na  Na91  1  0.74870914  0.50083082  0.87379063  1
  Na  Na92  1  0.74906102  0.83370037  0.12412314  1
  Na  Na93  1  0.74876052  0.83347134  0.37530361  1
  Na  Na94  1  0.74989473  0.83372689  0.62567325  1
  Na  Na95  1  0.75200509  0.83247238  0.87478447  1
  Mn  Mn96  1  0.85838133  0.41676993  0.75246094  1
  Mn  Mn97  1  0.10758285  0.74960688  0.37246722  1
  Mn  Mn98  1  0.14285351  0.58373231  0.99811831  1
  Mn  Mn99  1  0.64221623  0.58326847  0.24851378  1
  Mn  Mn100  1  0.85813694  0.41681120  0.25264153  1
  Mn  Mn101  1  0.14239855  0.58335965  0.49774962  1
  Mn  Mn102  1  0.10814916  0.75066780  0.62305605  1
  Mn  Mn103  1  0.64299649  0.24969355  0.49828560  1
  Mn  Mn104  1  0.14231689  0.25002603  0.99769075  1
  Mn  Mn105  1  0.60808127  0.74912724  0.37264337  1
  Mn  Mn106  1  0.60825624  0.41709274  0.12224142  1
  Mn  Mn107  1  0.14236147  0.91697044  0.49840600  1
  Mn  Mn108  1  0.10722616  0.41651616  0.87383657  1
  Mn  Mn109  1  0.10741236  0.08329198  0.37219350  1
  Mn  Mn110  1  0.89109388  0.91642356  0.37720036  1
  Mn  Mn111  1  0.60738199  0.41690605  0.62224037  1
  Mn  Mn112  1  0.35845862  0.75013240  0.50261570  1
  Mn  Mn113  1  0.35808618  0.75023077  0.25135588  1
  Mn  Mn114  1  0.14231324  0.91674411  0.24700673  1
  Mn  Mn115  1  0.85731261  0.08366464  0.00248404  1
  Mn  Mn116  1  0.60735967  0.08275245  0.62325367  1
  Mn  Mn117  1  0.64202053  0.91750342  0.49913953  1
  Mn  Mn118  1  0.60833402  0.08359167  0.37323288  1
  Mn  Mn119  1  0.14172332  0.24931828  0.24762502  1
  Mn  Mn120  1  0.60740344  0.41709223  0.37358364  1
  Mn  Mn121  1  0.14177334  0.25038760  0.74860114  1
  Mn  Mn122  1  0.60752352  0.74980271  0.87259471  1
  Mn  Mn123  1  0.64233413  0.91679838  0.74762063  1
  Mn  Mn124  1  0.39072837  0.24998423  0.62733016  1
  Mn  Mn125  1  0.85773061  0.75031918  0.75206985  1
  Mn  Mn126  1  0.10734520  0.08256170  0.12358206  1
  Mn  Mn127  1  0.14240554  0.91578449  0.74812325  1
  Mn  Mn128  1  0.39266669  0.91612657  0.37691124  1
  Mn  Mn129  1  0.39189182  0.25071858  0.37741986  1
  Mn  Mn130  1  0.39266777  0.58260543  0.87736546  1
  Mn  Mn131  1  0.89143028  0.24957117  0.12726296  1
  Mn  Mn132  1  0.64276969  0.24971790  0.74747268  1
  Mn  Mn133  1  0.35822452  0.08339401  0.00259601  1
  Mn  Mn134  1  0.85813381  0.75051168  0.50298748  1
  Mn  Mn135  1  0.35728968  0.41643347  0.75270649  1
  Mn  Mn136  1  0.89175322  0.58352303  0.12751947  1
  Mn  Mn137  1  0.64205783  0.58287753  0.49796829  1
  Mn  Mn138  1  0.85938682  0.41630610  0.50254994  1
  Mn  Mn139  1  0.39333814  0.24950396  0.12755477  1
  Mn  Mn140  1  0.14234375  0.91641626  0.99815866  1
  Mn  Mn141  1  0.60757134  0.08388380  0.87172348  1
  Mn  Mn142  1  0.10744329  0.75036881  0.87327548  1
  Mn  Mn143  1  0.35719890  0.41615869  0.25230394  1
  Fe  Fe144  1  0.35776756  0.74977947  0.75171048  1
  Fe  Fe145  1  0.35824929  0.41723420  0.00200585  1
  Fe  Fe146  1  0.60798260  0.75003046  0.12281495  1
  Fe  Fe147  1  0.60750861  0.41613139  0.87353225  1
  Fe  Fe148  1  0.85611124  0.08301315  0.25108237  1
  Fe  Fe149  1  0.85637750  0.41719054  0.00094881  1
  Fe  Fe150  1  0.89406984  0.25028753  0.62652319  1
  Fe  Fe151  1  0.85664404  0.75024445  0.25122130  1
  Fe  Fe152  1  0.10737312  0.41687050  0.37345845  1
  Fe  Fe153  1  0.14255962  0.58396304  0.24809396  1
  Fe  Fe154  1  0.89146914  0.91639940  0.12676288  1
  Fe  Fe155  1  0.10720519  0.41697459  0.12240695  1
  Fe  Fe156  1  0.89345702  0.58265229  0.37607803  1
  Fe  Fe157  1  0.14194235  0.24945000  0.49843287  1
  Fe  Fe158  1  0.89204374  0.58329505  0.87676187  1
  Fe  Fe159  1  0.60816264  0.08267537  0.12371134  1
  Fe  Fe160  1  0.39260543  0.91733971  0.87750019  1
  Fe  Fe161  1  0.10731815  0.41663331  0.62348918  1
  Fe  Fe162  1  0.89278580  0.91664992  0.62687903  1
  Fe  Fe163  1  0.39155026  0.58322579  0.37628655  1
  Fe  Fe164  1  0.85657183  0.74928413  0.00192914  1
  Fe  Fe165  1  0.64287569  0.91677519  0.24785106  1
  Fe  Fe166  1  0.64296635  0.58347016  0.74757875  1
  Fe  Fe167  1  0.64317804  0.91650089  0.99780639  1
  Fe  Fe168  1  0.64279769  0.25061193  0.99698234  1
  Fe  Fe169  1  0.14247008  0.58391291  0.74866954  1
  Fe  Fe170  1  0.64268809  0.58309405  0.99812686  1
  Fe  Fe171  1  0.89261253  0.25030991  0.87717669  1
  Fe  Fe172  1  0.64307383  0.24958261  0.24917763  1
  Fe  Fe173  1  0.85870413  0.08327177  0.75182625  1
  Fe  Fe174  1  0.39198114  0.91598992  0.62709221  1
  Fe  Fe175  1  0.89240576  0.25118487  0.37662336  1
  Fe  Fe176  1  0.60621529  0.75031177  0.62427998  1
  Fe  Fe177  1  0.10656322  0.08303407  0.87350199  1
  Fe  Fe178  1  0.85817108  0.08304192  0.50216872  1
  Fe  Fe179  1  0.35861144  0.08354977  0.25137057  1
  Fe  Fe180  1  0.35679675  0.08410490  0.50226820  1
  Fe  Fe181  1  0.10645537  0.75045401  0.12302386  1
  Fe  Fe182  1  0.89333159  0.58325910  0.62698520  1
  Fe  Fe183  1  0.39443445  0.91656362  0.12658713  1
  Fe  Fe184  1  0.35602727  0.41574957  0.50149421  1
  Fe  Fe185  1  0.35811825  0.74936337  0.00288974  1
  Fe  Fe186  1  0.39241321  0.58402323  0.62780671  1
  Fe  Fe187  1  0.10679454  0.08350070  0.62331349  1
  Fe  Fe188  1  0.89252018  0.91657807  0.87715963  1
  Fe  Fe189  1  0.35649383  0.08327157  0.75231601  1
  Fe  Fe190  1  0.39340642  0.58395686  0.12645072  1
  Fe  Fe191  1  0.39281528  0.25034552  0.87718726  1
  P  P192  1  0.05304092  0.25012738  0.10992642  1
  P  P193  1  0.05309256  0.25043987  0.36118082  1
  P  P194  1  0.05325117  0.24976513  0.60986999  1
  P  P195  1  0.05174847  0.24926653  0.86061098  1
  P  P196  1  0.05465514  0.58404321  0.11126948  1
  P  P197  1  0.05316318  0.58279202  0.35911214  1
  P  P198  1  0.05387469  0.58324482  0.61148011  1
  P  P199  1  0.05252602  0.58366924  0.86032877  1
  P  P200  1  0.05142424  0.91581430  0.11003415  1
  P  P201  1  0.05293811  0.91669247  0.35958395  1
  P  P202  1  0.05190061  0.91745228  0.61007869  1
  P  P203  1  0.05191281  0.91693266  0.86041104  1
  P  P204  1  0.55633992  0.24889146  0.11069110  1
  P  P205  1  0.55387376  0.25017636  0.35953480  1
  P  P206  1  0.55266814  0.24947451  0.60989026  1
  P  P207  1  0.55341548  0.25106094  0.86072478  1
  P  P208  1  0.55347698  0.58425698  0.10916813  1
  P  P209  1  0.55121102  0.58281083  0.36001512  1
  P  P210  1  0.55310781  0.58446700  0.61161767  1
  P  P211  1  0.55573300  0.58201257  0.86054203  1
  P  P212  1  0.55525559  0.91672899  0.11047336  1
  P  P213  1  0.55451828  0.91674031  0.35932859  1
  P  P214  1  0.55130349  0.91601702  0.61074124  1
  P  P215  1  0.55329361  0.91670605  0.86104526  1
  P  P216  1  0.44827361  0.08236705  0.14027196  1
  P  P217  1  0.44512176  0.08358700  0.38971533  1
  P  P218  1  0.44401754  0.08268170  0.63984820  1
  P  P219  1  0.44525901  0.08388038  0.88896547  1
  P  P220  1  0.44579924  0.41758979  0.13877350  1
  P  P221  1  0.44543675  0.41735781  0.39081470  1
  P  P222  1  0.44459187  0.41723694  0.63906985  1
  P  P223  1  0.44741066  0.41590759  0.89070646  1
  P  P224  1  0.44747911  0.74996377  0.13810554  1
  P  P225  1  0.44679188  0.74914102  0.38967238  1
  P  P226  1  0.44673426  0.74989898  0.64116989  1
  P  P227  1  0.44458510  0.75040324  0.88968693  1
  P  P228  1  0.94530644  0.08226335  0.14076889  1
  P  P229  1  0.94390654  0.08413233  0.38893206  1
  P  P230  1  0.94619603  0.08345868  0.63899547  1
  P  P231  1  0.94613009  0.08331231  0.88899583  1
  P  P232  1  0.94626013  0.41675231  0.13865369  1
  P  P233  1  0.94827523  0.41721945  0.38959681  1
  P  P234  1  0.94837442  0.41665411  0.64007936  1
  P  P235  1  0.94570455  0.41726296  0.89088700  1
  P  P236  1  0.94487591  0.75065417  0.13929547  1
  P  P237  1  0.94503390  0.74897461  0.38845567  1
  P  P238  1  0.94695106  0.75000049  0.64011816  1
  P  P239  1  0.94536798  0.74949048  0.89086225  1
  P  P240  1  0.19869921  0.08311753  0.23445474  1
  P  P241  1  0.19596730  0.08379166  0.48639825  1
  P  P242  1  0.19520671  0.08306090  0.73614754  1
  P  P243  1  0.19584973  0.08282006  0.98420012  1
  P  P244  1  0.19402733  0.41753450  0.23559180  1
  P  P245  1  0.19513721  0.41581454  0.48568541  1
  P  P246  1  0.19541704  0.41780285  0.73497402  1
  P  P247  1  0.19720493  0.41706070  0.98629460  1
  P  P248  1  0.19588036  0.74943468  0.23387467  1
  P  P249  1  0.19723431  0.75026613  0.48465299  1
  P  P250  1  0.19823595  0.74939530  0.73545945  1
  P  P251  1  0.19724359  0.75031098  0.98622456  1
  P  P252  1  0.69725077  0.08330683  0.23464542  1
  P  P253  1  0.69855561  0.08323305  0.48548281  1
  P  P254  1  0.69874618  0.08338449  0.73482011  1
  P  P255  1  0.69501276  0.08315805  0.98579301  1
  P  P256  1  0.69692490  0.41620211  0.23525732  1
  P  P257  1  0.69761271  0.41663065  0.48518168  1
  P  P258  1  0.69567220  0.41717048  0.73577989  1
  P  P259  1  0.69693514  0.41689263  0.98382497  1
  P  P260  1  0.69703933  0.75007096  0.23432065  1
  P  P261  1  0.69525312  0.75027528  0.48680601  1
  P  P262  1  0.69585519  0.74938413  0.73443159  1
  P  P263  1  0.69619230  0.75008151  0.98589702  1
  P  P264  1  0.30508362  0.25109585  0.01421748  1
  P  P265  1  0.30324783  0.24914345  0.26493423  1
  P  P266  1  0.30122123  0.25039176  0.51502913  1
  P  P267  1  0.30340612  0.24932221  0.76625974  1
  P  P268  1  0.30482337  0.58301765  0.01587514  1
  P  P269  1  0.30374553  0.58355091  0.26411446  1
  P  P270  1  0.30522099  0.58223575  0.51436602  1
  P  P271  1  0.30324887  0.58389106  0.76424849  1
  P  P272  1  0.30589445  0.91591755  0.01477098  1
  P  P273  1  0.30525946  0.91738525  0.26328769  1
  P  P274  1  0.30408410  0.91750432  0.51576325  1
  P  P275  1  0.30538276  0.91652494  0.76471938  1
  P  P276  1  0.80309560  0.25115094  0.01325546  1
  P  P277  1  0.80270102  0.24940727  0.26519868  1
  P  P278  1  0.80610650  0.24955958  0.51482934  1
  P  P279  1  0.80620628  0.24927093  0.76423255  1
  P  P280  1  0.80315769  0.58293181  0.01335013  1
  P  P281  1  0.80373159  0.58448845  0.26581145  1
  P  P282  1  0.80568721  0.58292401  0.51499743  1
  P  P283  1  0.80422332  0.58357409  0.76434832  1
  P  P284  1  0.80409120  0.91590706  0.01411229  1
  P  P285  1  0.80279274  0.91613192  0.26317239  1
  P  P286  1  0.80395583  0.91728082  0.51610458  1
  P  P287  1  0.80541966  0.91755482  0.76475049  1
  O  O288  1  0.05589031  0.24965015  0.18676554  1
  O  O289  1  0.05790851  0.24935631  0.43784706  1
  O  O290  1  0.05640070  0.24957681  0.68662030  1
  O  O291  1  0.05568590  0.24963684  0.93727279  1
  O  O292  1  0.05850999  0.58406127  0.18794900  1
  O  O293  1  0.05662595  0.58366518  0.43591494  1
  O  O294  1  0.05864695  0.58413707  0.68816032  1
  O  O295  1  0.05667179  0.58391210  0.93704397  1
  O  O296  1  0.05554601  0.91636678  0.18671511  1
  O  O297  1  0.05660465  0.91700866  0.43632841  1
  O  O298  1  0.05590326  0.91682099  0.68679269  1
  O  O299  1  0.05586232  0.91621232  0.93705460  1
  O  O300  1  0.56047331  0.24979048  0.18746797  1
  O  O301  1  0.55702469  0.24975769  0.43633746  1
  O  O302  1  0.55629696  0.24952673  0.68669529  1
  O  O303  1  0.55853546  0.25030687  0.93744864  1
  O  O304  1  0.55695393  0.58359191  0.18588819  1
  O  O305  1  0.55524743  0.58278630  0.43672502  1
  O  O306  1  0.55818354  0.58333945  0.68827983  1
  O  O307  1  0.55985890  0.58306863  0.93733507  1
  O  O308  1  0.55971151  0.91667928  0.18723685  1
  O  O309  1  0.55713151  0.91708596  0.43615797  1
  O  O310  1  0.55524265  0.91714869  0.68744273  1
  O  O311  1  0.55877215  0.91661251  0.93768426  1
  O  O312  1  0.44444656  0.08332823  0.06354751  1
  O  O313  1  0.44149027  0.08384066  0.31289431  1
  O  O314  1  0.44009200  0.08389359  0.56299289  1
  O  O315  1  0.44095132  0.08381622  0.81223418  1
  O  O316  1  0.44210763  0.41673130  0.06204413  1
  O  O317  1  0.44280695  0.41621109  0.31395240  1
  O  O318  1  0.43999623  0.41605015  0.56240294  1
  O  O319  1  0.44353540  0.41664581  0.81395239  1
  O  O320  1  0.44313177  0.74989649  0.06141271  1
  O  O321  1  0.44388273  0.74989381  0.31287679  1
  O  O322  1  0.44381868  0.74978556  0.56438868  1
  O  O323  1  0.44061847  0.74944842  0.81290526  1
  O  O324  1  0.94262917  0.08300726  0.06391581  1
  O  O325  1  0.93918888  0.08315973  0.31218435  1
  O  O326  1  0.94218362  0.08311260  0.56225165  1
  O  O327  1  0.94240222  0.08341206  0.81224058  1
  O  O328  1  0.94056297  0.41691432  0.06209753  1
  O  O329  1  0.94482357  0.41689288  0.31286176  1
  O  O330  1  0.94535290  0.41685205  0.56339299  1
  O  O331  1  0.94358879  0.41738695  0.81401891  1
  O  O332  1  0.93985207  0.74972922  0.06260244  1
  O  O333  1  0.94092433  0.75014386  0.31171713  1
  O  O334  1  0.94449767  0.74986363  0.56332747  1
  O  O335  1  0.94284107  0.74945990  0.81403230  1
  O  O336  1  0.19244240  0.08276573  0.06097342  1
  O  O337  1  0.19437957  0.08289736  0.31118717  1
  O  O338  1  0.19076610  0.08318348  0.56309517  1
  O  O339  1  0.18996188  0.08305490  0.81283293  1
  O  O340  1  0.19187362  0.41670933  0.06295743  1
  O  O341  1  0.19005690  0.41696282  0.31247236  1
  O  O342  1  0.19049218  0.41656487  0.56243601  1
  O  O343  1  0.19253092  0.41728142  0.81181726  1
  O  O344  1  0.19133373  0.75077677  0.06275997  1
  O  O345  1  0.19289847  0.75007728  0.31070681  1
  O  O346  1  0.19400734  0.75016271  0.56147834  1
  O  O347  1  0.19430209  0.75006880  0.81217129  1
  O  O348  1  0.69144219  0.08303925  0.06255465  1
  O  O349  1  0.69443012  0.08313582  0.31139385  1
  O  O350  1  0.69425309  0.08333513  0.56214416  1
  O  O351  1  0.69421953  0.08332018  0.81154157  1
  O  O352  1  0.69381887  0.41691318  0.06066849  1
  O  O353  1  0.69389925  0.41695762  0.31198184  1
  O  O354  1  0.69397690  0.41708943  0.56198923  1
  O  O355  1  0.69152843  0.41632697  0.81247147  1
  O  O356  1  0.69165292  0.75001636  0.06260991  1
  O  O357  1  0.69387172  0.74935937  0.31112541  1
  O  O358  1  0.69034670  0.75011754  0.56349947  1
  O  O359  1  0.69308613  0.75016301  0.81125313  1
  O  O360  1  0.30683992  0.24982433  0.18815622  1
  O  O361  1  0.30492006  0.25060440  0.43836853  1
  O  O362  1  0.30570051  0.25000143  0.68944044  1
  O  O363  1  0.30917589  0.25066769  0.93745090  1
  O  O364  1  0.30904587  0.58379790  0.18749715  1
  O  O365  1  0.30866104  0.58331287  0.43752308  1
  O  O366  1  0.30791185  0.58338406  0.68755033  1
  O  O367  1  0.30741352  0.58282993  0.93899923  1
  O  O368  1  0.31006566  0.91663583  0.18656083  1
  O  O369  1  0.30686073  0.91645232  0.43893195  1
  O  O370  1  0.30884468  0.91643455  0.68789964  1
  O  O371  1  0.30957324  0.91680581  0.93792485  1
  O  O372  1  0.80577982  0.25048220  0.18839702  1
  O  O373  1  0.80984680  0.25094451  0.43800048  1
  O  O374  1  0.81081091  0.25033593  0.68745826  1
  O  O375  1  0.80832567  0.25014765  0.93660089  1
  O  O376  1  0.80621899  0.58337205  0.18888149  1
  O  O377  1  0.81030613  0.58261590  0.43828138  1
  O  O378  1  0.80971490  0.58328525  0.68768146  1
  O  O379  1  0.80751262  0.58318889  0.93670221  1
  O  O380  1  0.80698771  0.91615781  0.18647341  1
  O  O381  1  0.80626287  0.91612120  0.43920353  1
  O  O382  1  0.80973684  0.91687877  0.68798738  1
  O  O383  1  0.80890891  0.91654886  0.93739099  1
  O  O384  1  0.23506911  0.25001087  0.03846969  1
  O  O385  1  0.23353010  0.24975142  0.28995739  1
  O  O386  1  0.23130406  0.24956751  0.54013183  1
  O  O387  1  0.23373977  0.25041692  0.79163911  1
  O  O388  1  0.23511565  0.58310780  0.04097335  1
  O  O389  1  0.23327853  0.58349104  0.28749286  1
  O  O390  1  0.23515394  0.58273719  0.53862436  1
  O  O391  1  0.23307315  0.58382627  0.78856739  1
  O  O392  1  0.23581378  0.91683407  0.03890505  1
  O  O393  1  0.23522352  0.91672746  0.28745873  1
  O  O394  1  0.23448437  0.91698775  0.54130702  1
  O  O395  1  0.23539409  0.91638616  0.78937907  1
  O  O396  1  0.73267432  0.25077939  0.03660773  1
  O  O397  1  0.73273043  0.24923739  0.29013883  1
  O  O398  1  0.73618939  0.25024577  0.53942912  1
  O  O399  1  0.73600034  0.24965676  0.78792526  1
  O  O400  1  0.73287330  0.58321879  0.03754124  1
  O  O401  1  0.73421702  0.58376459  0.29148710  1
  O  O402  1  0.73547322  0.58306930  0.53864986  1
  O  O403  1  0.73368332  0.58375034  0.78726368  1
  O  O404  1  0.73360147  0.91664128  0.03738906  1
  O  O405  1  0.73262338  0.91631121  0.28764597  1
  O  O406  1  0.73443666  0.91746407  0.54174135  1
  O  O407  1  0.73533203  0.91621734  0.78884342  1
  O  O408  1  0.26871166  0.08331864  0.20986471  1
  O  O409  1  0.26644017  0.08370079  0.46302615  1
  O  O410  1  0.26581791  0.08299451  0.71326594  1
  O  O411  1  0.26585371  0.08296282  0.96005111  1
  O  O412  1  0.26422080  0.41640367  0.21180119  1
  O  O413  1  0.26543680  0.41692100  0.46181019  1
  O  O414  1  0.26514089  0.41624743  0.70997409  1
  O  O415  1  0.26753458  0.41771187  0.96271065  1
  O  O416  1  0.26575009  0.75013110  0.20915981  1
  O  O417  1  0.26689707  0.75010167  0.45953590  1
  O  O418  1  0.26828709  0.74973790  0.71088308  1
  O  O419  1  0.26779895  0.74965106  0.96337675  1
  O  O420  1  0.76720278  0.08351657  0.20932752  1
  O  O421  1  0.76861609  0.08278949  0.46112869  1
  O  O422  1  0.76895164  0.08375521  0.71103088  1
  O  O423  1  0.76503282  0.08310751  0.96133024  1
  O  O424  1  0.76655060  0.41669818  0.20972962  1
  O  O425  1  0.76740388  0.41605001  0.46053567  1
  O  O426  1  0.76581815  0.41702847  0.71166817  1
  O  O427  1  0.76686977  0.41700125  0.95883942  1
  O  O428  1  0.76698148  0.74991230  0.20934317  1
  O  O429  1  0.76540900  0.75045447  0.46311523  1
  O  O430  1  0.76563255  0.74971666  0.70948802  1
  O  O431  1  0.76652596  0.74970678  0.96196049  1
  O  O432  1  0.01487717  0.08314547  0.16630657  1
  O  O433  1  0.01411912  0.08326112  0.41259337  1
  O  O434  1  0.01650357  0.08391399  0.66318371  1
  O  O435  1  0.01623312  0.08272349  0.91365373  1
  O  O436  1  0.01674152  0.41705431  0.16176514  1
  O  O437  1  0.01816165  0.41713284  0.41473961  1
  O  O438  1  0.01826758  0.41651421  0.66530565  1
  O  O439  1  0.01528645  0.41698903  0.91656433  1
  O  O440  1  0.01530290  0.75002068  0.16265163  1
  O  O441  1  0.01493674  0.74933424  0.41309588  1
  O  O442  1  0.01636166  0.75021975  0.66618640  1
  O  O443  1  0.01503524  0.74992676  0.91630850  1
  O  O444  1  0.51847159  0.08284031  0.16445788  1
  O  O445  1  0.51513217  0.08304248  0.41409265  1
  O  O446  1  0.51400881  0.08337069  0.66439173  1
  O  O447  1  0.51528398  0.08344834  0.91319709  1
  O  O448  1  0.51581676  0.41739882  0.16316908  1
  O  O449  1  0.51497306  0.41696106  0.41646659  1
  O  O450  1  0.51467026  0.41707107  0.66310007  1
  O  O451  1  0.51750610  0.41652618  0.91510934  1
  O  O452  1  0.51773014  0.75000892  0.16225927  1
  O  O453  1  0.51631690  0.74943052  0.41523582  1
  O  O454  1  0.51654228  0.75018465  0.66659668  1
  O  O455  1  0.51479530  0.74978433  0.91344307  1
  O  O456  1  0.48613934  0.24945653  0.08689456  1
  O  O457  1  0.48417284  0.25038494  0.33444039  1
  O  O458  1  0.48283361  0.24940971  0.58527462  1
  O  O459  1  0.48306389  0.25079395  0.83715184  1
  O  O460  1  0.48343270  0.58367786  0.08456127  1
  O  O461  1  0.48128735  0.58305331  0.33521021  1
  O  O462  1  0.48265939  0.58405688  0.58824668  1
  O  O463  1  0.48547583  0.58270238  0.83683286  1
  O  O464  1  0.48484999  0.91661055  0.08666721  1
  O  O465  1  0.48485335  0.91656566  0.33412388  1
  O  O466  1  0.48130741  0.91599172  0.58605298  1
  O  O467  1  0.48274599  0.91686183  0.83818423  1
  O  O468  1  0.98332015  0.24927079  0.08480518  1
  O  O469  1  0.98274826  0.25075802  0.33729363  1
  O  O470  1  0.98315386  0.24977757  0.58515267  1
  O  O471  1  0.98171513  0.25030069  0.83605109  1
  O  O472  1  0.98454329  0.58398540  0.08702778  1
  O  O473  1  0.98317843  0.58312546  0.33426705  1
  O  O474  1  0.98355652  0.58322127  0.58759471  1
  O  O475  1  0.98223763  0.58327718  0.83642183  1
  O  O476  1  0.98129372  0.91624706  0.08572712  1
  O  O477  1  0.98296771  0.91643598  0.33522273  1
  O  O478  1  0.98186438  0.91705374  0.58542570  1
  O  O479  1  0.98173864  0.91684303  0.83613795  1
  O  O480  1  0.08676826  0.31548664  0.07757046  1
  O  O481  1  0.08667813  0.31554937  0.32851771  1
  O  O482  1  0.08722581  0.31488602  0.57742389  1
  O  O483  1  0.08591634  0.31429058  0.82805677  1
  O  O484  1  0.08798968  0.64932153  0.07818932  1
  O  O485  1  0.08736531  0.64760420  0.32611775  1
  O  O486  1  0.08712307  0.64811236  0.57761542  1
  O  O487  1  0.08612347  0.64874765  0.82721810  1
  O  O488  1  0.08533521  0.98082910  0.07724135  1
  O  O489  1  0.08661299  0.98177939  0.32667651  1
  O  O490  1  0.08541177  0.98272572  0.57744567  1
  O  O491  1  0.08569372  0.98188956  0.82766006  1
  O  O492  1  0.59001201  0.31385809  0.07713013  1
  O  O493  1  0.58827380  0.31512772  0.32718896  1
  O  O494  1  0.58661263  0.31457330  0.57739881  1
  O  O495  1  0.58665002  0.31626743  0.82773428  1
  O  O496  1  0.58737173  0.64930017  0.07647770  1
  O  O497  1  0.58532754  0.64773880  0.32725282  1
  O  O498  1  0.58597078  0.64993005  0.57868157  1
  O  O499  1  0.58953363  0.64684203  0.82717907  1
  O  O500  1  0.58850003  0.98192678  0.07729066  1
  O  O501  1  0.58880979  0.98175100  0.32685607  1
  O  O502  1  0.58500589  0.98105085  0.57753127  1
  O  O503  1  0.58640614  0.98156494  0.82718489  1
  O  O504  1  0.41470425  0.01707129  0.17273332  1
  O  O505  1  0.41096780  0.01869538  0.42239368  1
  O  O506  1  0.41062269  0.01719705  0.67226759  1
  O  O507  1  0.41168624  0.01879649  0.92206620  1
  O  O508  1  0.41222687  0.35265466  0.17214709  1
  O  O509  1  0.41072416  0.35254980  0.42355868  1
  O  O510  1  0.41116499  0.35227182  0.67264028  1
  O  O511  1  0.41354335  0.35091728  0.92341955  1
  O  O512  1  0.41394248  0.68485907  0.17120515  1
  O  O513  1  0.41254188  0.68408439  0.42177314  1
  O  O514  1  0.41258811  0.68481084  0.67378291  1
  O  O515  1  0.41086463  0.68541204  0.92293071  1
  O  O516  1  0.91125686  0.01684768  0.17258715  1
  O  O517  1  0.90998286  0.01937411  0.42250323  1
  O  O518  1  0.91277853  0.01850681  0.67251085  1
  O  O519  1  0.91215813  0.01838957  0.92186944  1
  O  O520  1  0.91344265  0.35158939  0.17232463  1
  O  O521  1  0.91424711  0.35227318  0.42231684  1
  O  O522  1  0.91438178  0.35146599  0.67235899  1
  O  O523  1  0.91105034  0.35223648  0.92284513  1
  O  O524  1  0.91116453  0.68588679  0.17291623  1
  O  O525  1  0.91169369  0.68354887  0.42095461  1
  O  O526  1  0.91265263  0.68492347  0.67240120  1
  O  O527  1  0.91126185  0.68424342  0.92316149  1
  O  O528  1  0.16488882  0.01814192  0.20141110  1
  O  O529  1  0.16299366  0.01876172  0.45256564  1
  O  O530  1  0.16206275  0.01810459  0.70241207  1
  O  O531  1  0.16194667  0.01774459  0.95150418  1
  O  O532  1  0.15985523  0.35284871  0.20231907  1
  O  O533  1  0.16217370  0.35038453  0.45273211  1
  O  O534  1  0.16035682  0.35310409  0.70262634  1
  O  O535  1  0.16418758  0.35196094  0.95262805  1
  O  O536  1  0.16211130  0.68408243  0.20170497  1
  O  O537  1  0.16310166  0.68508944  0.45239210  1
  O  O538  1  0.16445712  0.68436261  0.70277727  1
  O  O539  1  0.16400863  0.68529104  0.95270640  1
  O  O540  1  0.66328907  0.01825617  0.20184176  1
  O  O541  1  0.66449563  0.01834479  0.45271843  1
  O  O542  1  0.66527159  0.01811092  0.70201338  1
  O  O543  1  0.66156199  0.01792294  0.95287163  1
  O  O544  1  0.66302805  0.35093141  0.20310070  1
  O  O545  1  0.66323594  0.35166703  0.45306492  1
  O  O546  1  0.66224821  0.35218496  0.70238901  1
  O  O547  1  0.66283258  0.35185364  0.95117158  1
  O  O548  1  0.66284622  0.68508923  0.20157252  1
  O  O549  1  0.66222730  0.68508126  0.45321633  1
  O  O550  1  0.66174449  0.68423981  0.70228901  1
  O  O551  1  0.66266079  0.68512624  0.95274318  1
  O  O552  1  0.33820808  0.31634243  0.04723357  1
  O  O553  1  0.33727093  0.31422431  0.29762841  1
  O  O554  1  0.33454973  0.31573339  0.54789765  1
  O  O555  1  0.33844495  0.31397038  0.79864362  1
  O  O556  1  0.33908354  0.64820723  0.04814264  1
  O  O557  1  0.33712112  0.64854615  0.29757196  1
  O  O558  1  0.33925485  0.64701724  0.54780708  1
  O  O559  1  0.33704463  0.64874116  0.79727955  1
  O  O560  1  0.34021233  0.98061604  0.04789267  1
  O  O561  1  0.33850055  0.98263872  0.29620287  1
  O  O562  1  0.33808077  0.98276967  0.54776828  1
  O  O563  1  0.33901810  0.98182696  0.79754939  1
  O  O564  1  0.83605825  0.31639710  0.04643003  1
  O  O565  1  0.83677862  0.31432828  0.29829397  1
  O  O566  1  0.84050883  0.31403599  0.54833386  1
  O  O567  1  0.83981625  0.31421146  0.79771935  1
  O  O568  1  0.83669610  0.64782508  0.04681639  1
  O  O569  1  0.83770773  0.64995277  0.29737004  1
  O  O570  1  0.83927512  0.64793113  0.54825695  1
  O  O571  1  0.83739806  0.64854690  0.79796591  1
  O  O572  1  0.83766596  0.98073289  0.04772731  1
  O  O573  1  0.83629527  0.98121759  0.29620056  1
  O  O574  1  0.83868561  0.98236159  0.54768570  1
  O  O575  1  0.83839094  0.98301833  0.79767975  1
  O  O576  1  0.41414334  0.14710135  0.17348773  1
  O  O577  1  0.41149182  0.14866212  0.42287258  1
  O  O578  1  0.40959116  0.14725889  0.67313294  1
  O  O579  1  0.41218555  0.14922208  0.92210147  1
  O  O580  1  0.41223032  0.48291984  0.17124956  1
  O  O581  1  0.41100716  0.48255137  0.42240053  1
  O  O582  1  0.41128783  0.48256176  0.67203800  1
  O  O583  1  0.41321586  0.48090724  0.92349057  1
  O  O584  1  0.41414708  0.81503749  0.17139258  1
  O  O585  1  0.41268272  0.81423439  0.42226325  1
  O  O586  1  0.41224978  0.81484907  0.67341565  1
  O  O587  1  0.41135616  0.81560866  0.92257546  1
  O  O588  1  0.91032366  0.14696795  0.17302607  1
  O  O589  1  0.91103095  0.14958218  0.42186500  1
  O  O590  1  0.91259994  0.14858990  0.67192798  1
  O  O591  1  0.91281751  0.14851414  0.92216613  1
  O  O592  1  0.91307550  0.48172474  0.17233862  1
  O  O593  1  0.91454504  0.48244292  0.42205767  1
  O  O594  1  0.91426949  0.48156630  0.67281798  1
  O  O595  1  0.91140939  0.48240617  0.92306758  1
  O  O596  1  0.91172011  0.81588357  0.17246555  1
  O  O597  1  0.91118086  0.81385258  0.42182694  1
  O  O598  1  0.91241149  0.81512441  0.67201606  1
  O  O599  1  0.91069936  0.81446562  0.92292478  1
  O  O600  1  0.08755010  0.18513611  0.07781394  1
  O  O601  1  0.08605088  0.18536667  0.32731513  1
  O  O602  1  0.08706729  0.18474304  0.57691307  1
  O  O603  1  0.08501143  0.18410355  0.82764280  1
  O  O604  1  0.08815731  0.51892400  0.07815280  1
  O  O605  1  0.08716685  0.51759974  0.32701636  1
  O  O606  1  0.08711129  0.51794464  0.57854406  1
  O  O607  1  0.08662177  0.51872222  0.82766992  1
  O  O608  1  0.08503806  0.85062560  0.07717755  1
  O  O609  1  0.08687880  0.85164698  0.32709536  1
  O  O610  1  0.08586931  0.85245232  0.57727386  1
  O  O611  1  0.08550658  0.85179105  0.82731556  1
  O  O612  1  0.58950760  0.18362904  0.07774062  1
  O  O613  1  0.58809898  0.18510636  0.32701803  1
  O  O614  1  0.58669792  0.18435520  0.57744680  1
  O  O615  1  0.58671605  0.18611072  0.82698290  1
  O  O616  1  0.58780962  0.51934297  0.07633261  1
  O  O617  1  0.58497576  0.51777182  0.32717112  1
  O  O618  1  0.58641463  0.51973607  0.57748588  1
  O  O619  1  0.58881289  0.51667494  0.82772433  1
  O  O620  1  0.58867091  0.85171068  0.07702002  1
  O  O621  1  0.58891733  0.85178159  0.32693733  1
  O  O622  1  0.58519798  0.85077732  0.57859422  1
  O  O623  1  0.58616180  0.85154014  0.82757347  1
  O  O624  1  0.33906190  0.18608651  0.04718715  1
  O  O625  1  0.33714794  0.18396606  0.29714611  1
  O  O626  1  0.33563779  0.18556852  0.54760316  1
  O  O627  1  0.33726428  0.18393030  0.79821149  1
  O  O628  1  0.33918249  0.51811831  0.04828755  1
  O  O629  1  0.33692802  0.51850833  0.29767846  1
  O  O630  1  0.33859898  0.51694143  0.54698970  1
  O  O631  1  0.33662125  0.51874218  0.79762759  1
  O  O632  1  0.33936929  0.85064306  0.04749625  1
  O  O633  1  0.33884256  0.85231225  0.29658882  1
  O  O634  1  0.33877295  0.85267400  0.54839431  1
  O  O635  1  0.33939365  0.85159102  0.79751704  1
  O  O636  1  0.83619002  0.18613854  0.04704200  1
  O  O637  1  0.83693297  0.18434112  0.29712894  1
  O  O638  1  0.83949881  0.18397826  0.54702890  1
  O  O639  1  0.83949753  0.18404672  0.79722296  1
  O  O640  1  0.83628345  0.51769634  0.04664073  1
  O  O641  1  0.83878053  0.51982146  0.29823793  1
  O  O642  1  0.83927483  0.51799657  0.54848749  1
  O  O643  1  0.83741250  0.51863110  0.79810777  1
  O  O644  1  0.83698395  0.85068099  0.04741795  1
  O  O645  1  0.83606818  0.85098324  0.29646059  1
  O  O646  1  0.83836045  0.85246734  0.54882493  1
  O  O647  1  0.83968994  0.85282337  0.79790477  1
  O  O648  1  0.16467205  0.14816605  0.20195659  1
  O  O649  1  0.16277042  0.14890093  0.45301940  1
  O  O650  1  0.16216628  0.14822704  0.70266898  1
  O  O651  1  0.16168983  0.14778443  0.95151145  1
  O  O652  1  0.16113663  0.48299413  0.20265292  1
  O  O653  1  0.16123200  0.48055430  0.45214429  1
  O  O654  1  0.16210642  0.48326642  0.70250750  1
  O  O655  1  0.16355779  0.48195630  0.95308340  1
  O  O656  1  0.16129511  0.81413703  0.20101780  1
  O  O657  1  0.16314759  0.81534207  0.45236142  1
  O  O658  1  0.16443394  0.81448550  0.70250390  1
  O  O659  1  0.16459075  0.81540328  0.95217927  1
  O  O660  1  0.66303925  0.14830930  0.20231185  1
  O  O661  1  0.66518821  0.14840196  0.45241713  1
  O  O662  1  0.66487736  0.14822466  0.70188676  1
  O  O663  1  0.66156520  0.14837981  0.95280048  1
  O  O664  1  0.66257346  0.48118277  0.20258848  1
  O  O665  1  0.66393490  0.48178406  0.45237038  1
  O  O666  1  0.66227864  0.48253779  0.70305391  1
  O  O667  1  0.66270626  0.48189218  0.95152452  1
  O  O668  1  0.66288911  0.81510026  0.20184587  1
  O  O669  1  0.66192047  0.81538766  0.45368420  1
  O  O670  1  0.66144950  0.81432865  0.70193015  1
  O  O671  1  0.66320767  0.81537508  0.95256811  1
