# generated using pymatgen
data_Na2MnFe(PO4)2
_symmetry_space_group_name_H-M   'P 1'
_cell_length_a   21.08200765
_cell_length_b   18.93406910
_cell_length_c   20.04131490
_cell_angle_alpha   89.99973437
_cell_angle_beta   89.99670682
_cell_angle_gamma   90.00012757
_symmetry_Int_Tables_number   1
_chemical_formula_structural   Na2MnFe(PO4)2
_chemical_formula_sum   'Na96 Mn48 Fe48 P96 O384'
_cell_volume   7999.85537346
_cell_formula_units_Z   48
loop_
 _symmetry_equiv_pos_site_id
 _symmetry_equiv_pos_as_xyz
  1  'x, y, z'
loop_
 _atom_site_type_symbol
 _atom_site_label
 _atom_site_symmetry_multiplicity
 _atom_site_fract_x
 _atom_site_fract_y
 _atom_site_fract_z
 _atom_site_occupancy
  Na  Na0  1  -0.00117996  -0.00025727  0.00047442  1
  Na  Na1  1  -0.00065822  0.00004053  0.24968779  1
  Na  Na2  1  -0.00113178  -0.00067235  0.49981147  1
  Na  Na3  1  0.00218835  0.00131822  0.74956214  1
  Na  Na4  1  0.00027755  0.33228590  0.00007411  1
  Na  Na5  1  0.00226864  0.33354072  0.25024152  1
  Na  Na6  1  0.00319974  0.33370618  0.50008429  1
  Na  Na7  1  0.00157967  0.33260496  0.75045544  1
  Na  Na8  1  0.00171391  0.66704918  0.00056238  1
  Na  Na9  1  0.00210475  0.66704148  0.24902390  1
  Na  Na10  1  0.00031413  0.66641136  0.49996025  1
  Na  Na11  1  -0.00157611  0.66549987  0.75062933  1
  Na  Na12  1  0.49961518  0.00033841  0.00041802  1
  Na  Na13  1  0.50100246  0.00058770  0.24904717  1
  Na  Na14  1  0.49907910  0.00023613  0.50024464  1
  Na  Na15  1  0.49888527  0.00069331  0.75040467  1
  Na  Na16  1  0.49943048  0.33352917  -0.00009053  1
  Na  Na17  1  0.50103850  0.33396160  0.24912593  1
  Na  Na18  1  0.50007448  0.33260122  0.50026653  1
  Na  Na19  1  0.49971556  0.33286295  0.74981002  1
  Na  Na20  1  0.49996609  0.66767871  0.00038327  1
  Na  Na21  1  0.49979227  0.66651621  0.25115911  1
  Na  Na22  1  0.49972292  0.66701790  0.49913149  1
  Na  Na23  1  0.49801725  0.66630359  0.74911192  1
  Na  Na24  1  0.25006997  -0.00004432  0.12390631  1
  Na  Na25  1  0.24975578  0.00018839  0.37571838  1
  Na  Na26  1  0.25011549  0.00032292  0.62583678  1
  Na  Na27  1  0.25087057  0.00083173  0.87489569  1
  Na  Na28  1  0.24869724  0.33278732  0.12478211  1
  Na  Na29  1  0.24701284  0.33235117  0.37614828  1
  Na  Na30  1  0.24808376  0.33231151  0.62498699  1
  Na  Na31  1  0.24993734  0.33255886  0.87399147  1
  Na  Na32  1  0.24986088  0.66629009  0.12471417  1
  Na  Na33  1  0.25059767  0.66684963  0.37451899  1
  Na  Na34  1  0.25343043  0.66822863  0.62622483  1
  Na  Na35  1  0.25057904  0.66609673  0.87427330  1
  Na  Na36  1  0.75058797  -0.00002361  0.12471839  1
  Na  Na37  1  0.75140149  0.00038650  0.37580107  1
  Na  Na38  1  0.75031518  0.00089083  0.62611339  1
  Na  Na39  1  0.74898497  -0.00022968  0.87316084  1
  Na  Na40  1  0.74828730  0.33246718  0.12327413  1
  Na  Na41  1  0.75017023  0.33378047  0.37591287  1
  Na  Na42  1  0.75041205  0.33308945  0.62534231  1
  Na  Na43  1  0.74960639  0.33270504  0.87501572  1
  Na  Na44  1  0.74838686  0.66652221  0.12362146  1
  Na  Na45  1  0.74792936  0.66592667  0.37598223  1
  Na  Na46  1  0.74958218  0.66656611  0.62645655  1
  Na  Na47  1  0.74902567  0.66670726  0.87475644  1
  Na  Na48  1  0.00037758  0.16641731  0.00074212  1
  Na  Na49  1  -0.00068629  0.16675960  0.24982901  1
  Na  Na50  1  0.00004245  0.16680225  0.49963397  1
  Na  Na51  1  0.00061791  0.16686627  0.74988503  1
  Na  Na52  1  0.00007089  0.50078603  0.00021895  1
  Na  Na53  1  0.00304042  0.49960838  0.24941218  1
  Na  Na54  1  0.00139223  0.50005691  0.49950282  1
  Na  Na55  1  0.00010848  0.50011515  0.75105438  1
  Na  Na56  1  0.00002577  0.83376709  0.00022484  1
  Na  Na57  1  0.00082005  0.83310585  0.24972209  1
  Na  Na58  1  0.00086134  0.83343472  0.50068976  1
  Na  Na59  1  0.00160972  0.83305800  0.74994150  1
  Na  Na60  1  0.49849243  0.16698946  -0.00050252  1
  Na  Na61  1  0.49990100  0.16600296  0.24937405  1
  Na  Na62  1  0.49821147  0.16700156  0.50102638  1
  Na  Na63  1  0.49913744  0.16628832  0.74952535  1
  Na  Na64  1  0.49706281  0.50120904  0.00065429  1
  Na  Na65  1  0.50109561  0.49972358  0.25018730  1
  Na  Na66  1  0.50092602  0.50001365  0.49936419  1
  Na  Na67  1  0.49874025  0.50006841  0.75000093  1
  Na  Na68  1  0.50135992  0.83318805  0.00016868  1
  Na  Na69  1  0.50146005  0.83293589  0.25002013  1
  Na  Na70  1  0.49998793  0.83314474  0.49925261  1
  Na  Na71  1  0.50010887  0.83289577  0.75008547  1
  Na  Na72  1  0.24838816  0.16711574  0.12395426  1
  Na  Na73  1  0.24912461  0.16645627  0.37585020  1
  Na  Na74  1  0.25047835  0.16600471  0.62628739  1
  Na  Na75  1  0.24961345  0.16694799  0.87397850  1
  Na  Na76  1  0.25033796  0.50035745  0.12536621  1
  Na  Na77  1  0.24826092  0.50071660  0.37538150  1
  Na  Na78  1  0.25036958  0.50013329  0.62521226  1
  Na  Na79  1  0.25255231  0.49984298  0.87390021  1
  Na  Na80  1  0.25033905  0.83325772  0.12403114  1
  Na  Na81  1  0.25007167  0.83306162  0.37505060  1
  Na  Na82  1  0.25091256  0.83284124  0.62560462  1
  Na  Na83  1  0.24963985  0.83380882  0.87518543  1
  Na  Na84  1  0.75217926  0.16558194  0.12398238  1
  Na  Na85  1  0.75265986  0.16572027  0.37631522  1
  Na  Na86  1  0.75033232  0.16688005  0.62624749  1
  Na  Na87  1  0.74959527  0.16675533  0.87353825  1
  Na  Na88  1  0.74827704  0.50101533  0.12354533  1
  Na  Na89  1  0.74802866  0.50060195  0.37578056  1
  Na  Na90  1  0.74895735  0.50045997  0.62585758  1
  Na  Na91  1  0.75135772  0.49921911  0.87506543  1
  Na  Na92  1  0.74721891  0.83417501  0.12421077  1
  Na  Na93  1  0.74868956  0.83364294  0.37555821  1
  Na  Na94  1  0.75039983  0.83263314  0.62596385  1
  Na  Na95  1  0.74743655  0.83417885  0.87428037  1
  Mn  Mn96  1  0.60864536  0.08361402  0.12193212  1
  Mn  Mn97  1  0.39114459  0.24995545  0.37697898  1
  Mn  Mn98  1  0.85736078  0.41692768  0.25195406  1
  Mn  Mn99  1  0.10717147  0.08284802  0.12284590  1
  Mn  Mn100  1  0.60836594  0.41596887  0.37259514  1
  Mn  Mn101  1  0.85818822  0.74980640  0.50226953  1
  Mn  Mn102  1  0.14234565  0.58346703  0.49849269  1
  Mn  Mn103  1  0.39207608  0.58286218  0.37716655  1
  Mn  Mn104  1  0.10812413  0.74946978  0.62307598  1
  Mn  Mn105  1  0.39267641  0.91601099  0.12748175  1
  Mn  Mn106  1  0.85824579  0.41636230  0.75169203  1
  Mn  Mn107  1  0.35727881  0.08299113  0.25217322  1
  Mn  Mn108  1  0.35798706  0.74991650  0.00232235  1
  Mn  Mn109  1  0.64145079  0.58252748  0.74801236  1
  Mn  Mn110  1  0.10829887  0.41669455  0.87287314  1
  Mn  Mn111  1  0.10892157  0.41674992  0.12202878  1
  Mn  Mn112  1  0.39183540  0.91723845  0.37652197  1
  Mn  Mn113  1  0.89304602  0.25085946  0.37722439  1
  Mn  Mn114  1  0.89229393  0.25020140  0.12732421  1
  Mn  Mn115  1  0.85788616  0.08362717  0.75224760  1
  Mn  Mn116  1  0.64243987  0.24994428  0.49828404  1
  Mn  Mn117  1  0.89241850  0.58334351  0.37638328  1
  Mn  Mn118  1  0.35716154  0.41638186  0.25259137  1
  Mn  Mn119  1  0.85709961  0.75101658  0.00155220  1
  Mn  Mn120  1  0.35716142  0.41646432  0.50256119  1
  Mn  Mn121  1  0.14289007  0.58357884  0.74751392  1
  Mn  Mn122  1  0.60650659  0.41652038  0.87251586  1
  Mn  Mn123  1  0.39147397  0.25064136  0.12739737  1
  Mn  Mn124  1  0.60826289  0.08364811  0.37350907  1
  Mn  Mn125  1  0.64269629  0.91684063  0.49853560  1
  Mn  Mn126  1  0.64118363  0.58370307  0.99696534  1
  Mn  Mn127  1  0.14214304  0.91672688  0.99708124  1
  Mn  Mn128  1  0.14232504  0.91641849  0.49788812  1
  Mn  Mn129  1  0.60777561  0.75050635  0.37267269  1
  Mn  Mn130  1  0.85703325  0.74957998  0.25229726  1
  Mn  Mn131  1  0.89279678  0.91675929  0.87723058  1
  Mn  Mn132  1  0.39193980  0.91666017  0.62758616  1
  Mn  Mn133  1  0.85762877  0.75001062  0.75259632  1
  Mn  Mn134  1  0.64252747  0.24987010  0.24757482  1
  Mn  Mn135  1  0.35797252  0.41638673  0.75162867  1
  Mn  Mn136  1  0.89218994  0.91560360  0.37697755  1
  Mn  Mn137  1  0.85788661  0.41631535  0.00241147  1
  Mn  Mn138  1  0.10770822  0.08278812  0.37267111  1
  Mn  Mn139  1  0.10839243  0.75048305  0.12262843  1
  Mn  Mn140  1  0.64100560  0.91737751  0.74721711  1
  Mn  Mn141  1  0.85867696  0.41669267  0.50277959  1
  Mn  Mn142  1  0.64193847  0.24877160  0.99697422  1
  Mn  Mn143  1  0.89247701  0.58369836  0.12763830  1
  Fe  Fe144  1  0.14250343  0.91658328  0.24808170  1
  Fe  Fe145  1  0.35799581  0.75121991  0.75230225  1
  Fe  Fe146  1  0.64179362  0.58356715  0.24762022  1
  Fe  Fe147  1  0.64198256  0.25014957  0.74813343  1
  Fe  Fe148  1  0.60706376  0.41644099  0.62356928  1
  Fe  Fe149  1  0.14285365  0.24932428  0.49895081  1
  Fe  Fe150  1  0.39266250  0.58376613  0.12705313  1
  Fe  Fe151  1  0.14333145  0.58393385  0.24811652  1
  Fe  Fe152  1  0.35687930  0.08298655  0.75224001  1
  Fe  Fe153  1  0.89220564  0.58294028  0.62656122  1
  Fe  Fe154  1  0.89408809  0.25025650  0.62683869  1
  Fe  Fe155  1  0.35715146  0.41601935  0.00175634  1
  Fe  Fe156  1  0.35707867  0.08323333  0.50205076  1
  Fe  Fe157  1  0.39337506  0.58274577  0.62571546  1
  Fe  Fe158  1  0.14281432  0.24927747  0.74801217  1
  Fe  Fe159  1  0.60672740  0.41711759  0.12306166  1
  Fe  Fe160  1  0.35714365  0.75038216  0.25123261  1
  Fe  Fe161  1  0.89341438  0.24992239  0.87634520  1
  Fe  Fe162  1  0.64238563  0.91747799  0.99783656  1
  Fe  Fe163  1  0.39226518  0.25039596  0.62669434  1
  Fe  Fe164  1  0.60637830  0.74972431  0.62325534  1
  Fe  Fe165  1  0.39215291  0.24993501  0.87643132  1
  Fe  Fe166  1  0.39270779  0.91701967  0.87689053  1
  Fe  Fe167  1  0.14386896  0.58284264  0.99784446  1
  Fe  Fe168  1  0.89156425  0.91620598  0.12680631  1
  Fe  Fe169  1  0.85735963  0.08274537  0.00038206  1
  Fe  Fe170  1  0.89336515  0.91662276  0.62700883  1
  Fe  Fe171  1  0.89329391  0.58332545  0.87714561  1
  Fe  Fe172  1  0.85811816  0.08334465  0.50308082  1
  Fe  Fe173  1  0.64288029  0.91669199  0.24802574  1
  Fe  Fe174  1  0.10751330  0.08359145  0.62331550  1
  Fe  Fe175  1  0.14336222  0.91700459  0.74889337  1
  Fe  Fe176  1  0.14307526  0.25024113  0.99763357  1
  Fe  Fe177  1  0.60696802  0.74948733  0.12364476  1
  Fe  Fe178  1  0.60610070  0.08353121  0.62298278  1
  Fe  Fe179  1  0.14222907  0.24934594  0.24806591  1
  Fe  Fe180  1  0.10796854  0.41750139  0.37281870  1
  Fe  Fe181  1  0.60599021  0.75025638  0.87312691  1
  Fe  Fe182  1  0.10778325  0.75025632  0.87318871  1
  Fe  Fe183  1  0.10785529  0.08281090  0.87359310  1
  Fe  Fe184  1  0.64235720  0.58333528  0.49952781  1
  Fe  Fe185  1  0.10739873  0.41664553  0.62377544  1
  Fe  Fe186  1  0.10869590  0.74965642  0.37300547  1
  Fe  Fe187  1  0.39234905  0.58337194  0.87726593  1
  Fe  Fe188  1  0.85712084  0.08305090  0.25173236  1
  Fe  Fe189  1  0.35694521  0.08402282  0.00104174  1
  Fe  Fe190  1  0.60621348  0.08348436  0.87338854  1
  Fe  Fe191  1  0.35758174  0.75044049  0.50149688  1
  P  P192  1  0.05547102  0.24967154  0.11007848  1
  P  P193  1  0.05562236  0.25029354  0.36075191  1
  P  P194  1  0.05483253  0.24948568  0.61107728  1
  P  P195  1  0.05491759  0.24890102  0.86069595  1
  P  P196  1  0.05597432  0.58357847  0.10994961  1
  P  P197  1  0.05470586  0.58384794  0.35928877  1
  P  P198  1  0.05208406  0.58269382  0.61051308  1
  P  P199  1  0.05426471  0.58399871  0.86134221  1
  P  P200  1  0.05301774  0.91680014  0.11076124  1
  P  P201  1  0.05417843  0.91581265  0.35930374  1
  P  P202  1  0.05405712  0.91754847  0.61158029  1
  P  P203  1  0.05429797  0.91695870  0.85944367  1
  P  P204  1  0.55318871  0.25064000  0.10951755  1
  P  P205  1  0.55278715  0.24935141  0.35969701  1
  P  P206  1  0.55308446  0.24965439  0.61155011  1
  P  P207  1  0.55210396  0.24902851  0.85937775  1
  P  P208  1  0.55312907  0.58369071  0.11109178  1
  P  P209  1  0.55514229  0.58335784  0.36059542  1
  P  P210  1  0.55263479  0.58324692  0.60973687  1
  P  P211  1  0.55109998  0.58400618  0.86001691  1
  P  P212  1  0.55552104  0.91589809  0.11042663  1
  P  P213  1  0.55406812  0.91740791  0.35927987  1
  P  P214  1  0.55277395  0.91703557  0.61009977  1
  P  P215  1  0.55294044  0.91738065  0.86128199  1
  P  P216  1  0.44558968  0.08344488  0.13863552  1
  P  P217  1  0.44590626  0.08339859  0.39090806  1
  P  P218  1  0.44488484  0.08405123  0.63970614  1
  P  P219  1  0.44527350  0.08353388  0.88909901  1
  P  P220  1  0.44596664  0.41766619  0.13897476  1
  P  P221  1  0.44665707  0.41633899  0.39024995  1
  P  P222  1  0.44764368  0.41654362  0.63942832  1
  P  P223  1  0.44528126  0.41618017  0.89037976  1
  P  P224  1  0.44710828  0.74934910  0.14077065  1
  P  P225  1  0.44456434  0.75034608  0.38921935  1
  P  P226  1  0.44570437  0.74946207  0.63898143  1
  P  P227  1  0.44612411  0.75061196  0.88886865  1
  P  P228  1  0.94417395  0.08227013  0.13922044  1
  P  P229  1  0.94483999  0.08305166  0.38959023  1
  P  P230  1  0.94688925  0.08365228  0.63898492  1
  P  P231  1  0.94782923  0.08414706  0.89012378  1
  P  P232  1  0.94744106  0.41664703  0.14032257  1
  P  P233  1  0.94858969  0.41710219  0.38979894  1
  P  P234  1  0.94842517  0.41624043  0.63999262  1
  P  P235  1  0.94692194  0.41614539  0.88997900  1
  P  P236  1  0.94635808  0.75091814  0.13988888  1
  P  P237  1  0.94867133  0.74959653  0.38977404  1
  P  P238  1  0.94667872  0.74989204  0.64021049  1
  P  P239  1  0.94817813  0.74961073  0.89005706  1
  P  P240  1  0.19628873  0.08274186  0.23483137  1
  P  P241  1  0.19640158  0.08387727  0.48690387  1
  P  P242  1  0.19570848  0.08298115  0.73619084  1
  P  P243  1  0.19695347  0.08389647  0.98417409  1
  P  P244  1  0.19538949  0.41678188  0.23613049  1
  P  P245  1  0.19443519  0.41591979  0.48627954  1
  P  P246  1  0.19614758  0.41597822  0.73447893  1
  P  P247  1  0.19847805  0.41703851  0.98455927  1
  P  P248  1  0.19685070  0.75037149  0.23573191  1
  P  P249  1  0.19764513  0.74963055  0.48481435  1
  P  P250  1  0.19717939  0.75103712  0.73656033  1
  P  P251  1  0.19647936  0.74904246  0.98406625  1
  P  P252  1  0.69802971  0.08287617  0.23503248  1
  P  P253  1  0.69729722  0.08345656  0.48692209  1
  P  P254  1  0.69389814  0.08452859  0.73555320  1
  P  P255  1  0.69730003  0.08226953  0.98333867  1
  P  P256  1  0.69593656  0.41740183  0.23361826  1
  P  P257  1  0.69556558  0.41726724  0.48691253  1
  P  P258  1  0.69566486  0.41559523  0.73469971  1
  P  P259  1  0.69499241  0.41663969  0.98526934  1
  P  P260  1  0.69566529  0.74988775  0.23425796  1
  P  P261  1  0.69521373  0.74929326  0.48692408  1
  P  P262  1  0.69379875  0.74984799  0.73568260  1
  P  P263  1  0.69391981  0.75109539  0.98490967  1
  P  P264  1  0.30342315  0.24986730  0.01317139  1
  P  P265  1  0.30100967  0.24987531  0.26519102  1
  P  P266  1  0.30254384  0.24929317  0.51599021  1
  P  P267  1  0.30412955  0.24926470  0.76388995  1
  P  P268  1  0.30459787  0.58262173  0.01442827  1
  P  P269  1  0.30356874  0.58408638  0.26373265  1
  P  P270  1  0.30389375  0.58411993  0.51569568  1
  P  P271  1  0.30620753  0.58413824  0.76388090  1
  P  P272  1  0.30483054  0.91758197  0.01358519  1
  P  P273  1  0.30181889  0.91595906  0.26463285  1
  P  P274  1  0.30332051  0.91660721  0.51516094  1
  P  P275  1  0.30337131  0.91703606  0.76562358  1
  P  P276  1  0.80486440  0.24858248  0.01294288  1
  P  P277  1  0.80335317  0.24963239  0.26518557  1
  P  P278  1  0.80481504  0.24963625  0.51635543  1
  P  P279  1  0.80425549  0.25022177  0.76434658  1
  P  P280  1  0.80436739  0.58394500  0.01364508  1
  P  P281  1  0.80106481  0.58341166  0.26502937  1
  P  P282  1  0.80265320  0.58329530  0.51605106  1
  P  P283  1  0.80505208  0.58297360  0.76502564  1
  P  P284  1  0.80251367  0.91750581  0.01458923  1
  P  P285  1  0.80290592  0.91668874  0.26390377  1
  P  P286  1  0.80449831  0.91700193  0.51638201  1
  P  P287  1  0.80430264  0.91679811  0.76396238  1
  O  O288  1  0.05968093  0.24955359  0.18690936  1
  O  O289  1  0.05935288  0.24910460  0.43756325  1
  O  O290  1  0.05911369  0.24911410  0.68786690  1
  O  O291  1  0.05963680  0.24975057  0.93744133  1
  O  O292  1  0.06065322  0.58362336  0.18671722  1
  O  O293  1  0.05722286  0.58407983  0.43608460  1
  O  O294  1  0.05610032  0.58336026  0.68721429  1
  O  O295  1  0.05936116  0.58319970  0.93797193  1
  O  O296  1  0.05833785  0.91677153  0.18738971  1
  O  O297  1  0.05712415  0.91665562  0.43617118  1
  O  O298  1  0.05917557  0.91710663  0.68820053  1
  O  O299  1  0.05653550  0.91708081  0.93630135  1
  O  O300  1  0.55655839  0.24967261  0.18627010  1
  O  O301  1  0.55620211  0.24912248  0.43651635  1
  O  O302  1  0.55745365  0.24974228  0.68817913  1
  O  O303  1  0.55588563  0.24944762  0.93609704  1
  O  O304  1  0.55747398  0.58344143  0.18781218  1
  O  O305  1  0.55927824  0.58348773  0.43732974  1
  O  O306  1  0.55550623  0.58318480  0.68648438  1
  O  O307  1  0.55467016  0.58371597  0.93671286  1
  O  O308  1  0.55964342  0.91719101  0.18720202  1
  O  O309  1  0.55727460  0.91731330  0.43607767  1
  O  O310  1  0.55498899  0.91718294  0.68693677  1
  O  O311  1  0.55740901  0.91765217  0.93794535  1
  O  O312  1  0.44078716  0.08367131  0.06189266  1
  O  O313  1  0.44278233  0.08319380  0.31406403  1
  O  O314  1  0.44013061  0.08339078  0.56300083  1
  O  O315  1  0.44084051  0.08335138  0.81235392  1
  O  O316  1  0.44083492  0.41665504  0.06230843  1
  O  O317  1  0.44319150  0.41647802  0.31343644  1
  O  O318  1  0.44407016  0.41632050  0.56275781  1
  O  O319  1  0.44295538  0.41585404  0.81359534  1
  O  O320  1  0.44341229  0.75025150  0.06400908  1
  O  O321  1  0.44018956  0.75042223  0.31247435  1
  O  O322  1  0.44131465  0.75062921  0.56225731  1
  O  O323  1  0.44186203  0.75087831  0.81212293  1
  O  O324  1  0.94048841  0.08276039  0.06245644  1
  O  O325  1  0.94054169  0.08313337  0.31277035  1
  O  O326  1  0.94260538  0.08344614  0.56227923  1
  O  O327  1  0.94413757  0.08371403  0.81336875  1
  O  O328  1  0.94370212  0.41653702  0.06353435  1
  O  O329  1  0.94424372  0.41692351  0.31315638  1
  O  O330  1  0.94531480  0.41625823  0.56327696  1
  O  O331  1  0.94413213  0.41593714  0.81320415  1
  O  O332  1  0.94289700  0.75047250  0.06314623  1
  O  O333  1  0.94418439  0.74963384  0.31311622  1
  O  O334  1  0.94410615  0.75007543  0.56340726  1
  O  O335  1  0.94415028  0.75006684  0.81338061  1
  O  O336  1  0.19304356  0.08293565  0.06084467  1
  O  O337  1  0.19377981  0.08267606  0.31164503  1
  O  O338  1  0.19179976  0.08323857  0.56360558  1
  O  O339  1  0.19136394  0.08324736  0.81285560  1
  O  O340  1  0.19509045  0.41707305  0.06127924  1
  O  O341  1  0.19188233  0.41701620  0.31297433  1
  O  O342  1  0.19053102  0.41713085  0.56308727  1
  O  O343  1  0.19349042  0.41688006  0.81127657  1
  O  O344  1  0.19371034  0.75001708  0.06089204  1
  O  O345  1  0.19273439  0.75016463  0.31244410  1
  O  O346  1  0.19381003  0.74959244  0.56159893  1
  O  O347  1  0.19202452  0.74996217  0.81315542  1
  O  O348  1  0.69414162  0.08324877  0.06009351  1
  O  O349  1  0.69467438  0.08340950  0.31176933  1
  O  O350  1  0.69143199  0.08370847  0.56350189  1
  O  O351  1  0.68929409  0.08360281  0.81227219  1
  O  O352  1  0.69010307  0.41706840  0.06198445  1
  O  O353  1  0.69362948  0.41655878  0.31053614  1
  O  O354  1  0.69084064  0.41643983  0.56363942  1
  O  O355  1  0.69249410  0.41624989  0.81150766  1
  O  O356  1  0.69007256  0.74968306  0.06164854  1
  O  O357  1  0.69337516  0.74996857  0.31117841  1
  O  O358  1  0.69084139  0.74989334  0.56366298  1
  O  O359  1  0.68898757  0.74992532  0.81248134  1
  O  O360  1  0.30504575  0.25024747  0.18844504  1
  O  O361  1  0.30569660  0.24995129  0.43925792  1
  O  O362  1  0.30895520  0.25020777  0.68723564  1
  O  O363  1  0.30798164  0.24986805  0.93647539  1
  O  O364  1  0.30828946  0.58350844  0.18701780  1
  O  O365  1  0.30632757  0.58296035  0.43886810  1
  O  O366  1  0.31049773  0.58321952  0.68714395  1
  O  O367  1  0.30919476  0.58365144  0.93762424  1
  O  O368  1  0.30571053  0.91639340  0.18790029  1
  O  O369  1  0.30595635  0.91688611  0.43843968  1
  O  O370  1  0.30665990  0.91669090  0.68889482  1
  O  O371  1  0.30913777  0.91683218  0.93685056  1
  O  O372  1  0.80603031  0.25048599  0.18835603  1
  O  O373  1  0.80789197  0.25067326  0.43954875  1
  O  O374  1  0.80996494  0.25021829  0.68773524  1
  O  O375  1  0.80917586  0.24965574  0.93618910  1
  O  O376  1  0.80544828  0.58358463  0.18833509  1
  O  O377  1  0.80660510  0.58319782  0.43932112  1
  O  O378  1  0.80959374  0.58298483  0.68823294  1
  O  O379  1  0.80943660  0.58386727  0.93687465  1
  O  O380  1  0.80726050  0.91585448  0.18722098  1
  O  O381  1  0.80693638  0.91610157  0.43949372  1
  O  O382  1  0.80957608  0.91677558  0.68731339  1
  O  O383  1  0.80629245  0.91645764  0.93781650  1
  O  O384  1  0.23307304  0.24992527  0.03706787  1
  O  O385  1  0.23103307  0.24947425  0.28973298  1
  O  O386  1  0.23250432  0.24934089  0.54070625  1
  O  O387  1  0.23355436  0.24946371  0.78706819  1
  O  O388  1  0.23423952  0.58342201  0.03803875  1
  O  O389  1  0.23329854  0.58394119  0.28766210  1
  O  O390  1  0.23432406  0.58412298  0.54134195  1
  O  O391  1  0.23599491  0.58324038  0.78767662  1
  O  O392  1  0.23473084  0.91674447  0.03758546  1
  O  O393  1  0.23196382  0.91641086  0.28965670  1
  O  O394  1  0.23379355  0.91640840  0.54096032  1
  O  O395  1  0.23330455  0.91733944  0.79021518  1
  O  O396  1  0.73481156  0.24874421  0.03708431  1
  O  O397  1  0.73393147  0.24962220  0.29116852  1
  O  O398  1  0.73498318  0.24978607  0.54116493  1
  O  O399  1  0.73360954  0.24984710  0.78712670  1
  O  O400  1  0.73404528  0.58394200  0.03676141  1
  O  O401  1  0.73096839  0.58349063  0.28924378  1
  O  O402  1  0.73253596  0.58342992  0.54048288  1
  O  O403  1  0.73475055  0.58278271  0.78855562  1
  O  O404  1  0.73240046  0.91719018  0.03890878  1
  O  O405  1  0.73273490  0.91662164  0.28830029  1
  O  O406  1  0.73486250  0.91683806  0.54185287  1
  O  O407  1  0.73394162  0.91697396  0.78698376  1
  O  O408  1  0.26571975  0.08312644  0.20885383  1
  O  O409  1  0.26665617  0.08366557  0.46290719  1
  O  O410  1  0.26623192  0.08304814  0.71268039  1
  O  O411  1  0.26709354  0.08380392  0.95983284  1
  O  O412  1  0.26516181  0.41661478  0.21103383  1
  O  O413  1  0.26442449  0.41649823  0.46186074  1
  O  O414  1  0.26590472  0.41614455  0.70939876  1
  O  O415  1  0.26834846  0.41645992  0.95943990  1
  O  O416  1  0.26693371  0.75010788  0.21093774  1
  O  O417  1  0.26774437  0.74986002  0.46054020  1
  O  O418  1  0.26766456  0.75105089  0.71318554  1
  O  O419  1  0.26628318  0.74976647  0.95923740  1
  O  O420  1  0.76795764  0.08299836  0.21001791  1
  O  O421  1  0.76780553  0.08322560  0.46391778  1
  O  O422  1  0.76430166  0.08394155  0.71234449  1
  O  O423  1  0.76722114  0.08277301  0.95829962  1
  O  O424  1  0.76540654  0.41681215  0.20771539  1
  O  O425  1  0.76563276  0.41699353  0.46278841  1
  O  O426  1  0.76545610  0.41642242  0.70986596  1
  O  O427  1  0.76515147  0.41614201  0.96162208  1
  O  O428  1  0.76512775  0.74997467  0.20836511  1
  O  O429  1  0.76515682  0.74976064  0.46236599  1
  O  O430  1  0.76412847  0.74990256  0.71253740  1
  O  O431  1  0.76393770  0.75071548  0.96045738  1
  O  O432  1  0.01422326  0.08321516  0.16357352  1
  O  O433  1  0.01505074  0.08277660  0.41334408  1
  O  O434  1  0.01717760  0.08405713  0.66308339  1
  O  O435  1  0.01791389  0.08313394  0.91465153  1
  O  O436  1  0.01733606  0.41656227  0.16457111  1
  O  O437  1  0.01878928  0.41729853  0.41385685  1
  O  O438  1  0.01829993  0.41618741  0.66534789  1
  O  O439  1  0.01661103  0.41643308  0.91536909  1
  O  O440  1  0.01624586  0.75046038  0.16440862  1
  O  O441  1  0.01877905  0.74970282  0.41412036  1
  O  O442  1  0.01633859  0.74947523  0.66571860  1
  O  O443  1  0.01825197  0.75048272  0.91458560  1
  O  O444  1  0.51577725  0.08315919  0.16222157  1
  O  O445  1  0.51558991  0.08344229  0.41600932  1
  O  O446  1  0.51530937  0.08345732  0.66315102  1
  O  O447  1  0.51566942  0.08375752  0.91302762  1
  O  O448  1  0.51632314  0.41730011  0.16253924  1
  O  O449  1  0.51636464  0.41632858  0.41505797  1
  O  O450  1  0.51757342  0.41653704  0.66451717  1
  O  O451  1  0.51491036  0.41689917  0.91590576  1
  O  O452  1  0.51717873  0.74946894  0.16511624  1
  O  O453  1  0.51476295  0.75031249  0.41286460  1
  O  O454  1  0.51609671  0.74973521  0.66275856  1
  O  O455  1  0.51632483  0.75060351  0.91315776  1
  O  O456  1  0.48339818  0.25044137  0.08464536  1
  O  O457  1  0.48318278  0.24974478  0.33439704  1
  O  O458  1  0.48274113  0.24973665  0.58746016  1
  O  O459  1  0.48186017  0.24953435  0.83526174  1
  O  O460  1  0.48286948  0.58429243  0.08692177  1
  O  O461  1  0.48500068  0.58321338  0.33669280  1
  O  O462  1  0.48264178  0.58342415  0.58458869  1
  O  O463  1  0.48106401  0.58321725  0.83542684  1
  O  O464  1  0.48539735  0.91651504  0.08642387  1
  O  O465  1  0.48432971  0.91701125  0.33428494  1
  O  O466  1  0.48326535  0.91682930  0.58439525  1
  O  O467  1  0.48268154  0.91720315  0.83701096  1
  O  O468  1  0.98533317  0.24953679  0.08647746  1
  O  O469  1  0.98565008  0.24997645  0.33624701  1
  O  O470  1  0.98454534  0.24970613  0.58700167  1
  O  O471  1  0.98451282  0.24969431  0.83704228  1
  O  O472  1  0.98573559  0.58374396  0.08659126  1
  O  O473  1  0.98512263  0.58348562  0.33353754  1
  O  O474  1  0.98210353  0.58311827  0.58573278  1
  O  O475  1  0.98384338  0.58318014  0.83779357  1
  O  O476  1  0.98270502  0.91667113  0.08718568  1
  O  O477  1  0.98443227  0.91642223  0.33433746  1
  O  O478  1  0.98375136  0.91690714  0.58771913  1
  O  O479  1  0.98469373  0.91714564  0.83387984  1
  O  O480  1  0.08916718  0.31461717  0.07677094  1
  O  O481  1  0.08921363  0.31565821  0.32840296  1
  O  O482  1  0.08848146  0.31458532  0.57831229  1
  O  O483  1  0.08885766  0.31358069  0.82715691  1
  O  O484  1  0.08968047  0.64845034  0.07678315  1
  O  O485  1  0.08900505  0.64897380  0.32691481  1
  O  O486  1  0.08618054  0.64761987  0.57766213  1
  O  O487  1  0.08705442  0.64933767  0.82792727  1
  O  O488  1  0.08623813  0.98182039  0.07721387  1
  O  O489  1  0.08858775  0.98068761  0.32662990  1
  O  O490  1  0.08694165  0.98280761  0.57816660  1
  O  O491  1  0.08878617  0.98201621  0.82731569  1
  O  O492  1  0.58708379  0.31583965  0.07733197  1
  O  O493  1  0.58717464  0.31438502  0.32756041  1
  O  O494  1  0.58656045  0.31462721  0.57827158  1
  O  O495  1  0.58622596  0.31393620  0.82651053  1
  O  O496  1  0.58674283  0.64880635  0.07810990  1
  O  O497  1  0.58854604  0.64845514  0.32733763  1
  O  O498  1  0.58668663  0.64828587  0.57715579  1
  O  O499  1  0.58465684  0.64903433  0.82723096  1
  O  O500  1  0.58955415  0.98049156  0.07663662  1
  O  O501  1  0.58811740  0.98246160  0.32676040  1
  O  O502  1  0.58690388  0.98233724  0.57806128  1
  O  O503  1  0.58615500  0.98249492  0.82787214  1
  O  O504  1  0.41221545  0.01835523  0.17184878  1
  O  O505  1  0.41158316  0.01837851  0.42336014  1
  O  O506  1  0.41133066  0.01917508  0.67338895  1
  O  O507  1  0.41196453  0.01853569  0.92252694  1
  O  O508  1  0.41256914  0.35273140  0.17264357  1
  O  O509  1  0.41248728  0.35133936  0.42268842  1
  O  O510  1  0.41355223  0.35165264  0.67227992  1
  O  O511  1  0.41142431  0.35079130  0.92269620  1
  O  O512  1  0.41292406  0.68437888  0.17318259  1
  O  O513  1  0.41106683  0.68537998  0.42250785  1
  O  O514  1  0.41233659  0.68428506  0.67173492  1
  O  O515  1  0.41288090  0.68532659  0.92185525  1
  O  O516  1  0.91088524  0.01684089  0.17203498  1
  O  O517  1  0.91117393  0.01805408  0.42265069  1
  O  O518  1  0.91361346  0.01862368  0.67243315  1
  O  O519  1  0.91327823  0.01936932  0.92284714  1
  O  O520  1  0.91367930  0.35151745  0.17294696  1
  O  O521  1  0.91521764  0.35204802  0.42304739  1
  O  O522  1  0.91460125  0.35102983  0.67259202  1
  O  O523  1  0.91310492  0.35076035  0.92219775  1
  O  O524  1  0.91250604  0.68586977  0.17276489  1
  O  O525  1  0.91476207  0.68458440  0.42255919  1
  O  O526  1  0.91222694  0.68477724  0.67216971  1
  O  O527  1  0.91462207  0.68451757  0.92280864  1
  O  O528  1  0.16222283  0.01744310  0.20257072  1
  O  O529  1  0.16292371  0.01904252  0.45333516  1
  O  O530  1  0.16248182  0.01785488  0.70285256  1
  O  O531  1  0.16307471  0.01894524  0.95107241  1
  O  O532  1  0.16162436  0.35156304  0.20352779  1
  O  O533  1  0.16104715  0.35039095  0.45407254  1
  O  O534  1  0.16195101  0.35073897  0.70267585  1
  O  O535  1  0.16404999  0.35215070  0.95218758  1
  O  O536  1  0.16322489  0.68537832  0.20262882  1
  O  O537  1  0.16388387  0.68462290  0.45194313  1
  O  O538  1  0.16426055  0.68601773  0.70255031  1
  O  O539  1  0.16280194  0.68369116  0.95186651  1
  O  O540  1  0.66409582  0.01785536  0.20242185  1
  O  O541  1  0.66422102  0.01840719  0.45332519  1
  O  O542  1  0.66017612  0.01977632  0.70186603  1
  O  O543  1  0.66321093  0.01701216  0.95122172  1
  O  O544  1  0.66100350  0.35262406  0.20133791  1
  O  O545  1  0.66217227  0.35220557  0.45342869  1
  O  O546  1  0.66181140  0.35032262  0.70239028  1
  O  O547  1  0.66142577  0.35155734  0.95227378  1
  O  O548  1  0.66119013  0.68481491  0.20202107  1
  O  O549  1  0.66170508  0.68408640  0.45417156  1
  O  O550  1  0.66053449  0.68467930  0.70249713  1
  O  O551  1  0.65976220  0.68647358  0.95132173  1
  O  O552  1  0.33657121  0.31499381  0.04667593  1
  O  O553  1  0.33452299  0.31492812  0.29825146  1
  O  O554  1  0.33651120  0.31435627  0.54887933  1
  O  O555  1  0.33748722  0.31413094  0.79759910  1
  O  O556  1  0.33838841  0.64740576  0.04803413  1
  O  O557  1  0.33695657  0.64919663  0.29663031  1
  O  O558  1  0.33841229  0.64927622  0.54731881  1
  O  O559  1  0.33921509  0.64949138  0.79695660  1
  O  O560  1  0.33784799  0.98299724  0.04630301  1
  O  O561  1  0.33582722  0.98097229  0.29740424  1
  O  O562  1  0.33735617  0.98170766  0.54767050  1
  O  O563  1  0.33747266  0.98218504  0.79797360  1
  O  O564  1  0.83841638  0.31329893  0.04681037  1
  O  O565  1  0.83756139  0.31474064  0.29772501  1
  O  O566  1  0.83910584  0.31456504  0.54914568  1
  O  O567  1  0.83728916  0.31526213  0.79799213  1
  O  O568  1  0.83737047  0.64914655  0.04696213  1
  O  O569  1  0.83477981  0.64841819  0.29813555  1
  O  O570  1  0.83666679  0.64824390  0.54885203  1
  O  O571  1  0.83846910  0.64802137  0.79836318  1
  O  O572  1  0.83642164  0.98276770  0.04676899  1
  O  O573  1  0.83655795  0.98181343  0.29665071  1
  O  O574  1  0.83895181  0.98207979  0.54840627  1
  O  O575  1  0.83747726  0.98194381  0.79725074  1
  O  O576  1  0.41228534  0.14850960  0.17195538  1
  O  O577  1  0.41141518  0.14829894  0.42333598  1
  O  O578  1  0.41162591  0.14913622  0.67294380  1
  O  O579  1  0.41171036  0.14869903  0.92210425  1
  O  O580  1  0.41298021  0.48300702  0.17206136  1
  O  O581  1  0.41260916  0.48140983  0.42270387  1
  O  O582  1  0.41379162  0.48172172  0.67185325  1
  O  O583  1  0.41058125  0.48109427  0.92247303  1
  O  O584  1  0.41319749  0.81433244  0.17379906  1
  O  O585  1  0.41111446  0.81533452  0.42254207  1
  O  O586  1  0.41223438  0.81425873  0.67303836  1
  O  O587  1  0.41285084  0.81560161  0.92225053  1
  O  O588  1  0.91013131  0.14703152  0.17251175  1
  O  O589  1  0.91154461  0.14813783  0.42289388  1
  O  O590  1  0.91341234  0.14877488  0.67212202  1
  O  O591  1  0.91425249  0.14935013  0.92270343  1
  O  O592  1  0.91370012  0.48182904  0.17291653  1
  O  O593  1  0.91478586  0.48212001  0.42263578  1
  O  O594  1  0.91423812  0.48125340  0.67237510  1
  O  O595  1  0.91261458  0.48121191  0.92217240  1
  O  O596  1  0.91259949  0.81615063  0.17233347  1
  O  O597  1  0.91483250  0.81462446  0.42265829  1
  O  O598  1  0.91282608  0.81517407  0.67265626  1
  O  O599  1  0.91404490  0.81470198  0.92264814  1
  O  O600  1  0.08909558  0.18477902  0.07682439  1
  O  O601  1  0.08930844  0.18536923  0.32729909  1
  O  O602  1  0.08823602  0.18446817  0.57758537  1
  O  O603  1  0.08786299  0.18356465  0.82750706  1
  O  O604  1  0.08946039  0.51857466  0.07649819  1
  O  O605  1  0.08936751  0.51882780  0.32724444  1
  O  O606  1  0.08586469  0.51756968  0.57806712  1
  O  O607  1  0.08784354  0.51919220  0.82770612  1
  O  O608  1  0.08666021  0.85197510  0.07733107  1
  O  O609  1  0.08823856  0.85056987  0.32722788  1
  O  O610  1  0.08757902  0.85250279  0.57828228  1
  O  O611  1  0.08877334  0.85186022  0.82736345  1
  O  O612  1  0.58719076  0.18554739  0.07667522  1
  O  O613  1  0.58676972  0.18424465  0.32720247  1
  O  O614  1  0.58627354  0.18440066  0.57821622  1
  O  O615  1  0.58583115  0.18397720  0.82666167  1
  O  O616  1  0.58619931  0.51862564  0.07748533  1
  O  O617  1  0.58882899  0.51848633  0.32735587  1
  O  O618  1  0.58671632  0.51816406  0.57732918  1
  O  O619  1  0.58520377  0.51899793  0.82739314  1
  O  O620  1  0.58854536  0.85028245  0.07797993  1
  O  O621  1  0.58853742  0.85244841  0.32690580  1
  O  O622  1  0.58709492  0.85191002  0.57817358  1
  O  O623  1  0.58646482  0.85236484  0.82810261  1
  O  O624  1  0.33657777  0.18471420  0.04646515  1
  O  O625  1  0.33496819  0.18481584  0.29763448  1
  O  O626  1  0.33676007  0.18440101  0.54850284  1
  O  O627  1  0.33726112  0.18415183  0.79720634  1
  O  O628  1  0.33764285  0.51727348  0.04733641  1
  O  O629  1  0.33671072  0.51905575  0.29738264  1
  O  O630  1  0.33828948  0.51915953  0.54831416  1
  O  O631  1  0.34000841  0.51926585  0.79719975  1
  O  O632  1  0.33856255  0.85267387  0.04692568  1
  O  O633  1  0.33572041  0.85087122  0.29707118  1
  O  O634  1  0.33756031  0.85137431  0.54724334  1
  O  O635  1  0.33749389  0.85217437  0.79848170  1
  O  O636  1  0.83820570  0.18309179  0.04530710  1
  O  O637  1  0.83780569  0.18440538  0.29681768  1
  O  O638  1  0.83901325  0.18453516  0.54857429  1
  O  O639  1  0.83775642  0.18531367  0.79791885  1
  O  O640  1  0.83760230  0.51893802  0.04713060  1
  O  O641  1  0.83476722  0.51830210  0.29791740  1
  O  O642  1  0.83661870  0.51832367  0.54903945  1
  O  O643  1  0.83876662  0.51795795  0.79797560  1
  O  O644  1  0.83646308  0.85274278  0.04800883  1
  O  O645  1  0.83620200  0.85167900  0.29761017  1
  O  O646  1  0.83896089  0.85202010  0.54873666  1
  O  O647  1  0.83725648  0.85181254  0.79768092  1
  O  O648  1  0.16179286  0.14779489  0.20279086  1
  O  O649  1  0.16301589  0.14899658  0.45390873  1
  O  O650  1  0.16233119  0.14795885  0.70264253  1
  O  O651  1  0.16311322  0.14889917  0.95146967  1
  O  O652  1  0.16196371  0.48203582  0.20325133  1
  O  O653  1  0.16048240  0.48065665  0.45283772  1
  O  O654  1  0.16184063  0.48086999  0.70179780  1
  O  O655  1  0.16499550  0.48237527  0.95192906  1
  O  O656  1  0.16341432  0.81563205  0.20270580  1
  O  O657  1  0.16349961  0.81449255  0.45205582  1
  O  O658  1  0.16401701  0.81626841  0.70353616  1
  O  O659  1  0.16178549  0.81380466  0.95156756  1
  O  O660  1  0.66424387  0.14785633  0.20190910  1
  O  O661  1  0.66443322  0.14850016  0.45303989  1
  O  O662  1  0.66086638  0.14984183  0.70250080  1
  O  O663  1  0.66262004  0.14689783  0.95047295  1
  O  O664  1  0.66160442  0.48275070  0.20181136  1
  O  O665  1  0.66213771  0.48254371  0.45423032  1
  O  O666  1  0.66101680  0.48041400  0.70219522  1
  O  O667  1  0.66190577  0.48181191  0.95181287  1
  O  O668  1  0.66109852  0.81492141  0.20225413  1
  O  O669  1  0.66152025  0.81427446  0.45362202  1
  O  O670  1  0.66021371  0.81473330  0.70229165  1
  O  O671  1  0.66047000  0.81663987  0.95256673  1
