# generated using pymatgen
data_Na2MnFe(PO4)2
_symmetry_space_group_name_H-M   'P 1'
_cell_length_a   21.08894890
_cell_length_b   18.94135350
_cell_length_c   20.04730182
_cell_angle_alpha   90.00048348
_cell_angle_beta   90.00607702
_cell_angle_gamma   89.99981000
_symmetry_Int_Tables_number   1
_chemical_formula_structural   Na2MnFe(PO4)2
_chemical_formula_sum   'Na96 Mn48 Fe48 P96 O384'
_cell_volume   8007.95954417
_cell_formula_units_Z   48
loop_
 _symmetry_equiv_pos_site_id
 _symmetry_equiv_pos_as_xyz
  1  'x, y, z'
loop_
 _atom_site_type_symbol
 _atom_site_label
 _atom_site_symmetry_multiplicity
 _atom_site_fract_x
 _atom_site_fract_y
 _atom_site_fract_z
 _atom_site_occupancy
  Na  Na0  1  0.00009032  0.00018348  0.00068369  1
  Na  Na1  1  -0.00169545  0.00016092  0.25007024  1
  Na  Na2  1  -0.00020370  0.00046447  0.49922923  1
  Na  Na3  1  0.00060322  -0.00007828  0.75025058  1
  Na  Na4  1  0.00136697  0.33440085  -0.00088255  1
  Na  Na5  1  -0.00034818  0.33301049  0.25059825  1
  Na  Na6  1  0.00117122  0.33414398  0.50048656  1
  Na  Na7  1  -0.00027346  0.33326654  0.75047522  1
  Na  Na8  1  0.00014676  0.66691808  0.00033273  1
  Na  Na9  1  0.00027279  0.66617163  0.25020839  1
  Na  Na10  1  0.00160695  0.66645457  0.49981038  1
  Na  Na11  1  0.00135115  0.66681478  0.74952430  1
  Na  Na12  1  0.50180811  0.00016740  -0.00036705  1
  Na  Na13  1  0.50275320  0.00044750  0.24929541  1
  Na  Na14  1  0.50029558  -0.00013048  0.50000189  1
  Na  Na15  1  0.49850075  -0.00098556  0.75120417  1
  Na  Na16  1  0.49883050  0.33370520  0.00008848  1
  Na  Na17  1  0.49955924  0.33339815  0.25067942  1
  Na  Na18  1  0.49891432  0.33315911  0.49886989  1
  Na  Na19  1  0.49924091  0.33429240  0.74930323  1
  Na  Na20  1  0.49844023  0.66606503  0.00043810  1
  Na  Na21  1  0.49732607  0.66650454  0.24950768  1
  Na  Na22  1  0.49932851  0.66728754  0.50047747  1
  Na  Na23  1  0.50025581  0.66678498  0.75002742  1
  Na  Na24  1  0.24874434  -0.00009840  0.12581580  1
  Na  Na25  1  0.24695357  -0.00152678  0.37556938  1
  Na  Na26  1  0.25061776  0.00054899  0.62461872  1
  Na  Na27  1  0.24907894  -0.00036460  0.87454059  1
  Na  Na28  1  0.25267723  0.33341338  0.12543466  1
  Na  Na29  1  0.25326273  0.33435196  0.37510887  1
  Na  Na30  1  0.24998075  0.33272525  0.62411812  1
  Na  Na31  1  0.25258862  0.33367653  0.87479437  1
  Na  Na32  1  0.25011493  0.66656751  0.12351131  1
  Na  Na33  1  0.25000608  0.66676946  0.37507314  1
  Na  Na34  1  0.24893111  0.66607126  0.62535207  1
  Na  Na35  1  0.24960603  0.66645898  0.87566236  1
  Na  Na36  1  0.75009397  -0.00019560  0.12587919  1
  Na  Na37  1  0.75135325  0.00089162  0.37551712  1
  Na  Na38  1  0.75214051  0.00076416  0.62449136  1
  Na  Na39  1  0.75024184  -0.00114394  0.87350774  1
  Na  Na40  1  0.74730534  0.33290446  0.12444549  1
  Na  Na41  1  0.74817390  0.33314374  0.37509321  1
  Na  Na42  1  0.74926474  0.33443388  0.62571085  1
  Na  Na43  1  0.74877750  0.33466101  0.87542772  1
  Na  Na44  1  0.75173173  0.66728605  0.12572613  1
  Na  Na45  1  0.75137588  0.66716801  0.37554790  1
  Na  Na46  1  0.74897537  0.66613142  0.62416279  1
  Na  Na47  1  0.74991714  0.66639759  0.87475422  1
  Na  Na48  1  -0.00030424  0.16719999  0.00041022  1
  Na  Na49  1  -0.00009889  0.16660542  0.24980357  1
  Na  Na50  1  0.00208798  0.16600208  0.49917600  1
  Na  Na51  1  0.00162249  0.16641734  0.74997860  1
  Na  Na52  1  -0.00114738  0.50114819  0.00002373  1
  Na  Na53  1  -0.00005880  0.50036933  0.25104481  1
  Na  Na54  1  0.00089089  0.49992053  0.50065944  1
  Na  Na55  1  0.00169853  0.49903017  0.74938490  1
  Na  Na56  1  0.00098168  0.83199661  -0.00048005  1
  Na  Na57  1  -0.00129950  0.83345280  0.25018395  1
  Na  Na58  1  -0.00134872  0.83376795  0.49944731  1
  Na  Na59  1  -0.00142919  0.83365040  0.75101892  1
  Na  Na60  1  0.49776849  0.16769957  0.00033318  1
  Na  Na61  1  0.49952225  0.16765411  0.25051386  1
  Na  Na62  1  0.50202077  0.16588722  0.50040057  1
  Na  Na63  1  0.49757526  0.16764356  0.74972816  1
  Na  Na64  1  0.50110543  0.49939433  -0.00081454  1
  Na  Na65  1  0.49918489  0.50003281  0.24933728  1
  Na  Na66  1  0.49804323  0.50037971  0.50041586  1
  Na  Na67  1  0.50059311  0.49951675  0.74983725  1
  Na  Na68  1  0.50000071  0.83334353  0.00083391  1
  Na  Na69  1  0.49999168  0.83306641  0.24949546  1
  Na  Na70  1  0.49847651  0.83357754  0.49862133  1
  Na  Na71  1  0.49977329  0.83314743  0.75089682  1
  Na  Na72  1  0.25071533  0.16701632  0.12598435  1
  Na  Na73  1  0.24896510  0.16669999  0.37469679  1
  Na  Na74  1  0.24924763  0.16697706  0.62361795  1
  Na  Na75  1  0.25157193  0.16645483  0.87518957  1
  Na  Na76  1  0.25198954  0.49988955  0.12400228  1
  Na  Na77  1  0.25075430  0.50010596  0.37586226  1
  Na  Na78  1  0.24978546  0.50020102  0.62409818  1
  Na  Na79  1  0.25180146  0.49894713  0.87521630  1
  Na  Na80  1  0.24873529  0.83294137  0.12486123  1
  Na  Na81  1  0.25210232  0.83186310  0.37495453  1
  Na  Na82  1  0.25004496  0.83327372  0.62643692  1
  Na  Na83  1  0.24920002  0.83325856  0.87452436  1
  Na  Na84  1  0.75137254  0.16551738  0.12567161  1
  Na  Na85  1  0.74886212  0.16723968  0.37508529  1
  Na  Na86  1  0.74906031  0.16749115  0.62523659  1
  Na  Na87  1  0.75154389  0.16618419  0.87455764  1
  Na  Na88  1  0.74795003  0.50059333  0.12493630  1
  Na  Na89  1  0.75113524  0.49893615  0.37465447  1
  Na  Na90  1  0.74856211  0.49988923  0.62547077  1
  Na  Na91  1  0.74738236  0.50059269  0.87558068  1
  Na  Na92  1  0.75051429  0.83325621  0.12523769  1
  Na  Na93  1  0.75069346  0.83349592  0.37648741  1
  Na  Na94  1  0.75153220  0.83309485  0.62411764  1
  Na  Na95  1  0.75093122  0.83252109  0.87351612  1
  Mn  Mn96  1  0.89182854  0.91611281  0.12716568  1
  Mn  Mn97  1  0.64156058  0.25036719  0.74798680  1
  Mn  Mn98  1  0.89188951  0.58329739  0.87649897  1
  Mn  Mn99  1  0.60859740  0.08391822  0.12231685  1
  Mn  Mn100  1  0.60822207  0.74932096  0.12278468  1
  Mn  Mn101  1  0.14324643  0.25123739  0.24776816  1
  Mn  Mn102  1  0.35782080  0.74956456  0.75278827  1
  Mn  Mn103  1  0.39226071  0.91737147  0.37703894  1
  Mn  Mn104  1  0.35727642  0.08259905  0.50161898  1
  Mn  Mn105  1  0.10881413  0.41723442  0.87262698  1
  Mn  Mn106  1  0.89288051  0.58334499  0.62761584  1
  Mn  Mn107  1  0.39212771  0.58385878  0.62770787  1
  Mn  Mn108  1  0.64257768  0.91595144  0.74689132  1
  Mn  Mn109  1  0.85674447  0.41686688  0.00259800  1
  Mn  Mn110  1  0.85699240  0.41626330  0.25177069  1
  Mn  Mn111  1  0.35801059  0.08260169  0.25316393  1
  Mn  Mn112  1  0.89280300  0.58297162  0.37737938  1
  Mn  Mn113  1  0.60690876  0.75016636  0.37249974  1
  Mn  Mn114  1  0.14234547  0.91673023  0.74698380  1
  Mn  Mn115  1  0.35767076  0.08253516  0.00277791  1
  Mn  Mn116  1  0.89279898  0.24993780  0.62677111  1
  Mn  Mn117  1  0.89242004  0.91649266  0.87761492  1
  Mn  Mn118  1  0.64184193  0.58392962  0.24810597  1
  Mn  Mn119  1  0.14251653  0.58260270  0.99737465  1
  Mn  Mn120  1  0.14140651  0.91539386  0.24763085  1
  Mn  Mn121  1  0.39209350  0.58313203  0.12721063  1
  Mn  Mn122  1  0.64256215  0.91753296  0.49818245  1
  Mn  Mn123  1  0.10723430  0.08317135  0.12290849  1
  Mn  Mn124  1  0.10773769  0.75025063  0.62255279  1
  Mn  Mn125  1  0.85799930  0.74952243  0.50297046  1
  Mn  Mn126  1  0.10860427  0.41611567  0.37261836  1
  Mn  Mn127  1  0.10814390  0.75077298  0.37260340  1
  Mn  Mn128  1  0.64173008  0.58281335  0.49718234  1
  Mn  Mn129  1  0.10878903  0.41699653  0.12301065  1
  Mn  Mn130  1  0.39222083  0.91731799  0.12705056  1
  Mn  Mn131  1  0.60804227  0.74941544  0.87333897  1
  Mn  Mn132  1  0.89195701  0.25132432  0.12696874  1
  Mn  Mn133  1  0.60671004  0.41699559  0.37301096  1
  Mn  Mn134  1  0.64146360  0.24941801  0.99705523  1
  Mn  Mn135  1  0.89220483  0.25028225  0.87742554  1
  Mn  Mn136  1  0.89158128  0.25016659  0.37758970  1
  Mn  Mn137  1  0.14313607  0.25064509  0.74777581  1
  Mn  Mn138  1  0.39217062  0.24904615  0.62653786  1
  Mn  Mn139  1  0.39200006  0.91636205  0.87817373  1
  Mn  Mn140  1  0.85887062  0.08400114  0.75196956  1
  Mn  Mn141  1  0.60773247  0.08425560  0.87271619  1
  Mn  Mn142  1  0.10827091  0.08328977  0.87322497  1
  Mn  Mn143  1  0.60747220  0.08297436  0.62308207  1
  Fe  Fe144  1  0.85773817  0.75039135  0.25182306  1
  Fe  Fe145  1  0.10805423  0.41591456  0.62320469  1
  Fe  Fe146  1  0.14229748  0.91629605  0.49849786  1
  Fe  Fe147  1  0.39291228  0.24966235  0.12718950  1
  Fe  Fe148  1  0.64374391  0.91652156  0.24893402  1
  Fe  Fe149  1  0.14224348  0.91687335  0.99863287  1
  Fe  Fe150  1  0.64266472  0.25022553  0.49863369  1
  Fe  Fe151  1  0.35632935  0.75028516  0.00150867  1
  Fe  Fe152  1  0.60691640  0.41688679  0.62283093  1
  Fe  Fe153  1  0.64269764  0.58451709  0.99840454  1
  Fe  Fe154  1  0.85752267  0.08483367  0.50189325  1
  Fe  Fe155  1  0.60600864  0.41663234  0.87317651  1
  Fe  Fe156  1  0.39358222  0.24952452  0.37706630  1
  Fe  Fe157  1  0.89357965  0.91701122  0.62605786  1
  Fe  Fe158  1  0.14345573  0.58305266  0.24826475  1
  Fe  Fe159  1  0.89243781  0.58317873  0.12676198  1
  Fe  Fe160  1  0.85707905  0.74870179  0.75130141  1
  Fe  Fe161  1  0.10622825  0.08325640  0.37318503  1
  Fe  Fe162  1  0.60709903  0.75020984  0.62332288  1
  Fe  Fe163  1  0.85669325  0.41749714  0.75158885  1
  Fe  Fe164  1  0.35669974  0.74980036  0.25098700  1
  Fe  Fe165  1  0.64195705  0.24958435  0.24815506  1
  Fe  Fe166  1  0.39222664  0.25045155  0.87690332  1
  Fe  Fe167  1  0.60628895  0.41668664  0.12352604  1
  Fe  Fe168  1  0.35724084  0.08361796  0.75142302  1
  Fe  Fe169  1  0.35696804  0.75014634  0.50205027  1
  Fe  Fe170  1  0.14394023  0.24987376  0.99890881  1
  Fe  Fe171  1  0.85774433  0.74981886  0.00166526  1
  Fe  Fe172  1  0.85666845  0.08327770  0.25225153  1
  Fe  Fe173  1  0.35815259  0.41763147  0.25199289  1
  Fe  Fe174  1  0.14338781  0.58259663  0.74878632  1
  Fe  Fe175  1  0.85731296  0.08289720  0.00136517  1
  Fe  Fe176  1  0.10817256  0.08343017  0.62278556  1
  Fe  Fe177  1  0.14367604  0.58347900  0.49825221  1
  Fe  Fe178  1  0.64203651  0.58378209  0.74849614  1
  Fe  Fe179  1  0.64348202  0.91596351  0.99869631  1
  Fe  Fe180  1  0.39285341  0.58312691  0.87620765  1
  Fe  Fe181  1  0.39129730  0.58350964  0.37670230  1
  Fe  Fe182  1  0.89234214  0.91698990  0.37685706  1
  Fe  Fe183  1  0.60824970  0.08323220  0.37365534  1
  Fe  Fe184  1  0.39206286  0.91644379  0.62611795  1
  Fe  Fe185  1  0.14293124  0.24997413  0.49765705  1
  Fe  Fe186  1  0.10701847  0.74950429  0.12329995  1
  Fe  Fe187  1  0.10720189  0.74962548  0.87349591  1
  Fe  Fe188  1  0.35671390  0.41694393  0.50190421  1
  Fe  Fe189  1  0.35768796  0.41645125  0.75110981  1
  Fe  Fe190  1  0.85721448  0.41601993  0.50231849  1
  Fe  Fe191  1  0.35819208  0.41680307  0.00174661  1
  P  P192  1  0.05422536  0.25057710  0.10925913  1
  P  P193  1  0.05449948  0.24935731  0.36089550  1
  P  P194  1  0.05481600  0.25027926  0.60943250  1
  P  P195  1  0.05500710  0.25021391  0.86104900  1
  P  P196  1  0.05368422  0.58393199  0.11129617  1
  P  P197  1  0.05613600  0.58327045  0.36053570  1
  P  P198  1  0.05598119  0.58209928  0.61066488  1
  P  P199  1  0.05417427  0.58406184  0.85921747  1
  P  P200  1  0.05337875  0.91537920  0.10961618  1
  P  P201  1  0.05287957  0.91743653  0.36108727  1
  P  P202  1  0.05293110  0.91713588  0.60922177  1
  P  P203  1  0.05502657  0.91590469  0.86128086  1
  P  P204  1  0.55314193  0.25075543  0.11109342  1
  P  P205  1  0.55443149  0.24944130  0.36099747  1
  P  P206  1  0.55382863  0.25113062  0.60933389  1
  P  P207  1  0.55130729  0.25103898  0.85993129  1
  P  P208  1  0.55374174  0.58274852  0.10943064  1
  P  P209  1  0.55077776  0.58343315  0.35992024  1
  P  P210  1  0.55450531  0.58347252  0.61124817  1
  P  P211  1  0.55375317  0.58291016  0.86074615  1
  P  P212  1  0.55571196  0.91639952  0.11045334  1
  P  P213  1  0.55421965  0.91740620  0.35930228  1
  P  P214  1  0.55177383  0.91565263  0.60996193  1
  P  P215  1  0.55501839  0.91620561  0.86131184  1
  P  P216  1  0.44699093  0.08368399  0.14030620  1
  P  P217  1  0.44850327  0.08392651  0.39008695  1
  P  P218  1  0.44579792  0.08205461  0.64038809  1
  P  P219  1  0.44538920  0.08412570  0.88915937  1
  P  P220  1  0.44577096  0.41607758  0.13933525  1
  P  P221  1  0.44395721  0.41701590  0.38934981  1
  P  P222  1  0.44563918  0.41664982  0.63899759  1
  P  P223  1  0.44533271  0.41708107  0.88880776  1
  P  P224  1  0.44477720  0.75033990  0.13928811  1
  P  P225  1  0.44393477  0.74924967  0.38919702  1
  P  P226  1  0.44636626  0.75089919  0.63901897  1
  P  P227  1  0.44593377  0.74893982  0.89105071  1
  P  P228  1  0.94420920  0.08353934  0.13971921  1
  P  P229  1  0.94511241  0.08313200  0.38928206  1
  P  P230  1  0.94766853  0.08326484  0.63849353  1
  P  P231  1  0.94648675  0.08332165  0.89100707  1
  P  P232  1  0.94706255  0.41777197  0.14023369  1
  P  P233  1  0.94617693  0.41645561  0.39117066  1
  P  P234  1  0.94656015  0.41636648  0.63967481  1
  P  P235  1  0.94568555  0.41737353  0.88905355  1
  P  P236  1  0.94573025  0.74899385  0.13943835  1
  P  P237  1  0.94550774  0.75039648  0.38895697  1
  P  P238  1  0.94642693  0.75058382  0.64060918  1
  P  P239  1  0.94604240  0.74919100  0.88945961  1
  P  P240  1  0.19524543  0.08333691  0.23644376  1
  P  P241  1  0.19425367  0.08283880  0.48533761  1
  P  P242  1  0.19741946  0.08376851  0.73415662  1
  P  P243  1  0.19669158  0.08374148  0.98561543  1
  P  P244  1  0.19911796  0.41778011  0.23516324  1
  P  P245  1  0.19665260  0.41646754  0.48620694  1
  P  P246  1  0.19801924  0.41730962  0.73436294  1
  P  P247  1  0.19870455  0.41545277  0.98525319  1
  P  P248  1  0.19691532  0.74857956  0.23429554  1
  P  P249  1  0.19749331  0.75051173  0.48549802  1
  P  P250  1  0.19553280  0.74872641  0.73649222  1
  P  P251  1  0.19535309  0.75044258  0.98563676  1
  P  P252  1  0.69629619  0.08304063  0.23679696  1
  P  P253  1  0.69719968  0.08431949  0.48496865  1
  P  P254  1  0.69712564  0.08326573  0.73474950  1
  P  P255  1  0.69806707  0.08226446  0.98467612  1
  P  P256  1  0.69490953  0.41606963  0.23451072  1
  P  P257  1  0.69621157  0.41598425  0.48608531  1
  P  P258  1  0.69476203  0.41779904  0.73593663  1
  P  P259  1  0.69349132  0.41785224  0.98581946  1
  P  P260  1  0.69798182  0.75094651  0.23570815  1
  P  P261  1  0.69528312  0.75019570  0.48602479  1
  P  P262  1  0.69700904  0.74895073  0.73411754  1
  P  P263  1  0.69830989  0.74980898  0.98526553  1
  P  P264  1  0.30495124  0.25062338  0.01477662  1
  P  P265  1  0.30613003  0.25060697  0.26488983  1
  P  P266  1  0.30360912  0.24987948  0.51306626  1
  P  P267  1  0.30454714  0.24997092  0.76480537  1
  P  P268  1  0.30508782  0.58335659  0.01306351  1
  P  P269  1  0.30302358  0.58373862  0.26509854  1
  P  P270  1  0.30371789  0.58379876  0.51390426  1
  P  P271  1  0.30310034  0.58231952  0.76553807  1
  P  P272  1  0.30154644  0.91574837  0.01513594  1
  P  P273  1  0.30281080  0.91568925  0.26500745  1
  P  P274  1  0.30240320  0.91586609  0.51539581  1
  P  P275  1  0.30470186  0.91751952  0.76388397  1
  P  P276  1  0.80263406  0.24953613  0.01498299  1
  P  P277  1  0.80161149  0.24978175  0.26493072  1
  P  P278  1  0.80213288  0.25031254  0.51512771  1
  P  P279  1  0.80337454  0.25173413  0.76485602  1
  P  P280  1  0.80279291  0.58393030  0.01540655  1
  P  P281  1  0.80441285  0.58390021  0.26405617  1
  P  P282  1  0.80351968  0.58187201  0.51521029  1
  P  P283  1  0.80190395  0.58299855  0.76447445  1
  P  P284  1  0.80264511  0.91625803  0.01463242  1
  P  P285  1  0.80340559  0.91647766  0.26575899  1
  P  P286  1  0.80575882  0.91815733  0.51439356  1
  P  P287  1  0.80560110  0.91553999  0.76291799  1
  O  O288  1  0.05751643  0.25066240  0.18608509  1
  O  O289  1  0.05910583  0.25050979  0.43759657  1
  O  O290  1  0.05754312  0.25044118  0.68625187  1
  O  O291  1  0.05979206  0.25045680  0.93770888  1
  O  O292  1  0.05883579  0.58295860  0.18793028  1
  O  O293  1  0.06086175  0.58330746  0.43732443  1
  O  O294  1  0.06001450  0.58262359  0.68739147  1
  O  O295  1  0.05702247  0.58318992  0.93606203  1
  O  O296  1  0.05586827  0.91623554  0.18644810  1
  O  O297  1  0.05786860  0.91622964  0.43768855  1
  O  O298  1  0.05645960  0.91645275  0.68599451  1
  O  O299  1  0.05909173  0.91655962  0.93802120  1
  O  O300  1  0.55798281  0.24984807  0.18778165  1
  O  O301  1  0.55918120  0.24995030  0.43767380  1
  O  O302  1  0.55633460  0.25079000  0.68612273  1
  O  O303  1  0.55510555  0.25014041  0.93665028  1
  O  O304  1  0.55658257  0.58402507  0.18622232  1
  O  O305  1  0.55499396  0.58345510  0.43661920  1
  O  O306  1  0.55829242  0.58353645  0.68801661  1
  O  O307  1  0.55841435  0.58424479  0.93738324  1
  O  O308  1  0.56035129  0.91614123  0.18716773  1
  O  O309  1  0.55710227  0.91671757  0.43609423  1
  O  O310  1  0.55554686  0.91599527  0.68669234  1
  O  O311  1  0.56007934  0.91602383  0.93804673  1
  O  O312  1  0.44348869  0.08268265  0.06352710  1
  O  O313  1  0.44461460  0.08325482  0.31344427  1
  O  O314  1  0.44290316  0.08283327  0.56358682  1
  O  O315  1  0.44126114  0.08328325  0.81244820  1
  O  O316  1  0.44158826  0.41692955  0.06259264  1
  O  O317  1  0.44076060  0.41746142  0.31246068  1
  O  O318  1  0.44032868  0.41681553  0.56231925  1
  O  O319  1  0.44119035  0.41722929  0.81207461  1
  O  O320  1  0.44013948  0.75056170  0.06260935  1
  O  O321  1  0.43990700  0.74977217  0.31242886  1
  O  O322  1  0.44126693  0.75027598  0.56235143  1
  O  O323  1  0.44308808  0.74971553  0.81419164  1
  O  O324  1  0.93990820  0.08324771  0.06296190  1
  O  O325  1  0.94014824  0.08408698  0.31255152  1
  O  O326  1  0.94255849  0.08440913  0.56187589  1
  O  O327  1  0.94367339  0.08329952  0.81413527  1
  O  O328  1  0.94357034  0.41720868  0.06348166  1
  O  O329  1  0.94226576  0.41621890  0.31442860  1
  O  O330  1  0.94131188  0.41652437  0.56302656  1
  O  O331  1  0.94086852  0.41734006  0.81234553  1
  O  O332  1  0.94107391  0.74974269  0.06268962  1
  O  O333  1  0.94151257  0.74978745  0.31218226  1
  O  O334  1  0.94354307  0.74921514  0.56377757  1
  O  O335  1  0.94096350  0.74885668  0.81283669  1
  O  O336  1  0.19377296  0.08383329  0.06239136  1
  O  O337  1  0.19057578  0.08308031  0.31316594  1
  O  O338  1  0.19091742  0.08301404  0.56218777  1
  O  O339  1  0.19360388  0.08349391  0.81085944  1
  O  O340  1  0.19497025  0.41635129  0.06191265  1
  O  O341  1  0.19519062  0.41691442  0.31181992  1
  O  O342  1  0.19230040  0.41608942  0.56284974  1
  O  O343  1  0.19463342  0.41650207  0.81108508  1
  O  O344  1  0.19085842  0.74960397  0.06233163  1
  O  O345  1  0.19364256  0.74978978  0.31103539  1
  O  O346  1  0.19387495  0.75061300  0.56218275  1
  O  O347  1  0.19149676  0.74962348  0.81318596  1
  O  O348  1  0.69456508  0.08331256  0.06145384  1
  O  O349  1  0.69189870  0.08352223  0.31345207  1
  O  O350  1  0.69333097  0.08329006  0.56165300  1
  O  O351  1  0.69356034  0.08311590  0.81149366  1
  O  O352  1  0.68943542  0.41666459  0.06255067  1
  O  O353  1  0.69217242  0.41690696  0.31133914  1
  O  O354  1  0.69133385  0.41690495  0.56273300  1
  O  O355  1  0.68984718  0.41692600  0.81264631  1
  O  O356  1  0.69476487  0.74972959  0.06192662  1
  O  O357  1  0.69389549  0.74998500  0.31236867  1
  O  O358  1  0.69059049  0.75028273  0.56272450  1
  O  O359  1  0.69337567  0.74963518  0.81083504  1
  O  O360  1  0.30997306  0.24954177  0.18805688  1
  O  O361  1  0.30874665  0.24900194  0.43647434  1
  O  O362  1  0.30686003  0.24992638  0.68797990  1
  O  O363  1  0.30916096  0.25006428  0.93801206  1
  O  O364  1  0.30630883  0.58339468  0.18829074  1
  O  O365  1  0.30771980  0.58374298  0.43724714  1
  O  O366  1  0.30637313  0.58333254  0.68873039  1
  O  O367  1  0.30890465  0.58316395  0.93640231  1
  O  O368  1  0.30604123  0.91696411  0.18830908  1
  O  O369  1  0.30620505  0.91666481  0.43870431  1
  O  O370  1  0.30872587  0.91667133  0.68715701  1
  O  O371  1  0.30538072  0.91640301  0.93842735  1
  O  O372  1  0.80564827  0.25045551  0.18830708  1
  O  O373  1  0.80542439  0.25034168  0.43844771  1
  O  O374  1  0.80663248  0.25111090  0.68811360  1
  O  O375  1  0.80594129  0.25072104  0.93823260  1
  O  O376  1  0.80835825  0.58322181  0.18732326  1
  O  O377  1  0.80688994  0.58258163  0.43845342  1
  O  O378  1  0.80589577  0.58283931  0.68786580  1
  O  O379  1  0.80626752  0.58315134  0.93870039  1
  O  O380  1  0.80647427  0.91632794  0.18896963  1
  O  O381  1  0.80931248  0.91718336  0.43761676  1
  O  O382  1  0.80993740  0.91674835  0.68619232  1
  O  O383  1  0.80598886  0.91605960  0.93791181  1
  O  O384  1  0.23478384  0.25013181  0.03903991  1
  O  O385  1  0.23606235  0.25042994  0.28897539  1
  O  O386  1  0.23322953  0.24966139  0.53662185  1
  O  O387  1  0.23497474  0.25017249  0.79037046  1
  O  O388  1  0.23514762  0.58317621  0.03765041  1
  O  O389  1  0.23312870  0.58347612  0.29008441  1
  O  O390  1  0.23349655  0.58364058  0.53810458  1
  O  O391  1  0.23319044  0.58264091  0.79039226  1
  O  O392  1  0.23154242  0.91636141  0.03974809  1
  O  O393  1  0.23311089  0.91522559  0.29008616  1
  O  O394  1  0.23232941  0.91670999  0.53990085  1
  O  O395  1  0.23468698  0.91663649  0.78804725  1
  O  O396  1  0.73289069  0.24943988  0.03996172  1
  O  O397  1  0.73147751  0.25004384  0.28924947  1
  O  O398  1  0.73225532  0.25027183  0.54019250  1
  O  O399  1  0.73369162  0.25084009  0.79005597  1
  O  O400  1  0.73267212  0.58384983  0.03986442  1
  O  O401  1  0.73448009  0.58341856  0.28876145  1
  O  O402  1  0.73372367  0.58264863  0.53986401  1
  O  O403  1  0.73190755  0.58326098  0.78919546  1
  O  O404  1  0.73285421  0.91617537  0.03996598  1
  O  O405  1  0.73346928  0.91677469  0.29075752  1
  O  O406  1  0.73574456  0.91735327  0.53875328  1
  O  O407  1  0.73556417  0.91556060  0.78703209  1
  O  O408  1  0.26534738  0.08337829  0.21263020  1
  O  O409  1  0.26425278  0.08257261  0.46075937  1
  O  O410  1  0.26749090  0.08407509  0.70979804  1
  O  O411  1  0.26625503  0.08301416  0.96011190  1
  O  O412  1  0.26921593  0.41743501  0.21076982  1
  O  O413  1  0.26697901  0.41686663  0.46225815  1
  O  O414  1  0.26807034  0.41659242  0.70968868  1
  O  O415  1  0.26875028  0.41626474  0.96076578  1
  O  O416  1  0.26689631  0.74946156  0.20960026  1
  O  O417  1  0.26746338  0.74995875  0.46078414  1
  O  O418  1  0.26553238  0.74922266  0.71215846  1
  O  O419  1  0.26570298  0.74969663  0.96177402  1
  O  O420  1  0.76659928  0.08276367  0.21281031  1
  O  O421  1  0.76731909  0.08416026  0.46067659  1
  O  O422  1  0.76689653  0.08388820  0.71000795  1
  O  O423  1  0.76798013  0.08256480  0.95973955  1
  O  O424  1  0.76456562  0.41660947  0.20924454  1
  O  O425  1  0.76641578  0.41602090  0.46210506  1
  O  O426  1  0.76518547  0.41753706  0.71239573  1
  O  O427  1  0.76361999  0.41745612  0.96185918  1
  O  O428  1  0.76804258  0.75071623  0.21124201  1
  O  O429  1  0.76551813  0.75002974  0.46261851  1
  O  O430  1  0.76711367  0.74927616  0.70965923  1
  O  O431  1  0.76824954  0.74943129  0.96024976  1
  O  O432  1  0.01436272  0.08330006  0.16350408  1
  O  O433  1  0.01557071  0.08344597  0.41254323  1
  O  O434  1  0.01801955  0.08349120  0.66233759  1
  O  O435  1  0.01616452  0.08344968  0.91598145  1
  O  O436  1  0.01671575  0.41694651  0.16549904  1
  O  O437  1  0.01623039  0.41689817  0.41512329  1
  O  O438  1  0.01715295  0.41600975  0.66270218  1
  O  O439  1  0.01584658  0.41790805  0.91280806  1
  O  O440  1  0.01604108  0.74967556  0.16328956  1
  O  O441  1  0.01547693  0.75005939  0.41336957  1
  O  O442  1  0.01620183  0.75025894  0.66544812  1
  O  O443  1  0.01643064  0.74935611  0.91292308  1
  O  O444  1  0.51676724  0.08389379  0.16496745  1
  O  O445  1  0.51851509  0.08323517  0.41468523  1
  O  O446  1  0.51545478  0.08319219  0.66568820  1
  O  O447  1  0.51528115  0.08388922  0.91384503  1
  O  O448  1  0.51598319  0.41691918  0.16344301  1
  O  O449  1  0.51390932  0.41680870  0.41394438  1
  O  O450  1  0.51607467  0.41678686  0.66217710  1
  O  O451  1  0.51562058  0.41678062  0.91290180  1
  O  O452  1  0.51495854  0.74962656  0.16300968  1
  O  O453  1  0.51402563  0.75035771  0.41326830  1
  O  O454  1  0.51659885  0.75008203  0.66300224  1
  O  O455  1  0.51567430  0.74968989  0.91601168  1
  O  O456  1  0.48284824  0.25037093  0.08729958  1
  O  O457  1  0.48396455  0.25048168  0.33760053  1
  O  O458  1  0.48413709  0.25003063  0.58408547  1
  O  O459  1  0.48135483  0.25130880  0.83526560  1
  O  O460  1  0.48392942  0.58294040  0.08461732  1
  O  O461  1  0.48076364  0.58309692  0.33553863  1
  O  O462  1  0.48447189  0.58342585  0.58683391  1
  O  O463  1  0.48342124  0.58320361  0.83681486  1
  O  O464  1  0.48552684  0.91675777  0.08669934  1
  O  O465  1  0.48447497  0.91689719  0.33422602  1
  O  O466  1  0.48187658  0.91644204  0.58498247  1
  O  O467  1  0.48474753  0.91584829  0.83808267  1
  O  O468  1  0.98441205  0.25093482  0.08455920  1
  O  O469  1  0.98441704  0.24964161  0.33692266  1
  O  O470  1  0.98513907  0.25023813  0.58411098  1
  O  O471  1  0.98499287  0.24984870  0.83692338  1
  O  O472  1  0.98343245  0.58401354  0.08735716  1
  O  O473  1  0.98588583  0.58303148  0.33726516  1
  O  O474  1  0.98587648  0.58325215  0.58655677  1
  O  O475  1  0.98456114  0.58310892  0.83397517  1
  O  O476  1  0.98370056  0.91579944  0.08432820  1
  O  O477  1  0.98261221  0.91727561  0.33714653  1
  O  O478  1  0.98288752  0.91672661  0.58469605  1
  O  O479  1  0.98505389  0.91661958  0.83701369  1
  O  O480  1  0.08880623  0.31532238  0.07672246  1
  O  O481  1  0.08806945  0.31431290  0.32741729  1
  O  O482  1  0.08912755  0.31539008  0.57707698  1
  O  O483  1  0.08823853  0.31536861  0.82768579  1
  O  O484  1  0.08702063  0.64913545  0.07828130  1
  O  O485  1  0.08933646  0.64832584  0.32716435  1
  O  O486  1  0.09013322  0.64681330  0.57732293  1
  O  O487  1  0.08802695  0.64943666  0.82730070  1
  O  O488  1  0.08792404  0.98021626  0.07716498  1
  O  O489  1  0.08609310  0.98257635  0.32807607  1
  O  O490  1  0.08684092  0.98210707  0.57671583  1
  O  O491  1  0.08886340  0.98073948  0.82799515  1
  O  O492  1  0.58604294  0.31602465  0.07806279  1
  O  O493  1  0.58796117  0.31425040  0.32739766  1
  O  O494  1  0.58747129  0.31644695  0.57695483  1
  O  O495  1  0.58526653  0.31612712  0.82761501  1
  O  O496  1  0.58802147  0.64758435  0.07647911  1
  O  O497  1  0.58449276  0.64846227  0.32700284  1
  O  O498  1  0.58793610  0.64855602  0.57826076  1
  O  O499  1  0.58749944  0.64758287  0.82695646  1
  O  O500  1  0.58946766  0.98130201  0.07728004  1
  O  O501  1  0.58836756  0.98263334  0.32738172  1
  O  O502  1  0.58604971  0.98074832  0.57755874  1
  O  O503  1  0.58804926  0.98131156  0.82787306  1
  O  O504  1  0.41319890  0.01863395  0.17319958  1
  O  O505  1  0.41423629  0.01904913  0.42278725  1
  O  O506  1  0.41205294  0.01678069  0.67256425  1
  O  O507  1  0.41180466  0.01917212  0.92262093  1
  O  O508  1  0.41263585  0.35096015  0.17234488  1
  O  O509  1  0.41021012  0.35174281  0.42186653  1
  O  O510  1  0.41239014  0.35156821  0.67221466  1
  O  O511  1  0.41168984  0.35214623  0.92205708  1
  O  O512  1  0.41085547  0.68538885  0.17231271  1
  O  O513  1  0.41095815  0.68388616  0.42236444  1
  O  O514  1  0.41281707  0.68592673  0.67253139  1
  O  O515  1  0.41204201  0.68354271  0.92279193  1
  O  O516  1  0.91060930  0.01848029  0.17288645  1
  O  O517  1  0.91199453  0.01801941  0.42235527  1
  O  O518  1  0.91453637  0.01799955  0.67145774  1
  O  O519  1  0.91233955  0.01822225  0.92338827  1
  O  O520  1  0.91261216  0.35287025  0.17279917  1
  O  O521  1  0.91246280  0.35137423  0.42413264  1
  O  O522  1  0.91305076  0.35151662  0.67303093  1
  O  O523  1  0.91252106  0.35228790  0.92248438  1
  O  O524  1  0.91242028  0.68392048  0.17255696  1
  O  O525  1  0.91194451  0.68547258  0.42229872  1
  O  O526  1  0.91210998  0.68576671  0.67356663  1
  O  O527  1  0.91277774  0.68428417  0.92309411  1
  O  O528  1  0.16168497  0.01830847  0.20332894  1
  O  O529  1  0.16027975  0.01765034  0.45289268  1
  O  O530  1  0.16351404  0.01880188  0.70119825  1
  O  O531  1  0.16218426  0.01877306  0.95345528  1
  O  O532  1  0.16535592  0.35286670  0.20215224  1
  O  O533  1  0.16370372  0.35144463  0.45243916  1
  O  O534  1  0.16363533  0.35263570  0.70138303  1
  O  O535  1  0.16534032  0.35024085  0.95262536  1
  O  O536  1  0.16342749  0.68315347  0.20197148  1
  O  O537  1  0.16342553  0.68561554  0.45286296  1
  O  O538  1  0.16239699  0.68333411  0.70384947  1
  O  O539  1  0.16159258  0.68559930  0.95219122  1
  O  O540  1  0.66309489  0.01780667  0.20383519  1
  O  O541  1  0.66328308  0.01944646  0.45176277  1
  O  O542  1  0.66360537  0.01805728  0.70195431  1
  O  O543  1  0.66426731  0.01707283  0.95258870  1
  O  O544  1  0.66085070  0.35075721  0.20256272  1
  O  O545  1  0.66269536  0.35079903  0.45333593  1
  O  O546  1  0.66125089  0.35299354  0.70218826  1
  O  O547  1  0.65955570  0.35320979  0.95208625  1
  O  O548  1  0.66408151  0.68606939  0.20253202  1
  O  O549  1  0.66190912  0.68522773  0.45260272  1
  O  O550  1  0.66298940  0.68379138  0.70191842  1
  O  O551  1  0.66409076  0.68477310  0.95270740  1
  O  O552  1  0.33849960  0.31588233  0.04744012  1
  O  O553  1  0.33972399  0.31593269  0.29712566  1
  O  O554  1  0.33678591  0.31495637  0.54629699  1
  O  O555  1  0.33888522  0.31512344  0.79692470  1
  O  O556  1  0.33840137  0.64855962  0.04605630  1
  O  O557  1  0.33675397  0.64906311  0.29743250  1
  O  O558  1  0.33695614  0.64892139  0.54720677  1
  O  O559  1  0.33750055  0.64697529  0.79849047  1
  O  O560  1  0.33564638  0.98057188  0.04811904  1
  O  O561  1  0.33654815  0.98062052  0.29832491  1
  O  O562  1  0.33691390  0.98062136  0.54809396  1
  O  O563  1  0.33764781  0.98305685  0.79659847  1
  O  O564  1  0.83636554  0.31470442  0.04787828  1
  O  O565  1  0.83536690  0.31472841  0.29803137  1
  O  O566  1  0.83619186  0.31526141  0.54775515  1
  O  O567  1  0.83685738  0.31719497  0.79714839  1
  O  O568  1  0.83696997  0.64895563  0.04775597  1
  O  O569  1  0.83794190  0.64916369  0.29671126  1
  O  O570  1  0.83784262  0.64678187  0.54785304  1
  O  O571  1  0.83586765  0.64814626  0.79701707  1
  O  O572  1  0.83652175  0.98130869  0.04721518  1
  O  O573  1  0.83760518  0.98152747  0.29814082  1
  O  O574  1  0.83906021  0.98371739  0.54677169  1
  O  O575  1  0.83917589  0.98040057  0.79644299  1
  O  O576  1  0.41285654  0.14875265  0.17237705  1
  O  O577  1  0.41491080  0.14905741  0.42279440  1
  O  O578  1  0.41095541  0.14687241  0.67266700  1
  O  O579  1  0.41191166  0.14953800  0.92153584  1
  O  O580  1  0.41185882  0.48092144  0.17270719  1
  O  O581  1  0.41018600  0.48197621  0.42237674  1
  O  O582  1  0.41232227  0.48147637  0.67279665  1
  O  O583  1  0.41224886  0.48224447  0.92222369  1
  O  O584  1  0.41154011  0.81528066  0.17278317  1
  O  O585  1  0.40978377  0.81399786  0.42242634  1
  O  O586  1  0.41322342  0.81602378  0.67211932  1
  O  O587  1  0.41116688  0.81355331  0.92379796  1
  O  O588  1  0.91077024  0.14860583  0.17288236  1
  O  O589  1  0.91182329  0.14797284  0.42327459  1
  O  O590  1  0.91439225  0.14817513  0.67227709  1
  O  O591  1  0.91195911  0.14810702  0.92332524  1
  O  O592  1  0.91334347  0.48308072  0.17249633  1
  O  O593  1  0.91213131  0.48132610  0.42395400  1
  O  O594  1  0.91350531  0.48146069  0.67335516  1
  O  O595  1  0.91200169  0.48227336  0.92221364  1
  O  O596  1  0.91196676  0.81394024  0.17282027  1
  O  O597  1  0.91196392  0.81561489  0.42149147  1
  O  O598  1  0.91252948  0.81588802  0.67234446  1
  O  O599  1  0.91269029  0.81419362  0.92297641  1
  O  O600  1  0.08814716  0.18537651  0.07684780  1
  O  O601  1  0.08782895  0.18411287  0.32823935  1
  O  O602  1  0.08908791  0.18527452  0.57710295  1
  O  O603  1  0.08861644  0.18524362  0.82790081  1
  O  O604  1  0.08708075  0.51907376  0.07744726  1
  O  O605  1  0.08972358  0.51838668  0.32714037  1
  O  O606  1  0.08908207  0.51665734  0.57783496  1
  O  O607  1  0.08922979  0.51951041  0.82666449  1
  O  O608  1  0.08745552  0.85011699  0.07777491  1
  O  O609  1  0.08613529  0.85242838  0.32739386  1
  O  O610  1  0.08694087  0.85218467  0.57623469  1
  O  O611  1  0.08810564  0.85050671  0.82844292  1
  O  O612  1  0.58654035  0.18589497  0.07734939  1
  O  O613  1  0.58727806  0.18416204  0.32764414  1
  O  O614  1  0.58875576  0.18636875  0.57717814  1
  O  O615  1  0.58506376  0.18605372  0.82699332  1
  O  O616  1  0.58762044  0.51755997  0.07744991  1
  O  O617  1  0.58480923  0.51848378  0.32738598  1
  O  O618  1  0.58783860  0.51814969  0.57827630  1
  O  O619  1  0.58693563  0.51760146  0.82785488  1
  O  O620  1  0.58904926  0.85128216  0.07711163  1
  O  O621  1  0.58859745  0.85256252  0.32655425  1
  O  O622  1  0.58549748  0.85069127  0.57719486  1
  O  O623  1  0.58831980  0.85114887  0.82794402  1
  O  O624  1  0.33875337  0.18581082  0.04821489  1
  O  O625  1  0.33990900  0.18581943  0.29846521  1
  O  O626  1  0.33673008  0.18486784  0.54671261  1
  O  O627  1  0.33874382  0.18492769  0.79713538  1
  O  O628  1  0.33877572  0.51832641  0.04613927  1
  O  O629  1  0.33737834  0.51901929  0.29790031  1
  O  O630  1  0.33719556  0.51878709  0.54704317  1
  O  O631  1  0.33717510  0.51705498  0.79741338  1
  O  O632  1  0.33516903  0.85052427  0.04747816  1
  O  O633  1  0.33708051  0.85046199  0.29663243  1
  O  O634  1  0.33602699  0.85063392  0.54808235  1
  O  O635  1  0.33859446  0.85275927  0.79723135  1
  O  O636  1  0.83678919  0.18438919  0.04684096  1
  O  O637  1  0.83527947  0.18470036  0.29768172  1
  O  O638  1  0.83619486  0.18511496  0.54755305  1
  O  O639  1  0.83802833  0.18683642  0.79705704  1
  O  O640  1  0.83673060  0.51907429  0.04860674  1
  O  O641  1  0.83823303  0.51892947  0.29707088  1
  O  O642  1  0.83712419  0.51661979  0.54769990  1
  O  O643  1  0.83553607  0.51797794  0.79753523  1
  O  O644  1  0.83670333  0.85116837  0.04715583  1
  O  O645  1  0.83754996  0.85148334  0.29825513  1
  O  O646  1  0.84009895  0.85356327  0.54756068  1
  O  O647  1  0.83892243  0.85009137  0.79552944  1
  O  O648  1  0.16195153  0.14843772  0.20329604  1
  O  O649  1  0.16053695  0.14789661  0.45244477  1
  O  O650  1  0.16331490  0.14866606  0.70150406  1
  O  O651  1  0.16329257  0.14925655  0.95318828  1
  O  O652  1  0.16551295  0.48293020  0.20249441  1
  O  O653  1  0.16338653  0.48167119  0.45324599  1
  O  O654  1  0.16423510  0.48253563  0.70208221  1
  O  O655  1  0.16456541  0.48033094  0.95234263  1
  O  O656  1  0.16209155  0.81303858  0.20145392  1
  O  O657  1  0.16396301  0.81578875  0.45264708  1
  O  O658  1  0.16180411  0.81350619  0.70299611  1
  O  O659  1  0.16219527  0.81566187  0.95263344  1
  O  O660  1  0.66307537  0.14806367  0.20318684  1
  O  O661  1  0.66323719  0.14944652  0.45258250  1
  O  O662  1  0.66270295  0.14825109  0.70271311  1
  O  O663  1  0.66393167  0.14729912  0.95191158  1
  O  O664  1  0.66023071  0.48085324  0.20208968  1
  O  O665  1  0.66275681  0.48080605  0.45224796  1
  O  O666  1  0.66145600  0.48295234  0.70284311  1
  O  O667  1  0.66017714  0.48330931  0.95328725  1
  O  O668  1  0.66440791  0.81612344  0.20316491  1
  O  O669  1  0.66219887  0.81540921  0.45292860  1
  O  O670  1  0.66296946  0.81377914  0.70093972  1
  O  O671  1  0.66464386  0.81485301  0.95245828  1
