# generated using pymatgen
data_Na2MnFe(PO4)2
_symmetry_space_group_name_H-M   'P 1'
_cell_length_a   21.08997653
_cell_length_b   18.94364655
_cell_length_c   20.04840663
_cell_angle_alpha   90.00004818
_cell_angle_beta   90.00449036
_cell_angle_gamma   90.00122594
_symmetry_Int_Tables_number   1
_chemical_formula_structural   Na2MnFe(PO4)2
_chemical_formula_sum   'Na96 Mn48 Fe48 P96 O384'
_cell_volume   8009.76066845
_cell_formula_units_Z   48
loop_
 _symmetry_equiv_pos_site_id
 _symmetry_equiv_pos_as_xyz
  1  'x, y, z'
loop_
 _atom_site_type_symbol
 _atom_site_label
 _atom_site_symmetry_multiplicity
 _atom_site_fract_x
 _atom_site_fract_y
 _atom_site_fract_z
 _atom_site_occupancy
  Na  Na0  1  0.00013613  0.00011553  0.00061486  1
  Na  Na1  1  0.00002630  0.00036959  0.25032325  1
  Na  Na2  1  0.00037397  0.00019317  0.49946618  1
  Na  Na3  1  0.00037771  -0.00057276  0.74969887  1
  Na  Na4  1  -0.00221556  0.33280052  0.00025592  1
  Na  Na5  1  0.00037476  0.33362643  0.24942496  1
  Na  Na6  1  -0.00035513  0.33246128  0.50072569  1
  Na  Na7  1  0.00124733  0.33401583  0.74892243  1
  Na  Na8  1  -0.00006347  0.66715791  0.00020469  1
  Na  Na9  1  0.00083957  0.66662510  0.25025948  1
  Na  Na10  1  0.00246440  0.66734219  0.50019598  1
  Na  Na11  1  0.00031527  0.66633798  0.74941556  1
  Na  Na12  1  0.50305790  0.00025395  -0.00003257  1
  Na  Na13  1  0.50219637  -0.00023132  0.25045095  1
  Na  Na14  1  0.49912424  -0.00098438  0.50009894  1
  Na  Na15  1  0.50072494  -0.00029086  0.74949712  1
  Na  Na16  1  0.50070060  0.33304377  0.00116905  1
  Na  Na17  1  0.50174678  0.33362692  0.24977595  1
  Na  Na18  1  0.49933075  0.33277552  0.49995860  1
  Na  Na19  1  0.50198553  0.33419134  0.74920945  1
  Na  Na20  1  0.49948865  0.66657376  0.00057577  1
  Na  Na21  1  0.50097754  0.66751221  0.24867621  1
  Na  Na22  1  0.49833333  0.66644373  0.50014307  1
  Na  Na23  1  0.49919453  0.66675604  0.75033969  1
  Na  Na24  1  0.24731254  -0.00047135  0.12530701  1
  Na  Na25  1  0.24825161  -0.00026200  0.37460006  1
  Na  Na26  1  0.25027190  0.00049952  0.62574272  1
  Na  Na27  1  0.24679802  -0.00137216  0.87440402  1
  Na  Na28  1  0.24860929  0.33323782  0.12522615  1
  Na  Na29  1  0.24895880  0.33306898  0.37473541  1
  Na  Na30  1  0.25152687  0.33393960  0.62486011  1
  Na  Na31  1  0.24953882  0.33308322  0.87528314  1
  Na  Na32  1  0.24924233  0.66768265  0.12520264  1
  Na  Na33  1  0.24882094  0.66712393  0.37511809  1
  Na  Na34  1  0.24818221  0.66694193  0.62554444  1
  Na  Na35  1  0.24806488  0.66683448  0.87580813  1
  Na  Na36  1  0.75143306  -0.00007278  0.12515746  1
  Na  Na37  1  0.75035478  -0.00035260  0.37456631  1
  Na  Na38  1  0.75096611  -0.00018519  0.62527963  1
  Na  Na39  1  0.75017616  -0.00067805  0.87503594  1
  Na  Na40  1  0.75129543  0.33362663  0.12494781  1
  Na  Na41  1  0.75017401  0.33283492  0.37518442  1
  Na  Na42  1  0.74807648  0.33291966  0.62440641  1
  Na  Na43  1  0.74872570  0.33334213  0.87472103  1
  Na  Na44  1  0.75083047  0.66609861  0.12463077  1
  Na  Na45  1  0.74955817  0.66617584  0.37492602  1
  Na  Na46  1  0.75166291  0.66710235  0.62515139  1
  Na  Na47  1  0.75164694  0.66652144  0.87415868  1
  Na  Na48  1  -0.00176427  0.16718395  0.00075064  1
  Na  Na49  1  -0.00214397  0.16687122  0.24943132  1
  Na  Na50  1  -0.00089519  0.16668684  0.50015418  1
  Na  Na51  1  0.00191078  0.16502218  0.74869171  1
  Na  Na52  1  -0.00264966  0.50094774  -0.00036115  1
  Na  Na53  1  0.00122122  0.49862985  0.25076338  1
  Na  Na54  1  -0.00027020  0.50016082  0.50065384  1
  Na  Na55  1  -0.00152745  0.50035623  0.74923664  1
  Na  Na56  1  0.00006214  0.83396954  0.00023772  1
  Na  Na57  1  0.00302938  0.83279362  0.25004138  1
  Na  Na58  1  0.00296125  0.83357313  0.49945827  1
  Na  Na59  1  0.00406763  0.83214868  0.75074133  1
  Na  Na60  1  0.50068102  0.16682163  0.00059223  1
  Na  Na61  1  0.50245634  0.16605110  0.25066499  1
  Na  Na62  1  0.49912695  0.16729264  0.50024993  1
  Na  Na63  1  0.50043151  0.16653037  0.74895864  1
  Na  Na64  1  0.50120127  0.50013579  0.00065644  1
  Na  Na65  1  0.50081802  0.49995076  0.24874625  1
  Na  Na66  1  0.49968085  0.49980471  0.49965011  1
  Na  Na67  1  0.50207001  0.49870108  0.75012972  1
  Na  Na68  1  0.50049629  0.83411578  0.00036025  1
  Na  Na69  1  0.50139961  0.83335824  0.24947765  1
  Na  Na70  1  0.49891436  0.83394742  0.50030248  1
  Na  Na71  1  0.50038288  0.83333641  0.75000922  1
  Na  Na72  1  0.24876292  0.16635835  0.12490124  1
  Na  Na73  1  0.24961089  0.16668121  0.37518635  1
  Na  Na74  1  0.25120275  0.16631525  0.62566861  1
  Na  Na75  1  0.24845755  0.16717222  0.87453835  1
  Na  Na76  1  0.24947319  0.49924485  0.12555979  1
  Na  Na77  1  0.24848485  0.49970404  0.37385056  1
  Na  Na78  1  0.24792362  0.50074031  0.62496455  1
  Na  Na79  1  0.24945957  0.49950363  0.87588195  1
  Na  Na80  1  0.24720965  0.83370233  0.12527244  1
  Na  Na81  1  0.24762700  0.83394885  0.37538536  1
  Na  Na82  1  0.24864472  0.83349414  0.62603055  1
  Na  Na83  1  0.24723050  0.83359357  0.87465263  1
  Na  Na84  1  0.75240849  0.16616021  0.12509354  1
  Na  Na85  1  0.75093030  0.16667015  0.37469256  1
  Na  Na86  1  0.74901870  0.16718313  0.62397764  1
  Na  Na87  1  0.75021434  0.16630208  0.87602954  1
  Na  Na88  1  0.75046439  0.50084377  0.12452487  1
  Na  Na89  1  0.75049754  0.50016580  0.37551701  1
  Na  Na90  1  0.75106305  0.49974490  0.62602618  1
  Na  Na91  1  0.75091486  0.50031994  0.87358110  1
  Na  Na92  1  0.75079493  0.83340433  0.12527018  1
  Na  Na93  1  0.74872764  0.83464991  0.37448021  1
  Na  Na94  1  0.74949534  0.83435598  0.62489516  1
  Na  Na95  1  0.75007285  0.83385912  0.87429179  1
  Mn  Mn96  1  0.85702985  0.41585446  0.75184000  1
  Mn  Mn97  1  0.60846341  0.08316904  0.37330199  1
  Mn  Mn98  1  0.60734514  0.74952331  0.62237455  1
  Mn  Mn99  1  0.85885665  0.75078538  0.75169761  1
  Mn  Mn100  1  0.10645613  0.08371989  0.12263845  1
  Mn  Mn101  1  0.64343081  0.25021023  0.99762943  1
  Mn  Mn102  1  0.39248017  0.24906935  0.12747531  1
  Mn  Mn103  1  0.14146704  0.58326512  0.99792907  1
  Mn  Mn104  1  0.89151481  0.24966737  0.62753457  1
  Mn  Mn105  1  0.60891730  0.08403657  0.87272847  1
  Mn  Mn106  1  0.64254636  0.58375545  0.49792876  1
  Mn  Mn107  1  0.60829581  0.41724034  0.37309582  1
  Mn  Mn108  1  0.89205828  0.25008650  0.87617556  1
  Mn  Mn109  1  0.39232037  0.91737600  0.12658748  1
  Mn  Mn110  1  0.64260869  0.58384725  0.74743193  1
  Mn  Mn111  1  0.85821107  0.75037961  0.25261982  1
  Mn  Mn112  1  0.35761203  0.08317054  0.25182775  1
  Mn  Mn113  1  0.39166997  0.91669097  0.37702681  1
  Mn  Mn114  1  0.39090949  0.58303948  0.62732515  1
  Mn  Mn115  1  0.35622301  0.74967349  0.75267273  1
  Mn  Mn116  1  0.39171102  0.58335235  0.37697507  1
  Mn  Mn117  1  0.10722466  0.41653549  0.87300827  1
  Mn  Mn118  1  0.60774157  0.74957545  0.37329963  1
  Mn  Mn119  1  0.60888065  0.41640219  0.12243423  1
  Mn  Mn120  1  0.89290858  0.58293832  0.37769768  1
  Mn  Mn121  1  0.35747934  0.08271655  0.00243415  1
  Mn  Mn122  1  0.14125370  0.58298389  0.24699232  1
  Mn  Mn123  1  0.89303736  0.91628371  0.87707562  1
  Mn  Mn124  1  0.85888485  0.75044009  0.50225226  1
  Mn  Mn125  1  0.39263276  0.58355088  0.12689362  1
  Mn  Mn126  1  0.60827378  0.74972282  0.87328437  1
  Mn  Mn127  1  0.39178065  0.58308283  0.87757309  1
  Mn  Mn128  1  0.60887218  0.75063374  0.12199223  1
  Mn  Mn129  1  0.35680383  0.75046419  0.25204791  1
  Mn  Mn130  1  0.10792035  0.08285363  0.62204349  1
  Mn  Mn131  1  0.10781467  0.41675076  0.62239320  1
  Mn  Mn132  1  0.39196364  0.91674688  0.87757590  1
  Mn  Mn133  1  0.35676721  0.41628149  0.25208331  1
  Mn  Mn134  1  0.14278149  0.24989901  0.49729846  1
  Mn  Mn135  1  0.35725178  0.08325880  0.75292022  1
  Mn  Mn136  1  0.60736097  0.08336355  0.62207785  1
  Mn  Mn137  1  0.35792582  0.41720810  0.75251015  1
  Mn  Mn138  1  0.85760842  0.08364705  0.75207409  1
  Mn  Mn139  1  0.89319628  0.91666421  0.37741455  1
  Mn  Mn140  1  0.14117761  0.24956638  0.99759093  1
  Mn  Mn141  1  0.39213667  0.25000475  0.37652320  1
  Mn  Mn142  1  0.39251873  0.25016111  0.87712181  1
  Mn  Mn143  1  0.85819054  0.41645936  0.25283463  1
  Fe  Fe144  1  0.85748872  0.08312529  0.50113746  1
  Fe  Fe145  1  0.64341190  0.91689578  0.24775700  1
  Fe  Fe146  1  0.35710830  0.08316011  0.50121730  1
  Fe  Fe147  1  0.10750784  0.74991024  0.62312610  1
  Fe  Fe148  1  0.14257971  0.25028236  0.74813027  1
  Fe  Fe149  1  0.85760006  0.41628952  0.50186811  1
  Fe  Fe150  1  0.10716578  0.41568104  0.37395005  1
  Fe  Fe151  1  0.10602726  0.41690095  0.12283302  1
  Fe  Fe152  1  0.85729510  0.41686276  0.00139652  1
  Fe  Fe153  1  0.85708714  0.08303242  0.25193946  1
  Fe  Fe154  1  0.89282749  0.25011201  0.37664483  1
  Fe  Fe155  1  0.89260443  0.58355133  0.12672240  1
  Fe  Fe156  1  0.64288662  0.58342026  0.24818177  1
  Fe  Fe157  1  0.39204934  0.91680326  0.62672252  1
  Fe  Fe158  1  0.35602793  0.75029252  0.50176824  1
  Fe  Fe159  1  0.64448828  0.91590542  0.99845625  1
  Fe  Fe160  1  0.14150488  0.91685752  0.99850946  1
  Fe  Fe161  1  0.64305377  0.24962486  0.49795957  1
  Fe  Fe162  1  0.10715593  0.08427443  0.37330795  1
  Fe  Fe163  1  0.89231328  0.25046924  0.12709497  1
  Fe  Fe164  1  0.64405511  0.24973196  0.24831921  1
  Fe  Fe165  1  0.64186580  0.24945571  0.74780173  1
  Fe  Fe166  1  0.85807048  0.08280452  0.00176899  1
  Fe  Fe167  1  0.60911108  0.08332298  0.12358450  1
  Fe  Fe168  1  0.10696644  0.08353646  0.87376286  1
  Fe  Fe169  1  0.14120686  0.58271723  0.74850889  1
  Fe  Fe170  1  0.10625205  0.74945799  0.12277707  1
  Fe  Fe171  1  0.64281224  0.91697810  0.49879493  1
  Fe  Fe172  1  0.64417078  0.58404550  0.99782916  1
  Fe  Fe173  1  0.60799865  0.41697694  0.87403812  1
  Fe  Fe174  1  0.89335038  0.91585220  0.62609309  1
  Fe  Fe175  1  0.60701857  0.41694284  0.62234822  1
  Fe  Fe176  1  0.35609030  0.75024856  0.00160101  1
  Fe  Fe177  1  0.14180568  0.91760036  0.24794990  1
  Fe  Fe178  1  0.85836708  0.74997031  0.00158069  1
  Fe  Fe179  1  0.14212331  0.91712993  0.74727644  1
  Fe  Fe180  1  0.10683314  0.74972249  0.87379086  1
  Fe  Fe181  1  0.35700625  0.41683963  0.50121302  1
  Fe  Fe182  1  0.64274656  0.91688293  0.74782960  1
  Fe  Fe183  1  0.14113037  0.24936109  0.24851474  1
  Fe  Fe184  1  0.39316297  0.24991075  0.62664227  1
  Fe  Fe185  1  0.14318765  0.91706978  0.49867299  1
  Fe  Fe186  1  0.14256114  0.58315467  0.49832012  1
  Fe  Fe187  1  0.89282553  0.58350842  0.87652547  1
  Fe  Fe188  1  0.89372615  0.58444559  0.62592115  1
  Fe  Fe189  1  0.10830926  0.74987950  0.37323238  1
  Fe  Fe190  1  0.89299708  0.91630270  0.12686454  1
  Fe  Fe191  1  0.35769225  0.41680275  0.00198989  1
  P  P192  1  0.05239852  0.25057304  0.11121970  1
  P  P193  1  0.05238802  0.24966948  0.35982987  1
  P  P194  1  0.05432414  0.24974690  0.61052539  1
  P  P195  1  0.05324700  0.24911382  0.85906926  1
  P  P196  1  0.05166631  0.58295974  0.11003843  1
  P  P197  1  0.05501063  0.58266692  0.36157827  1
  P  P198  1  0.05430463  0.58390675  0.61052294  1
  P  P199  1  0.05214746  0.58372216  0.85973274  1
  P  P200  1  0.05357276  0.91635565  0.11082127  1
  P  P201  1  0.05591710  0.91752181  0.36096187  1
  P  P202  1  0.05430624  0.91604044  0.61014247  1
  P  P203  1  0.05530066  0.91704564  0.86098268  1
  P  P204  1  0.55575122  0.24885929  0.11135045  1
  P  P205  1  0.55571913  0.25006015  0.36047104  1
  P  P206  1  0.55427516  0.25062121  0.61008584  1
  P  P207  1  0.55433403  0.25097707  0.85942852  1
  P  P208  1  0.55611108  0.58360183  0.10981621  1
  P  P209  1  0.55366000  0.58347184  0.35883899  1
  P  P210  1  0.55271937  0.58266613  0.60982525  1
  P  P211  1  0.55483627  0.58300348  0.86131860  1
  P  P212  1  0.55617047  0.91775573  0.11024598  1
  P  P213  1  0.55534914  0.91650766  0.36053563  1
  P  P214  1  0.55347159  0.91655971  0.61037450  1
  P  P215  1  0.55572841  0.91655887  0.86042450  1
  P  P216  1  0.44885636  0.08284992  0.14044062  1
  P  P217  1  0.44635603  0.08323388  0.39067561  1
  P  P218  1  0.44451068  0.08310804  0.63843595  1
  P  P219  1  0.44749756  0.08326070  0.89042659  1
  P  P220  1  0.44576326  0.41642476  0.13916311  1
  P  P221  1  0.44610994  0.41655014  0.39034157  1
  P  P222  1  0.44606118  0.41592266  0.63862417  1
  P  P223  1  0.44789578  0.41662808  0.89093845  1
  P  P224  1  0.44552863  0.75083720  0.13871839  1
  P  P225  1  0.44558224  0.75024205  0.39064336  1
  P  P226  1  0.44425514  0.75087651  0.63909594  1
  P  P227  1  0.44578771  0.75025333  0.89106017  1
  P  P228  1  0.94402906  0.08282737  0.13953462  1
  P  P229  1  0.94603382  0.08410418  0.38908219  1
  P  P230  1  0.94515420  0.08183086  0.63842875  1
  P  P231  1  0.94730360  0.08320093  0.89030054  1
  P  P232  1  0.94575684  0.41718497  0.13877629  1
  P  P233  1  0.94742815  0.41540361  0.39075468  1
  P  P234  1  0.94513861  0.41725954  0.63862253  1
  P  P235  1  0.94574631  0.41703593  0.89003116  1
  P  P236  1  0.94632980  0.75013197  0.13889873  1
  P  P237  1  0.94909464  0.75022967  0.38988992  1
  P  P238  1  0.94860782  0.75080448  0.63948400  1
  P  P239  1  0.94762171  0.74959715  0.89024968  1
  P  P240  1  0.19439278  0.08382791  0.23603326  1
  P  P241  1  0.19728724  0.08273393  0.48475878  1
  P  P242  1  0.19464938  0.08357864  0.73626158  1
  P  P243  1  0.19538860  0.08256061  0.98458086  1
  P  P244  1  0.19337656  0.41510170  0.23536485  1
  P  P245  1  0.19717505  0.41714859  0.48454466  1
  P  P246  1  0.19607145  0.41659518  0.73522803  1
  P  P247  1  0.19625950  0.41664688  0.98637532  1
  P  P248  1  0.19365860  0.75089852  0.23535682  1
  P  P249  1  0.19542630  0.75033426  0.48634104  1
  P  P250  1  0.19321315  0.74957155  0.73620024  1
  P  P251  1  0.19462123  0.75068105  0.98591744  1
  P  P252  1  0.69764551  0.08344367  0.23493164  1
  P  P253  1  0.69801042  0.08302471  0.48496602  1
  P  P254  1  0.69630533  0.08320960  0.73495730  1
  P  P255  1  0.69784142  0.08221317  0.98652110  1
  P  P256  1  0.69720779  0.41671941  0.23521696  1
  P  P257  1  0.69699088  0.41631853  0.48631208  1
  P  P258  1  0.69421647  0.41597402  0.73533095  1
  P  P259  1  0.69802026  0.41784476  0.98438334  1
  P  P260  1  0.69687720  0.74988500  0.23508145  1
  P  P261  1  0.69744432  0.75092494  0.48508284  1
  P  P262  1  0.69689071  0.75082124  0.73471268  1
  P  P263  1  0.69918543  0.75003809  0.98489500  1
  P  P264  1  0.30306516  0.25043232  0.01515141  1
  P  P265  1  0.30126702  0.24960639  0.26472832  1
  P  P266  1  0.30423793  0.24992290  0.51531529  1
  P  P267  1  0.30328391  0.25028744  0.76397555  1
  P  P268  1  0.30298303  0.58366139  0.01525621  1
  P  P269  1  0.30257633  0.58353211  0.26472766  1
  P  P270  1  0.30151144  0.58341479  0.51457300  1
  P  P271  1  0.30087167  0.58334143  0.76551012  1
  P  P272  1  0.30118041  0.91583327  0.01493622  1
  P  P273  1  0.30138590  0.91680828  0.26467913  1
  P  P274  1  0.30240110  0.91674184  0.51537069  1
  P  P275  1  0.30251967  0.91643913  0.76407674  1
  P  P276  1  0.80476333  0.25028013  0.01506451  1
  P  P277  1  0.80469685  0.24927682  0.26447763  1
  P  P278  1  0.80393471  0.24989493  0.51339217  1
  P  P279  1  0.80099194  0.24976329  0.76488665  1
  P  P280  1  0.80495371  0.58346568  0.01362550  1
  P  P281  1  0.80379600  0.58347894  0.26415131  1
  P  P282  1  0.80456849  0.58270648  0.51570720  1
  P  P283  1  0.80601271  0.58374556  0.76395942  1
  P  P284  1  0.80417508  0.91610979  0.01505770  1
  P  P285  1  0.80405720  0.91721733  0.26384419  1
  P  P286  1  0.80334473  0.91739444  0.51515645  1
  P  P287  1  0.80380023  0.91674172  0.76379607  1
  O  O288  1  0.05697387  0.24974817  0.18784725  1
  O  O289  1  0.05610627  0.24928077  0.43656051  1
  O  O290  1  0.05911519  0.24989839  0.68720665  1
  O  O291  1  0.05548950  0.24997831  0.93593901  1
  O  O292  1  0.05520978  0.58274748  0.18673250  1
  O  O293  1  0.05891476  0.58282648  0.43835961  1
  O  O294  1  0.05818931  0.58267932  0.68723078  1
  O  O295  1  0.05568489  0.58314713  0.93643079  1
  O  O296  1  0.05785511  0.91722979  0.18754457  1
  O  O297  1  0.05985357  0.91773021  0.43775907  1
  O  O298  1  0.05850241  0.91713054  0.68688778  1
  O  O299  1  0.05828130  0.91715315  0.93783884  1
  O  O300  1  0.56032480  0.24961006  0.18808796  1
  O  O301  1  0.55995917  0.24983030  0.43729350  1
  O  O302  1  0.55871322  0.24960791  0.68674823  1
  O  O303  1  0.55757727  0.24993329  0.93629116  1
  O  O304  1  0.56045686  0.58366866  0.18658457  1
  O  O305  1  0.55685487  0.58347141  0.43562397  1
  O  O306  1  0.55626253  0.58352242  0.68657324  1
  O  O307  1  0.55975586  0.58404104  0.93803001  1
  O  O308  1  0.56045368  0.91671206  0.18706193  1
  O  O309  1  0.55978646  0.91675787  0.43731784  1
  O  O310  1  0.55866775  0.91667881  0.68699651  1
  O  O311  1  0.56085481  0.91632087  0.93716126  1
  O  O312  1  0.44428803  0.08269977  0.06379110  1
  O  O313  1  0.44335693  0.08305733  0.31392035  1
  O  O314  1  0.44051596  0.08282200  0.56176357  1
  O  O315  1  0.44364917  0.08289495  0.81348456  1
  O  O316  1  0.44106342  0.41650453  0.06242886  1
  O  O317  1  0.44285092  0.41652677  0.31354924  1
  O  O318  1  0.44063345  0.41692980  0.56202290  1
  O  O319  1  0.44395777  0.41685675  0.81415197  1
  O  O320  1  0.44035865  0.75092131  0.06209722  1
  O  O321  1  0.44267477  0.75054881  0.31380445  1
  O  O322  1  0.43950134  0.75024592  0.56237430  1
  O  O323  1  0.44218791  0.75033262  0.81422471  1
  O  O324  1  0.94046727  0.08275203  0.06257148  1
  O  O325  1  0.94113145  0.08314386  0.31241014  1
  O  O326  1  0.94079489  0.08289040  0.56166487  1
  O  O327  1  0.94364526  0.08292976  0.81356335  1
  O  O328  1  0.94117811  0.41706010  0.06213956  1
  O  O329  1  0.94388378  0.41612617  0.31399681  1
  O  O330  1  0.94111876  0.41604088  0.56187295  1
  O  O331  1  0.94288984  0.41603135  0.81324241  1
  O  O332  1  0.94180361  0.75038890  0.06221542  1
  O  O333  1  0.94482187  0.75036974  0.31321406  1
  O  O334  1  0.94530465  0.75103131  0.56280036  1
  O  O335  1  0.94436784  0.75045155  0.81355619  1
  O  O336  1  0.19209401  0.08338416  0.06110703  1
  O  O337  1  0.19066515  0.08431448  0.31291691  1
  O  O338  1  0.19380963  0.08349519  0.56142343  1
  O  O339  1  0.19071285  0.08351520  0.81300473  1
  O  O340  1  0.19051532  0.41679381  0.06297791  1
  O  O341  1  0.18940287  0.41569617  0.31216223  1
  O  O342  1  0.19351288  0.41647295  0.56122412  1
  O  O343  1  0.19307891  0.41635718  0.81200982  1
  O  O344  1  0.18978138  0.74973680  0.06263977  1
  O  O345  1  0.19018271  0.74988295  0.31227000  1
  O  O346  1  0.19124437  0.75010489  0.56308390  1
  O  O347  1  0.18950712  0.74937983  0.81302941  1
  O  O348  1  0.69363828  0.08307088  0.06336937  1
  O  O349  1  0.69428242  0.08338636  0.31161095  1
  O  O350  1  0.69408649  0.08304017  0.56192756  1
  O  O351  1  0.69419501  0.08323200  0.81136427  1
  O  O352  1  0.69472108  0.41722250  0.06111574  1
  O  O353  1  0.69445536  0.41682501  0.31196327  1
  O  O354  1  0.69199747  0.41695175  0.56296414  1
  O  O355  1  0.69077324  0.41696942  0.81210104  1
  O  O356  1  0.69551418  0.74982710  0.06162495  1
  O  O357  1  0.69380996  0.74982669  0.31175558  1
  O  O358  1  0.69407996  0.75017258  0.56182756  1
  O  O359  1  0.69394508  0.74984232  0.81140199  1
  O  O360  1  0.30555733  0.24946107  0.18811354  1
  O  O361  1  0.30664576  0.24996559  0.43845855  1
  O  O362  1  0.30871080  0.25019921  0.68743512  1
  O  O363  1  0.30630385  0.25004176  0.93830924  1
  O  O364  1  0.30636328  0.58359745  0.18802563  1
  O  O365  1  0.30498776  0.58333799  0.43791307  1
  O  O366  1  0.30500656  0.58340224  0.68882969  1
  O  O367  1  0.30560018  0.58345980  0.93845212  1
  O  O368  1  0.30572298  0.91684485  0.18809563  1
  O  O369  1  0.30551540  0.91661788  0.43862110  1
  O  O370  1  0.30786850  0.91671269  0.68753943  1
  O  O371  1  0.30502246  0.91633759  0.93819763  1
  O  O372  1  0.80935335  0.25052570  0.18775771  1
  O  O373  1  0.80868724  0.25011125  0.43669942  1
  O  O374  1  0.80498590  0.24996578  0.68816164  1
  O  O375  1  0.80704795  0.25014538  0.93834598  1
  O  O376  1  0.80900773  0.58349849  0.18747650  1
  O  O377  1  0.80740337  0.58347968  0.43884547  1
  O  O378  1  0.81070305  0.58416001  0.68725529  1
  O  O379  1  0.80937395  0.58372030  0.93689210  1
  O  O380  1  0.80906030  0.91611472  0.18717713  1
  O  O381  1  0.80721376  0.91655190  0.43845351  1
  O  O382  1  0.80906162  0.91613054  0.68715707  1
  O  O383  1  0.80734705  0.91623371  0.93854228  1
  O  O384  1  0.23326045  0.24993676  0.03997421  1
  O  O385  1  0.23123268  0.24970419  0.28914701  1
  O  O386  1  0.23451006  0.24992213  0.54061229  1
  O  O387  1  0.23289139  0.25011147  0.78740061  1
  O  O388  1  0.23337423  0.58355696  0.04083231  1
  O  O389  1  0.23268679  0.58337693  0.28908783  1
  O  O390  1  0.23143805  0.58373238  0.53940748  1
  O  O391  1  0.23082379  0.58314282  0.78987980  1
  O  O392  1  0.23109310  0.91648555  0.03938601  1
  O  O393  1  0.23125063  0.91696643  0.28879614  1
  O  O394  1  0.23227591  0.91683086  0.54016706  1
  O  O395  1  0.23194510  0.91612211  0.78693154  1
  O  O396  1  0.73513791  0.25004036  0.04061143  1
  O  O397  1  0.73431161  0.24963131  0.28796843  1
  O  O398  1  0.73356099  0.24980661  0.53717663  1
  O  O399  1  0.73113137  0.24962133  0.78951988  1
  O  O400  1  0.73456561  0.58353765  0.03743254  1
  O  O401  1  0.73346831  0.58329332  0.28765640  1
  O  O402  1  0.73492661  0.58336138  0.54095193  1
  O  O403  1  0.73578254  0.58361985  0.78733365  1
  O  O404  1  0.73417322  0.91616852  0.04008302  1
  O  O405  1  0.73365440  0.91728873  0.28721096  1
  O  O406  1  0.73315608  0.91713713  0.53943891  1
  O  O407  1  0.73351611  0.91685593  0.78735595  1
  O  O408  1  0.26420800  0.08323724  0.21119871  1
  O  O409  1  0.26737974  0.08319850  0.46025304  1
  O  O410  1  0.26458561  0.08338834  0.71187752  1
  O  O411  1  0.26509141  0.08293968  0.95925772  1
  O  O412  1  0.26347845  0.41614153  0.21144846  1
  O  O413  1  0.26723917  0.41638003  0.46001961  1
  O  O414  1  0.26566467  0.41716915  0.70984487  1
  O  O415  1  0.26664933  0.41672180  0.96300070  1
  O  O416  1  0.26359311  0.75047200  0.21105287  1
  O  O417  1  0.26570628  0.75050142  0.46217788  1
  O  O418  1  0.26320349  0.75015482  0.71188662  1
  O  O419  1  0.26488425  0.75007220  0.96207952  1
  O  O420  1  0.76777837  0.08325195  0.21045854  1
  O  O421  1  0.76795706  0.08302656  0.46037632  1
  O  O422  1  0.76573217  0.08349304  0.70877512  1
  O  O423  1  0.76813534  0.08273034  0.96246518  1
  O  O424  1  0.76683652  0.41683385  0.20982062  1
  O  O425  1  0.76730648  0.41656580  0.46240122  1
  O  O426  1  0.76426013  0.41649203  0.71101150  1
  O  O427  1  0.76803487  0.41708231  0.95972200  1
  O  O428  1  0.76657178  0.75001248  0.20983004  1
  O  O429  1  0.76710993  0.75063381  0.45979494  1
  O  O430  1  0.76659252  0.75072082  0.70957599  1
  O  O431  1  0.76919616  0.75005825  0.96015132  1
  O  O432  1  0.01387376  0.08311079  0.16371512  1
  O  O433  1  0.01650501  0.08371753  0.41260380  1
  O  O434  1  0.01517367  0.08207418  0.66233988  1
  O  O435  1  0.01726316  0.08357508  0.91501348  1
  O  O436  1  0.01596395  0.41674785  0.16293070  1
  O  O437  1  0.01753429  0.41595240  0.41525289  1
  O  O438  1  0.01510948  0.41715420  0.66284128  1
  O  O439  1  0.01540619  0.41673465  0.91531174  1
  O  O440  1  0.01663870  0.74969442  0.16282119  1
  O  O441  1  0.01928605  0.75048698  0.41386753  1
  O  O442  1  0.01845146  0.74997703  0.66458718  1
  O  O443  1  0.01773501  0.75042993  0.91481683  1
  O  O444  1  0.51894543  0.08283309  0.16467889  1
  O  O445  1  0.51607387  0.08320338  0.41572281  1
  O  O446  1  0.51468465  0.08310329  0.66272226  1
  O  O447  1  0.51719573  0.08354065  0.91483702  1
  O  O448  1  0.51597415  0.41661174  0.16266586  1
  O  O449  1  0.51589249  0.41639243  0.41513466  1
  O  O450  1  0.51649952  0.41625256  0.66192086  1
  O  O451  1  0.51802468  0.41672982  0.91526883  1
  O  O452  1  0.51585936  0.75076021  0.16199616  1
  O  O453  1  0.51528582  0.75017423  0.41573142  1
  O  O454  1  0.51434254  0.75016579  0.66309274  1
  O  O455  1  0.51570005  0.75029900  0.91550694  1
  O  O456  1  0.48575884  0.24954163  0.08723711  1
  O  O457  1  0.48563319  0.25004337  0.33642809  1
  O  O458  1  0.48394397  0.24999318  0.58646121  1
  O  O459  1  0.48464432  0.25030881  0.83419470  1
  O  O460  1  0.48590409  0.58346127  0.08631548  1
  O  O461  1  0.48399692  0.58354375  0.33370033  1
  O  O462  1  0.48294123  0.58273970  0.58505579  1
  O  O463  1  0.48475729  0.58317778  0.83720375  1
  O  O464  1  0.48610221  0.91714858  0.08625346  1
  O  O465  1  0.48519173  0.91661375  0.33666833  1
  O  O466  1  0.48303057  0.91682062  0.58714685  1
  O  O467  1  0.48538590  0.91642453  0.83701406  1
  O  O468  1  0.98198036  0.25004404  0.08759828  1
  O  O469  1  0.98231695  0.24987140  0.33519414  1
  O  O470  1  0.98416968  0.24958820  0.58701072  1
  O  O471  1  0.98376860  0.24965403  0.83314544  1
  O  O472  1  0.98172819  0.58380138  0.08525759  1
  O  O473  1  0.98511704  0.58254768  0.33681823  1
  O  O474  1  0.98405158  0.58388194  0.58640449  1
  O  O475  1  0.98209463  0.58320968  0.83512648  1
  O  O476  1  0.98320595  0.91694652  0.08702683  1
  O  O477  1  0.98586999  0.91693610  0.33663962  1
  O  O478  1  0.98419148  0.91661298  0.58579547  1
  O  O479  1  0.98547614  0.91606608  0.83600256  1
  O  O480  1  0.08536503  0.31573741  0.07791701  1
  O  O481  1  0.08632430  0.31475859  0.32741659  1
  O  O482  1  0.08758435  0.31479243  0.57723165  1
  O  O483  1  0.08808247  0.31393951  0.82683396  1
  O  O484  1  0.08597416  0.64784226  0.07766794  1
  O  O485  1  0.08845809  0.64782914  0.32865516  1
  O  O486  1  0.08785171  0.64911908  0.57794255  1
  O  O487  1  0.08579623  0.64894243  0.82737894  1
  O  O488  1  0.08729662  0.98096351  0.07729284  1
  O  O489  1  0.08896835  0.98286755  0.32783704  1
  O  O490  1  0.08832572  0.98058089  0.57648825  1
  O  O491  1  0.08844850  0.98240157  0.82799406  1
  O  O492  1  0.58954757  0.31368269  0.07795221  1
  O  O493  1  0.58949492  0.31496700  0.32749490  1
  O  O494  1  0.58765216  0.31572920  0.57708663  1
  O  O495  1  0.58808148  0.31646267  0.82763122  1
  O  O496  1  0.58959642  0.64861204  0.07642659  1
  O  O497  1  0.58803855  0.64841305  0.32644553  1
  O  O498  1  0.58659779  0.64768554  0.57698647  1
  O  O499  1  0.58827473  0.64793587  0.82772282  1
  O  O500  1  0.58970561  0.98301965  0.07771009  1
  O  O501  1  0.58909958  0.98146992  0.32741413  1
  O  O502  1  0.58693764  0.98156838  0.57673665  1
  O  O503  1  0.58907156  0.98156200  0.82711312  1
  O  O504  1  0.41497534  0.01787591  0.17333441  1
  O  O505  1  0.41194762  0.01835516  0.42316026  1
  O  O506  1  0.41108362  0.01803937  0.67167619  1
  O  O507  1  0.41368448  0.01815768  0.92310367  1
  O  O508  1  0.41257101  0.35133712  0.17250061  1
  O  O509  1  0.41189560  0.35160394  0.42283186  1
  O  O510  1  0.41329114  0.35051756  0.67185649  1
  O  O511  1  0.41407078  0.35153331  0.92354182  1
  O  O512  1  0.41235502  0.68572605  0.17209821  1
  O  O513  1  0.41119777  0.68524267  0.42290526  1
  O  O514  1  0.41052102  0.68589809  0.67236269  1
  O  O515  1  0.41163851  0.68523300  0.92347378  1
  O  O516  1  0.91059529  0.01761518  0.17250367  1
  O  O517  1  0.91258560  0.01929241  0.42280045  1
  O  O518  1  0.91199691  0.01643603  0.67110777  1
  O  O519  1  0.91354220  0.01816496  0.92315898  1
  O  O520  1  0.91229459  0.35220639  0.17212888  1
  O  O521  1  0.91366467  0.35015725  0.42304701  1
  O  O522  1  0.91155411  0.35237015  0.67213773  1
  O  O523  1  0.91130122  0.35227519  0.92268669  1
  O  O524  1  0.91288903  0.68508307  0.17199848  1
  O  O525  1  0.91563419  0.68516028  0.42268629  1
  O  O526  1  0.91426430  0.68591680  0.67177623  1
  O  O527  1  0.91413161  0.68430652  0.92267937  1
  O  O528  1  0.16036351  0.01872318  0.20359975  1
  O  O529  1  0.16340794  0.01763376  0.45246387  1
  O  O530  1  0.16113008  0.01833948  0.70327016  1
  O  O531  1  0.16117607  0.01737411  0.95246295  1
  O  O532  1  0.16015910  0.34981451  0.20252273  1
  O  O533  1  0.16282542  0.35232429  0.45167977  1
  O  O534  1  0.16221306  0.35149915  0.70256055  1
  O  O535  1  0.16300543  0.35166467  0.95294528  1
  O  O536  1  0.15959159  0.68610381  0.20209704  1
  O  O537  1  0.16195934  0.68540632  0.45293460  1
  O  O538  1  0.15993919  0.68432644  0.70317579  1
  O  O539  1  0.16079598  0.68589458  0.95239513  1
  O  O540  1  0.66363166  0.01855907  0.20213677  1
  O  O541  1  0.66420116  0.01795371  0.45259985  1
  O  O542  1  0.66206720  0.01798230  0.70255070  1
  O  O543  1  0.66473967  0.01703253  0.95372971  1
  O  O544  1  0.66336636  0.35137536  0.20297358  1
  O  O545  1  0.66376583  0.35121116  0.45321014  1
  O  O546  1  0.66080800  0.35063358  0.70272450  1
  O  O547  1  0.66354583  0.35298090  0.95188954  1
  O  O548  1  0.66295786  0.68486136  0.20240350  1
  O  O549  1  0.66325523  0.68587222  0.45262794  1
  O  O550  1  0.66283347  0.68583155  0.70192906  1
  O  O551  1  0.66525938  0.68514374  0.95206529  1
  O  O552  1  0.33696225  0.31557587  0.04743060  1
  O  O553  1  0.33512480  0.31461273  0.29750969  1
  O  O554  1  0.33850074  0.31501065  0.54757213  1
  O  O555  1  0.33632509  0.31541685  0.79744113  1
  O  O556  1  0.33692626  0.64910907  0.04717836  1
  O  O557  1  0.33614999  0.64864086  0.29747626  1
  O  O558  1  0.33527317  0.64844289  0.54738854  1
  O  O559  1  0.33456663  0.64835719  0.79829730  1
  O  O560  1  0.33520333  0.98079296  0.04781555  1
  O  O561  1  0.33519631  0.98172932  0.29763317  1
  O  O562  1  0.33638325  0.98182135  0.54785758  1
  O  O563  1  0.33541597  0.98145553  0.79793495  1
  O  O564  1  0.83874481  0.31559214  0.04736071  1
  O  O565  1  0.83823655  0.31393714  0.29836868  1
  O  O566  1  0.83703375  0.31487035  0.54698597  1
  O  O567  1  0.83487510  0.31475744  0.79750911  1
  O  O568  1  0.83835809  0.64841497  0.04714938  1
  O  O569  1  0.83708431  0.64845260  0.29759246  1
  O  O570  1  0.83932623  0.64763143  0.54799773  1
  O  O571  1  0.83952420  0.64861502  0.79744815  1
  O  O572  1  0.83822632  0.98109046  0.04784996  1
  O  O573  1  0.83727094  0.98239241  0.29681620  1
  O  O574  1  0.83716819  0.98247964  0.54757392  1
  O  O575  1  0.83705265  0.98178796  0.79708276  1
  O  O576  1  0.41505517  0.14787502  0.17335466  1
  O  O577  1  0.41210521  0.14829578  0.42289111  1
  O  O578  1  0.41135085  0.14851952  0.67130976  1
  O  O579  1  0.41346610  0.14836035  0.92264662  1
  O  O580  1  0.41230772  0.48146878  0.17226728  1
  O  O581  1  0.41199245  0.48154725  0.42297927  1
  O  O582  1  0.41282488  0.48074480  0.67267776  1
  O  O583  1  0.41374421  0.48148447  0.92371040  1
  O  O584  1  0.41241150  0.81587340  0.17228123  1
  O  O585  1  0.41128176  0.81515997  0.42317251  1
  O  O586  1  0.41124919  0.81631812  0.67201981  1
  O  O587  1  0.41165300  0.81519706  0.92373852  1
  O  O588  1  0.91007058  0.14782808  0.17225903  1
  O  O589  1  0.91281635  0.14929176  0.42211069  1
  O  O590  1  0.91164849  0.14674649  0.67196811  1
  O  O591  1  0.91290313  0.14805790  0.92268204  1
  O  O592  1  0.91288522  0.48250998  0.17206218  1
  O  O593  1  0.91311421  0.48014514  0.42351797  1
  O  O594  1  0.91175854  0.48261381  0.67089258  1
  O  O595  1  0.91168081  0.48226758  0.92204636  1
  O  O596  1  0.91355080  0.81544727  0.17235070  1
  O  O597  1  0.91543852  0.81515698  0.42282260  1
  O  O598  1  0.91523253  0.81610019  0.67236107  1
  O  O599  1  0.91336541  0.81420100  0.92332423  1
  O  O600  1  0.08564011  0.18572817  0.07765227  1
  O  O601  1  0.08615484  0.18470497  0.32675570  1
  O  O602  1  0.08763943  0.18478129  0.57716637  1
  O  O603  1  0.08741136  0.18382467  0.82735968  1
  O  O604  1  0.08502450  0.51779817  0.07708949  1
  O  O605  1  0.08838778  0.51738865  0.32889820  1
  O  O606  1  0.08794087  0.51921016  0.57682275  1
  O  O607  1  0.08623304  0.51888818  0.82676749  1
  O  O608  1  0.08669441  0.85108727  0.07785250  1
  O  O609  1  0.08987027  0.85259787  0.32819720  1
  O  O610  1  0.08781172  0.85070706  0.57774735  1
  O  O611  1  0.08975564  0.85221178  0.82859983  1
  O  O612  1  0.58895999  0.18352356  0.07843840  1
  O  O613  1  0.58947187  0.18505066  0.32755095  1
  O  O614  1  0.58798718  0.18571622  0.57644250  1
  O  O615  1  0.58888125  0.18629390  0.82663680  1
  O  O616  1  0.58982347  0.51870570  0.07669023  1
  O  O617  1  0.58800652  0.51845879  0.32647569  1
  O  O618  1  0.58682325  0.51758633  0.57749702  1
  O  O619  1  0.58820895  0.51769752  0.82868231  1
  O  O620  1  0.59016375  0.85303726  0.07663451  1
  O  O621  1  0.58889884  0.85155527  0.32736026  1
  O  O622  1  0.58676709  0.85169898  0.57681339  1
  O  O623  1  0.58918124  0.85159871  0.82699860  1
  O  O624  1  0.33711038  0.18523560  0.04758934  1
  O  O625  1  0.33525259  0.18468985  0.29750322  1
  O  O626  1  0.33841296  0.18480294  0.54752111  1
  O  O627  1  0.33651538  0.18534951  0.79762783  1
  O  O628  1  0.33732466  0.51859954  0.04737794  1
  O  O629  1  0.33635658  0.51844647  0.29732871  1
  O  O630  1  0.33503986  0.51816622  0.54735466  1
  O  O631  1  0.33501183  0.51841795  0.79811173  1
  O  O632  1  0.33466079  0.85064498  0.04757942  1
  O  O633  1  0.33479602  0.85175698  0.29778830  1
  O  O634  1  0.33615703  0.85170937  0.54822511  1
  O  O635  1  0.33557505  0.85151963  0.79770717  1
  O  O636  1  0.83925335  0.18536781  0.04737963  1
  O  O637  1  0.83787571  0.18398369  0.29725819  1
  O  O638  1  0.83709353  0.18468506  0.54652949  1
  O  O639  1  0.83511659  0.18486431  0.79740427  1
  O  O640  1  0.83809594  0.51823454  0.04687316  1
  O  O641  1  0.83715025  0.51850541  0.29752982  1
  O  O642  1  0.83864133  0.51752486  0.54760979  1
  O  O643  1  0.83931334  0.51868217  0.79718493  1
  O  O644  1  0.83815119  0.85102091  0.04784826  1
  O  O645  1  0.83718977  0.85241887  0.29778651  1
  O  O646  1  0.83742418  0.85256768  0.54834030  1
  O  O647  1  0.83717176  0.85188387  0.79738414  1
  O  O648  1  0.16081086  0.14885089  0.20296318  1
  O  O649  1  0.16297925  0.14746615  0.45172004  1
  O  O650  1  0.16118729  0.14858707  0.70314911  1
  O  O651  1  0.16084481  0.14739882  0.95181041  1
  O  O652  1  0.15927198  0.47987689  0.20201589  1
  O  O653  1  0.16338097  0.48226260  0.45215799  1
  O  O654  1  0.16160148  0.48171820  0.70324022  1
  O  O655  1  0.16299619  0.48163855  0.95288833  1
  O  O656  1  0.15999817  0.81614399  0.20302075  1
  O  O657  1  0.16198146  0.81552589  0.45346293  1
  O  O658  1  0.15924354  0.81452368  0.70325069  1
  O  O659  1  0.16135461  0.81587504  0.95304488  1
  O  O660  1  0.66405771  0.14857808  0.20211907  1
  O  O661  1  0.66424502  0.14807241  0.45246498  1
  O  O662  1  0.66168892  0.14820617  0.70260080  1
  O  O663  1  0.66428081  0.14706476  0.95325646  1
  O  O664  1  0.66303273  0.48166850  0.20275503  1
  O  O665  1  0.66367100  0.48133841  0.45287508  1
  O  O666  1  0.66029120  0.48073938  0.70194028  1
  O  O667  1  0.66431601  0.48289935  0.95172389  1
  O  O668  1  0.66290700  0.81513207  0.20270329  1
  O  O669  1  0.66341128  0.81613453  0.45311787  1
  O  O670  1  0.66268714  0.81595714  0.70269215  1
  O  O671  1  0.66530754  0.81522478  0.95262900  1
