# generated using pymatgen
data_Na2MnFe(PO4)2
_symmetry_space_group_name_H-M   'P 1'
_cell_length_a   21.07579318
_cell_length_b   18.92625478
_cell_length_c   20.03534226
_cell_angle_alpha   90.00009323
_cell_angle_beta   89.99758586
_cell_angle_gamma   90.00116940
_symmetry_Int_Tables_number   1
_chemical_formula_structural   Na2MnFe(PO4)2
_chemical_formula_sum   'Na96 Mn48 Fe48 P96 O384'
_cell_volume   7991.81414700
_cell_formula_units_Z   48
loop_
 _symmetry_equiv_pos_site_id
 _symmetry_equiv_pos_as_xyz
  1  'x, y, z'
loop_
 _atom_site_type_symbol
 _atom_site_label
 _atom_site_symmetry_multiplicity
 _atom_site_fract_x
 _atom_site_fract_y
 _atom_site_fract_z
 _atom_site_occupancy
  Na  Na0  1  -0.00214573  -0.00079645  0.00078633  1
  Na  Na1  1  0.00189240  0.00058734  0.25015801  1
  Na  Na2  1  0.00027791  -0.00043089  0.49909726  1
  Na  Na3  1  -0.00314476  -0.00110443  0.75021578  1
  Na  Na4  1  -0.00004327  0.33383872  -0.00143636  1
  Na  Na5  1  -0.00058965  0.33259670  0.25087333  1
  Na  Na6  1  -0.00039700  0.33332296  0.50088791  1
  Na  Na7  1  -0.00243612  0.33258643  0.74986318  1
  Na  Na8  1  -0.00048738  0.66663811  0.00014556  1
  Na  Na9  1  0.00171724  0.66710705  0.24915697  1
  Na  Na10  1  0.00145023  0.66720830  0.50052439  1
  Na  Na11  1  -0.00107209  0.66653043  0.74961608  1
  Na  Na12  1  0.50061852  0.00045473  -0.00088164  1
  Na  Na13  1  0.50078947  0.00002904  0.25148833  1
  Na  Na14  1  0.50101824  0.00060738  0.50040472  1
  Na  Na15  1  0.50044635  0.00046963  0.74927465  1
  Na  Na16  1  0.49998781  0.33344621  0.00060118  1
  Na  Na17  1  0.49979224  0.33279188  0.24989421  1
  Na  Na18  1  0.50229309  0.33412081  0.49974689  1
  Na  Na19  1  0.49977327  0.33301814  0.74964821  1
  Na  Na20  1  0.49883398  0.66627420  0.00020795  1
  Na  Na21  1  0.49766097  0.66679917  0.25060631  1
  Na  Na22  1  0.49940941  0.66716600  0.50008217  1
  Na  Na23  1  0.50135043  0.66668020  0.74899766  1
  Na  Na24  1  0.24884767  -0.00013031  0.12450756  1
  Na  Na25  1  0.24787808  -0.00114313  0.37379601  1
  Na  Na26  1  0.25174651  0.00079458  0.62544824  1
  Na  Na27  1  0.25098894  0.00074194  0.87645484  1
  Na  Na28  1  0.25043534  0.33357760  0.12427297  1
  Na  Na29  1  0.24986167  0.33359408  0.37483832  1
  Na  Na30  1  0.25030254  0.33287100  0.62561854  1
  Na  Na31  1  0.25287571  0.33429916  0.87560332  1
  Na  Na32  1  0.24931122  0.66631889  0.12384308  1
  Na  Na33  1  0.24992852  0.66684198  0.37426658  1
  Na  Na34  1  0.25044936  0.66658225  0.62556653  1
  Na  Na35  1  0.25081624  0.66645268  0.87560359  1
  Na  Na36  1  0.75111282  0.00044616  0.12521359  1
  Na  Na37  1  0.74888883  -0.00076567  0.37378760  1
  Na  Na38  1  0.74964214  0.00003874  0.62597617  1
  Na  Na39  1  0.75078790  -0.00007204  0.87494833  1
  Na  Na40  1  0.75033671  0.33301214  0.12501986  1
  Na  Na41  1  0.74900751  0.33249924  0.37379164  1
  Na  Na42  1  0.74956995  0.33369532  0.62518452  1
  Na  Na43  1  0.74982372  0.33335947  0.87585063  1
  Na  Na44  1  0.75164521  0.66779959  0.12485095  1
  Na  Na45  1  0.74854541  0.66689676  0.37547198  1
  Na  Na46  1  0.74923027  0.66688968  0.62464340  1
  Na  Na47  1  0.75070714  0.66698094  0.87535911  1
  Na  Na48  1  -0.00084169  0.16733915  -0.00037284  1
  Na  Na49  1  -0.00021298  0.16746724  0.24974095  1
  Na  Na50  1  0.00045488  0.16685874  0.50018708  1
  Na  Na51  1  -0.00107518  0.16700233  0.75022093  1
  Na  Na52  1  -0.00022325  0.50059333  -0.00056585  1
  Na  Na53  1  0.00276076  0.49864982  0.25022425  1
  Na  Na54  1  -0.00133082  0.50061634  0.50125521  1
  Na  Na55  1  -0.00138815  0.50012258  0.74913651  1
  Na  Na56  1  -0.00301066  0.83370990  0.00018465  1
  Na  Na57  1  0.00103304  0.83275651  0.25033766  1
  Na  Na58  1  0.00133750  0.83277807  0.49909777  1
  Na  Na59  1  -0.00399577  0.83422741  0.75042185  1
  Na  Na60  1  0.50135754  0.16638478  0.00009686  1
  Na  Na61  1  0.50317647  0.16534488  0.25115470  1
  Na  Na62  1  0.50094728  0.16686274  0.50071167  1
  Na  Na63  1  0.50080909  0.16661440  0.74881088  1
  Na  Na64  1  0.49719045  0.50060952  -0.00031999  1
  Na  Na65  1  0.49918586  0.49945603  0.24971960  1
  Na  Na66  1  0.49932627  0.50037669  0.50017197  1
  Na  Na67  1  0.49968653  0.49994656  0.75017862  1
  Na  Na68  1  0.50056223  0.83301454  0.00011043  1
  Na  Na69  1  0.49772787  0.83414854  0.25132036  1
  Na  Na70  1  0.50137218  0.83243456  0.49914637  1
  Na  Na71  1  0.50228259  0.83235287  0.74915262  1
  Na  Na72  1  0.24751467  0.16786828  0.12383709  1
  Na  Na73  1  0.25034632  0.16639178  0.37450374  1
  Na  Na74  1  0.25128014  0.16641116  0.62571711  1
  Na  Na75  1  0.25129517  0.16633190  0.87585090  1
  Na  Na76  1  0.25107363  0.49955283  0.12345062  1
  Na  Na77  1  0.24861874  0.50093621  0.37463366  1
  Na  Na78  1  0.25290206  0.49941102  0.62524168  1
  Na  Na79  1  0.25263066  0.49969491  0.87585953  1
  Na  Na80  1  0.25031904  0.83290243  0.12517901  1
  Na  Na81  1  0.24846463  0.83355287  0.37371077  1
  Na  Na82  1  0.24909272  0.83337254  0.62557501  1
  Na  Na83  1  0.25044549  0.83326731  0.87597662  1
  Na  Na84  1  0.74974829  0.16697353  0.12526706  1
  Na  Na85  1  0.74781091  0.16750952  0.37379158  1
  Na  Na86  1  0.74772012  0.16783956  0.62485817  1
  Na  Na87  1  0.75083530  0.16622009  0.87628967  1
  Na  Na88  1  0.74948532  0.50041363  0.12495528  1
  Na  Na89  1  0.75071097  0.49946238  0.37438129  1
  Na  Na90  1  0.75044201  0.49921974  0.62558004  1
  Na  Na91  1  0.74973754  0.49996432  0.87543785  1
  Na  Na92  1  0.75278833  0.83243653  0.12505047  1
  Na  Na93  1  0.74855856  0.83375422  0.37460140  1
  Na  Na94  1  0.74979353  0.83274032  0.62554043  1
  Na  Na95  1  0.75169462  0.83246637  0.87430663  1
  Mn  Mn96  1  0.64158701  0.58381191  0.99798870  1
  Mn  Mn97  1  0.10754891  0.75058026  0.62358602  1
  Mn  Mn98  1  0.10761536  0.41714287  0.87196151  1
  Mn  Mn99  1  0.85784221  0.41665512  0.00268276  1
  Mn  Mn100  1  0.60812374  0.41738479  0.62289642  1
  Mn  Mn101  1  0.60717883  0.75036401  0.12339953  1
  Mn  Mn102  1  0.85839174  0.41722552  0.25215298  1
  Mn  Mn103  1  0.85727029  0.08382623  0.75240442  1
  Mn  Mn104  1  0.64291085  0.91622197  0.99841040  1
  Mn  Mn105  1  0.39174079  0.58311579  0.37702230  1
  Mn  Mn106  1  0.64276777  0.91630775  0.74784247  1
  Mn  Mn107  1  0.35864009  0.75017383  0.00226798  1
  Mn  Mn108  1  0.39175329  0.91724921  0.37767402  1
  Mn  Mn109  1  0.10834803  0.08289519  0.62339960  1
  Mn  Mn110  1  0.39201589  0.91601516  0.62687464  1
  Mn  Mn111  1  0.89116787  0.24919357  0.62702736  1
  Mn  Mn112  1  0.14284843  0.25048158  0.74863369  1
  Mn  Mn113  1  0.10779694  0.41642235  0.62369893  1
  Mn  Mn114  1  0.14274512  0.58269500  0.99701030  1
  Mn  Mn115  1  0.39314847  0.91658492  0.87703947  1
  Mn  Mn116  1  0.60788675  0.08269092  0.62239211  1
  Mn  Mn117  1  0.35754204  0.08352875  0.25173974  1
  Mn  Mn118  1  0.85703665  0.08340730  0.50203477  1
  Mn  Mn119  1  0.64220137  0.91651253  0.24704873  1
  Mn  Mn120  1  0.39239993  0.24895468  0.12777623  1
  Mn  Mn121  1  0.39236980  0.25061581  0.62694064  1
  Mn  Mn122  1  0.39306070  0.24964738  0.37706106  1
  Mn  Mn123  1  0.60663740  0.41688414  0.12274564  1
  Mn  Mn124  1  0.14164679  0.25051975  0.24726958  1
  Mn  Mn125  1  0.10655433  0.08297515  0.87265957  1
  Mn  Mn126  1  0.89315475  0.58274904  0.12780569  1
  Mn  Mn127  1  0.10846561  0.08347899  0.37293570  1
  Mn  Mn128  1  0.64190898  0.58348517  0.24739858  1
  Mn  Mn129  1  0.10777518  0.41694243  0.37334742  1
  Mn  Mn130  1  0.89308618  0.91680864  0.37755446  1
  Mn  Mn131  1  0.89302039  0.58292434  0.37705010  1
  Mn  Mn132  1  0.14134684  0.91657341  0.74821340  1
  Mn  Mn133  1  0.10637182  0.75001262  0.87282100  1
  Mn  Mn134  1  0.89133350  0.58408155  0.62760179  1
  Mn  Mn135  1  0.85784894  0.08313453  0.25219100  1
  Mn  Mn136  1  0.64169550  0.58311219  0.49719050  1
  Mn  Mn137  1  0.64250856  0.24988782  0.99759983  1
  Mn  Mn138  1  0.14279764  0.58336907  0.49827857  1
  Mn  Mn139  1  0.35861574  0.75035443  0.75274279  1
  Mn  Mn140  1  0.85744288  0.74982347  0.50152720  1
  Mn  Mn141  1  0.14165242  0.91708462  0.99775854  1
  Mn  Mn142  1  0.35836838  0.08358594  0.00277571  1
  Mn  Mn143  1  0.35828952  0.41649177  0.50195244  1
  Fe  Fe144  1  0.64255154  0.24984194  0.49758606  1
  Fe  Fe145  1  0.35671006  0.41680470  0.25161962  1
  Fe  Fe146  1  0.14276104  0.24946389  0.49884662  1
  Fe  Fe147  1  0.39357727  0.58320615  0.87571574  1
  Fe  Fe148  1  0.14333409  0.58307786  0.74893912  1
  Fe  Fe149  1  0.60764266  0.74982664  0.62284039  1
  Fe  Fe150  1  0.89180445  0.91675305  0.62534832  1
  Fe  Fe151  1  0.85739037  0.74983238  0.00209207  1
  Fe  Fe152  1  0.89356061  0.91696119  0.12741272  1
  Fe  Fe153  1  0.85641987  0.41703060  0.75196808  1
  Fe  Fe154  1  0.89125800  0.91670511  0.87771287  1
  Fe  Fe155  1  0.14248174  0.91694805  0.49898062  1
  Fe  Fe156  1  0.14308985  0.58339697  0.24779283  1
  Fe  Fe157  1  0.10855580  0.74957285  0.37296764  1
  Fe  Fe158  1  0.39248598  0.91680598  0.12668840  1
  Fe  Fe159  1  0.64245693  0.91701310  0.49841772  1
  Fe  Fe160  1  0.10822604  0.41615534  0.12284471  1
  Fe  Fe161  1  0.35815409  0.08371255  0.75230915  1
  Fe  Fe162  1  0.85661322  0.41632051  0.50114700  1
  Fe  Fe163  1  0.35743408  0.08286595  0.50100730  1
  Fe  Fe164  1  0.60798591  0.08370903  0.87334609  1
  Fe  Fe165  1  0.89178993  0.58322997  0.87635962  1
  Fe  Fe166  1  0.64243965  0.58275423  0.74897484  1
  Fe  Fe167  1  0.60802784  0.41703943  0.37261325  1
  Fe  Fe168  1  0.60665131  0.41672652  0.87347295  1
  Fe  Fe169  1  0.60843025  0.74962274  0.87345078  1
  Fe  Fe170  1  0.10691613  0.75015165  0.12288850  1
  Fe  Fe171  1  0.14271437  0.91618059  0.24705637  1
  Fe  Fe172  1  0.60763189  0.08256942  0.12331704  1
  Fe  Fe173  1  0.85739947  0.08300869  0.00243591  1
  Fe  Fe174  1  0.39360547  0.25003737  0.87645139  1
  Fe  Fe175  1  0.89369353  0.25012055  0.12640158  1
  Fe  Fe176  1  0.60760936  0.08305064  0.37356298  1
  Fe  Fe177  1  0.85821451  0.74964278  0.25227097  1
  Fe  Fe178  1  0.14246281  0.25038759  0.99770772  1
  Fe  Fe179  1  0.39183071  0.58416479  0.12751283  1
  Fe  Fe180  1  0.64254567  0.25083059  0.74949651  1
  Fe  Fe181  1  0.35697971  0.75085597  0.50151778  1
  Fe  Fe182  1  0.89171990  0.25014758  0.87712069  1
  Fe  Fe183  1  0.35828743  0.41640892  0.75228054  1
  Fe  Fe184  1  0.10654320  0.08382826  0.12279818  1
  Fe  Fe185  1  0.89203191  0.25003244  0.37717901  1
  Fe  Fe186  1  0.35592877  0.74990213  0.25142660  1
  Fe  Fe187  1  0.39288752  0.58392547  0.62736280  1
  Fe  Fe188  1  0.35772807  0.41601324  0.00184831  1
  Fe  Fe189  1  0.60653735  0.74984257  0.37255427  1
  Fe  Fe190  1  0.85640608  0.74871819  0.75185316  1
  Fe  Fe191  1  0.64320826  0.25025368  0.24803257  1
  P  P192  1  0.05318362  0.25043279  0.10903404  1
  P  P193  1  0.05326921  0.25009684  0.36133254  1
  P  P194  1  0.05385068  0.24985129  0.60985689  1
  P  P195  1  0.05243727  0.25022675  0.86079001  1
  P  P196  1  0.05535867  0.58312888  0.11089133  1
  P  P197  1  0.05478209  0.58401541  0.35936514  1
  P  P198  1  0.05431855  0.58331545  0.61150213  1
  P  P199  1  0.05216316  0.58340189  0.85904393  1
  P  P200  1  0.05347172  0.91634067  0.11123637  1
  P  P201  1  0.05622415  0.91580960  0.36027535  1
  P  P202  1  0.05210894  0.91663329  0.60943128  1
  P  P203  1  0.05058177  0.91646545  0.86032318  1
  P  P204  1  0.55473699  0.24903760  0.11128606  1
  P  P205  1  0.55598912  0.24999661  0.36065149  1
  P  P206  1  0.55550136  0.25041383  0.61045125  1
  P  P207  1  0.55313656  0.25032162  0.85970659  1
  P  P208  1  0.55110196  0.58367009  0.11015161  1
  P  P209  1  0.55313513  0.58355261  0.35980517  1
  P  P210  1  0.55350503  0.58384223  0.61110594  1
  P  P211  1  0.55298703  0.58302937  0.85973890  1
  P  P212  1  0.55203128  0.91715759  0.11015379  1
  P  P213  1  0.55468146  0.91657275  0.36146016  1
  P  P214  1  0.55413325  0.91575501  0.60919755  1
  P  P215  1  0.55428159  0.91669983  0.85999013  1
  P  P216  1  0.44840250  0.08232309  0.14058562  1
  P  P217  1  0.44759896  0.08351511  0.39079661  1
  P  P218  1  0.44472586  0.08321741  0.63921276  1
  P  P219  1  0.44725891  0.08446933  0.88871707  1
  P  P220  1  0.44417733  0.41712444  0.13963065  1
  P  P221  1  0.44725967  0.41631475  0.38867029  1
  P  P222  1  0.44616741  0.41747853  0.64049531  1
  P  P223  1  0.44610294  0.41624982  0.88912829  1
  P  P224  1  0.44557539  0.75056790  0.14101422  1
  P  P225  1  0.44515734  0.75020496  0.38947934  1
  P  P226  1  0.44677042  0.74968045  0.63856062  1
  P  P227  1  0.44886076  0.74921126  0.88966623  1
  P  P228  1  0.94665266  0.08379230  0.13881702  1
  P  P229  1  0.94676941  0.08417420  0.39002529  1
  P  P230  1  0.94639839  0.08242626  0.63980686  1
  P  P231  1  0.94493566  0.08357604  0.89083262  1
  P  P232  1  0.94871447  0.41574031  0.13985598  1
  P  P233  1  0.94603496  0.41588779  0.39112270  1
  P  P234  1  0.94399939  0.41636718  0.63973236  1
  P  P235  1  0.94465552  0.41726836  0.88846524  1
  P  P236  1  0.94608401  0.75040682  0.13958786  1
  P  P237  1  0.94783183  0.74960710  0.38898196  1
  P  P238  1  0.94523897  0.75115175  0.64035047  1
  P  P239  1  0.94370903  0.74913411  0.88935989  1
  P  P240  1  0.19562645  0.08293426  0.23369731  1
  P  P241  1  0.19799162  0.08337896  0.48532412  1
  P  P242  1  0.19820958  0.08348568  0.73579274  1
  P  P243  1  0.19492368  0.08438505  0.98600659  1
  P  P244  1  0.19712618  0.41753344  0.23408317  1
  P  P245  1  0.19699435  0.41594746  0.48544489  1
  P  P246  1  0.19863635  0.41767069  0.73566875  1
  P  P247  1  0.19663527  0.41567524  0.98554408  1
  P  P248  1  0.19557276  0.74963203  0.23505114  1
  P  P249  1  0.19718162  0.75062919  0.48469394  1
  P  P250  1  0.19676533  0.74897668  0.73583990  1
  P  P251  1  0.19552097  0.75018155  0.98576790  1
  P  P252  1  0.69490514  0.08391555  0.23523192  1
  P  P253  1  0.69603732  0.08298469  0.48416821  1
  P  P254  1  0.69520863  0.08453034  0.73646911  1
  P  P255  1  0.69650048  0.08272219  0.98585888  1
  P  P256  1  0.69572568  0.41619871  0.23544118  1
  P  P257  1  0.69696544  0.41618817  0.48410369  1
  P  P258  1  0.69595197  0.41671296  0.73701708  1
  P  P259  1  0.69562549  0.41686639  0.98455399  1
  P  P260  1  0.69708846  0.74999744  0.23557233  1
  P  P261  1  0.69446320  0.75100700  0.48523421  1
  P  P262  1  0.69556995  0.74855654  0.73567577  1
  P  P263  1  0.69754310  0.75036028  0.98470094  1
  P  P264  1  0.30401558  0.25056383  0.01378932  1
  P  P265  1  0.30313409  0.25070303  0.26480026  1
  P  P266  1  0.30253883  0.24911728  0.51470846  1
  P  P267  1  0.30472799  0.25013534  0.76599611  1
  P  P268  1  0.30620756  0.58267784  0.01387301  1
  P  P269  1  0.30317032  0.58337392  0.26322421  1
  P  P270  1  0.30451096  0.58456822  0.51557700  1
  P  P271  1  0.30466405  0.58283106  0.76487574  1
  P  P272  1  0.30418407  0.91685669  0.01599534  1
  P  P273  1  0.30320558  0.91619319  0.26338883  1
  P  P274  1  0.30188243  0.91641192  0.51456242  1
  P  P275  1  0.30319507  0.91734225  0.76569097  1
  P  P276  1  0.80527119  0.24916436  0.01504786  1
  P  P277  1  0.80464373  0.24998043  0.26409870  1
  P  P278  1  0.80245997  0.25052374  0.51345963  1
  P  P279  1  0.80225769  0.25075611  0.76583363  1
  P  P280  1  0.80425755  0.58394419  0.01435949  1
  P  P281  1  0.80361914  0.58438099  0.26518149  1
  P  P282  1  0.80298362  0.58254454  0.51474208  1
  P  P283  1  0.80212480  0.58329970  0.76547171  1
  P  P284  1  0.80557069  0.91658505  0.01490097  1
  P  P285  1  0.80529553  0.91581279  0.26389211  1
  P  P286  1  0.80209931  0.91655300  0.51518898  1
  P  P287  1  0.80513505  0.91562569  0.76410528  1
  O  O288  1  0.05624019  0.25063772  0.18586711  1
  O  O289  1  0.05870214  0.24988773  0.43796709  1
  O  O290  1  0.05721720  0.25000874  0.68669029  1
  O  O291  1  0.05782087  0.25068983  0.93741357  1
  O  O292  1  0.05931039  0.58285808  0.18766879  1
  O  O293  1  0.05732056  0.58357123  0.43623815  1
  O  O294  1  0.05902108  0.58290340  0.68819417  1
  O  O295  1  0.05660041  0.58314566  0.93581902  1
  O  O296  1  0.05814966  0.91622524  0.18796594  1
  O  O297  1  0.06024603  0.91658158  0.43712989  1
  O  O298  1  0.05549804  0.91671481  0.68621875  1
  O  O299  1  0.05512904  0.91636501  0.93700055  1
  O  O300  1  0.55877783  0.24990141  0.18804247  1
  O  O301  1  0.55938209  0.25032973  0.43758436  1
  O  O302  1  0.55953114  0.25060228  0.68721770  1
  O  O303  1  0.55644373  0.25022476  0.93650134  1
  O  O304  1  0.55532089  0.58359546  0.18683186  1
  O  O305  1  0.55577663  0.58343942  0.43663871  1
  O  O306  1  0.55850039  0.58291647  0.68776602  1
  O  O307  1  0.55585716  0.58306888  0.93650959  1
  O  O308  1  0.55560064  0.91648048  0.18690779  1
  O  O309  1  0.55852700  0.91668145  0.43816098  1
  O  O310  1  0.55737755  0.91654308  0.68600845  1
  O  O311  1  0.55692373  0.91666487  0.93677967  1
  O  O312  1  0.44470497  0.08329042  0.06381681  1
  O  O313  1  0.44328117  0.08337797  0.31410206  1
  O  O314  1  0.44021985  0.08322986  0.56243446  1
  O  O315  1  0.44254540  0.08386991  0.81199966  1
  O  O316  1  0.44076175  0.41610118  0.06274041  1
  O  O317  1  0.44158945  0.41629533  0.31204700  1
  O  O318  1  0.44345625  0.41649142  0.56362547  1
  O  O319  1  0.44207916  0.41624380  0.81234789  1
  O  O320  1  0.44366954  0.75044565  0.06413894  1
  O  O321  1  0.43957750  0.75036177  0.31283796  1
  O  O322  1  0.44167232  0.75069178  0.56192650  1
  O  O323  1  0.44533970  0.74980527  0.81293389  1
  O  O324  1  0.94216916  0.08341022  0.06215668  1
  O  O325  1  0.94371691  0.08371629  0.31321978  1
  O  O326  1  0.94348196  0.08328812  0.56301051  1
  O  O327  1  0.94239776  0.08381767  0.81401067  1
  O  O328  1  0.94455588  0.41682648  0.06316339  1
  O  O329  1  0.94353706  0.41646679  0.31425248  1
  O  O330  1  0.93979662  0.41646213  0.56296490  1
  O  O331  1  0.94024284  0.41703309  0.81169174  1
  O  O332  1  0.94133313  0.74965248  0.06285644  1
  O  O333  1  0.94294219  0.74952886  0.31230440  1
  O  O334  1  0.94279513  0.74981800  0.56349326  1
  O  O335  1  0.94001659  0.74884624  0.81254966  1
  O  O336  1  0.18992950  0.08366661  0.06274309  1
  O  O337  1  0.19318886  0.08375545  0.31056038  1
  O  O338  1  0.19488354  0.08343965  0.56205426  1
  O  O339  1  0.19372897  0.08322640  0.81250019  1
  O  O340  1  0.19167943  0.41614049  0.06221582  1
  O  O341  1  0.19342825  0.41679405  0.31083408  1
  O  O342  1  0.19404742  0.41643821  0.56221182  1
  O  O343  1  0.19470552  0.41728891  0.81241174  1
  O  O344  1  0.19095148  0.75037609  0.06253686  1
  O  O345  1  0.19188278  0.74962190  0.31183742  1
  O  O346  1  0.19355416  0.74997220  0.56144545  1
  O  O347  1  0.19328101  0.74968087  0.81261544  1
  O  O348  1  0.69158083  0.08274638  0.06257374  1
  O  O349  1  0.69082337  0.08284525  0.31197956  1
  O  O350  1  0.69372953  0.08297161  0.56110260  1
  O  O351  1  0.69163544  0.08371090  0.81331103  1
  O  O352  1  0.69226294  0.41692277  0.06136899  1
  O  O353  1  0.69170352  0.41695128  0.31221500  1
  O  O354  1  0.69367960  0.41707772  0.56092985  1
  O  O355  1  0.69110032  0.41680771  0.81365542  1
  O  O356  1  0.69329580  0.75040672  0.06141178  1
  O  O357  1  0.69138836  0.75007714  0.31220210  1
  O  O358  1  0.69080608  0.75000234  0.56212350  1
  O  O359  1  0.69125740  0.74938463  0.81246311  1
  O  O360  1  0.30613729  0.24970964  0.18799756  1
  O  O361  1  0.30628658  0.24988448  0.43798244  1
  O  O362  1  0.30713314  0.25011683  0.68917276  1
  O  O363  1  0.30937360  0.24974759  0.93718547  1
  O  O364  1  0.30726269  0.58358689  0.18647739  1
  O  O365  1  0.30684901  0.58367001  0.43866339  1
  O  O366  1  0.30908329  0.58372683  0.68812234  1
  O  O367  1  0.31078208  0.58379326  0.93708146  1
  O  O368  1  0.30826063  0.91711467  0.18677776  1
  O  O369  1  0.30504436  0.91628507  0.43776959  1
  O  O370  1  0.30627624  0.91638661  0.68888804  1
  O  O371  1  0.30805446  0.91694480  0.93921106  1
  O  O372  1  0.80992850  0.25001935  0.18740308  1
  O  O373  1  0.80718645  0.24968919  0.43677160  1
  O  O374  1  0.80529449  0.24997394  0.68902401  1
  O  O375  1  0.80901839  0.25008276  0.93823168  1
  O  O376  1  0.80705935  0.58371468  0.18835211  1
  O  O377  1  0.80638690  0.58346744  0.43800522  1
  O  O378  1  0.80531810  0.58344245  0.68869936  1
  O  O379  1  0.80796350  0.58305187  0.93762759  1
  O  O380  1  0.80998088  0.91666844  0.18709021  1
  O  O381  1  0.80624131  0.91650734  0.43842837  1
  O  O382  1  0.80846628  0.91676873  0.68732753  1
  O  O383  1  0.80847567  0.91682067  0.93793753  1
  O  O384  1  0.23361967  0.25066356  0.03733202  1
  O  O385  1  0.23342048  0.25031295  0.28987692  1
  O  O386  1  0.23266324  0.24944620  0.53990730  1
  O  O387  1  0.23508639  0.25045628  0.79162303  1
  O  O388  1  0.23590446  0.58295591  0.03728752  1
  O  O389  1  0.23303399  0.58364221  0.28766212  1
  O  O390  1  0.23488388  0.58320975  0.54098132  1
  O  O391  1  0.23447115  0.58313413  0.78926366  1
  O  O392  1  0.23417270  0.91675899  0.04008477  1
  O  O393  1  0.23272561  0.91626490  0.28671769  1
  O  O394  1  0.23203595  0.91679983  0.53999486  1
  O  O395  1  0.23359280  0.91694072  0.79129491  1
  O  O396  1  0.73514316  0.25000305  0.03901888  1
  O  O397  1  0.73401581  0.24984907  0.28688498  1
  O  O398  1  0.73214789  0.25034314  0.53744166  1
  O  O399  1  0.73232018  0.25020394  0.79094189  1
  O  O400  1  0.73433807  0.58384184  0.03911836  1
  O  O401  1  0.73391781  0.58369737  0.29015447  1
  O  O402  1  0.73325675  0.58302298  0.53986378  1
  O  O403  1  0.73209781  0.58329958  0.79034878  1
  O  O404  1  0.73573031  0.91647928  0.03992432  1
  O  O405  1  0.73510112  0.91631434  0.28742133  1
  O  O406  1  0.73204848  0.91660670  0.53963774  1
  O  O407  1  0.73516849  0.91613254  0.78880667  1
  O  O408  1  0.26532567  0.08372714  0.20834914  1
  O  O409  1  0.26780435  0.08279074  0.45962394  1
  O  O410  1  0.26837394  0.08383838  0.71166734  1
  O  O411  1  0.26523266  0.08371016  0.96271663  1
  O  O412  1  0.26721031  0.41688038  0.20954757  1
  O  O413  1  0.26663694  0.41707097  0.45991291  1
  O  O414  1  0.26873791  0.41655353  0.71124927  1
  O  O415  1  0.26713750  0.41642994  0.96226037  1
  O  O416  1  0.26589008  0.74971033  0.21085516  1
  O  O417  1  0.26719565  0.75018234  0.45980095  1
  O  O418  1  0.26648511  0.74958215  0.71079150  1
  O  O419  1  0.26572983  0.74999511  0.96205012  1
  O  O420  1  0.76508032  0.08357293  0.21134310  1
  O  O421  1  0.76552449  0.08320865  0.45825259  1
  O  O422  1  0.76505810  0.08415411  0.71162517  1
  O  O423  1  0.76695519  0.08283065  0.96257277  1
  O  O424  1  0.76571347  0.41662556  0.21097207  1
  O  O425  1  0.76695598  0.41619040  0.45925791  1
  O  O426  1  0.76623908  0.41683936  0.71293918  1
  O  O427  1  0.76555187  0.41653541  0.96028003  1
  O  O428  1  0.76750188  0.75010072  0.21227805  1
  O  O429  1  0.76453217  0.75018215  0.46092194  1
  O  O430  1  0.76595864  0.74919232  0.71194484  1
  O  O431  1  0.76773920  0.75025950  0.96077000  1
  O  O432  1  0.01693975  0.08388870  0.16300371  1
  O  O433  1  0.01647794  0.08355918  0.41507842  1
  O  O434  1  0.01585213  0.08287771  0.66568980  1
  O  O435  1  0.01460756  0.08316773  0.91626305  1
  O  O436  1  0.01879362  0.41554162  0.16432236  1
  O  O437  1  0.01566485  0.41687772  0.41652411  1
  O  O438  1  0.01412456  0.41601490  0.66382389  1
  O  O439  1  0.01474193  0.41747708  0.91262028  1
  O  O440  1  0.01663743  0.74988933  0.16285350  1
  O  O441  1  0.01813879  0.74986960  0.41274715  1
  O  O442  1  0.01483809  0.75055508  0.66590388  1
  O  O443  1  0.01366518  0.74986235  0.91409377  1
  O  O444  1  0.51831736  0.08256007  0.16544869  1
  O  O445  1  0.51786126  0.08363592  0.41461226  1
  O  O446  1  0.51503978  0.08308707  0.66261866  1
  O  O447  1  0.51764149  0.08396122  0.91254290  1
  O  O448  1  0.51419746  0.41636339  0.16396207  1
  O  O449  1  0.51767561  0.41674183  0.41212738  1
  O  O450  1  0.51590962  0.41679083  0.66549487  1
  O  O451  1  0.51643005  0.41670275  0.91335819  1
  O  O452  1  0.51509562  0.75047608  0.16694493  1
  O  O453  1  0.51575212  0.75008035  0.41232410  1
  O  O454  1  0.51715776  0.74970849  0.66221881  1
  O  O455  1  0.51884429  0.74939394  0.91464014  1
  O  O456  1  0.48477768  0.24963499  0.08680847  1
  O  O457  1  0.48599064  0.24937686  0.33606602  1
  O  O458  1  0.48539795  0.25058960  0.58635647  1
  O  O459  1  0.48314732  0.25016441  0.83480244  1
  O  O460  1  0.48098277  0.58390869  0.08599956  1
  O  O461  1  0.48348734  0.58333117  0.33445058  1
  O  O462  1  0.48322477  0.58368092  0.58718656  1
  O  O463  1  0.48293370  0.58299710  0.83473075  1
  O  O464  1  0.48219573  0.91670686  0.08504252  1
  O  O465  1  0.48460195  0.91675693  0.33715344  1
  O  O466  1  0.48437384  0.91645304  0.58427696  1
  O  O467  1  0.48479466  0.91664386  0.83403480  1
  O  O468  1  0.98310404  0.25050449  0.08429709  1
  O  O469  1  0.98291156  0.25012309  0.33771920  1
  O  O470  1  0.98391198  0.24992784  0.58540864  1
  O  O471  1  0.98193595  0.24995011  0.83751828  1
  O  O472  1  0.98535366  0.58358616  0.08643762  1
  O  O473  1  0.98518481  0.58298497  0.33382572  1
  O  O474  1  0.98417120  0.58408871  0.58761148  1
  O  O475  1  0.98187908  0.58323624  0.83530263  1
  O  O476  1  0.98303747  0.91641354  0.08757013  1
  O  O477  1  0.98608218  0.91671148  0.33628462  1
  O  O478  1  0.98219813  0.91625205  0.58438480  1
  O  O479  1  0.98022861  0.91651961  0.83680015  1
  O  O480  1  0.08742846  0.31529869  0.07618701  1
  O  O481  1  0.08645966  0.31526966  0.32788778  1
  O  O482  1  0.08805996  0.31478596  0.57719642  1
  O  O483  1  0.08549642  0.31525100  0.82702321  1
  O  O484  1  0.08901894  0.64833604  0.07811421  1
  O  O485  1  0.08876634  0.64923424  0.32703643  1
  O  O486  1  0.08811635  0.64830736  0.57848069  1
  O  O487  1  0.08592096  0.64852021  0.82636698  1
  O  O488  1  0.08647278  0.98159055  0.07794554  1
  O  O489  1  0.09031642  0.98056294  0.32699350  1
  O  O490  1  0.08628017  0.98167370  0.57680718  1
  O  O491  1  0.08405832  0.98154495  0.82720844  1
  O  O492  1  0.58848862  0.31387964  0.07789338  1
  O  O493  1  0.58947912  0.31513732  0.32748051  1
  O  O494  1  0.58932338  0.31529392  0.57729724  1
  O  O495  1  0.58693698  0.31560459  0.82709891  1
  O  O496  1  0.58501861  0.64873255  0.07742512  1
  O  O497  1  0.58701538  0.64899618  0.32759918  1
  O  O498  1  0.58687851  0.64892465  0.57798408  1
  O  O499  1  0.58720169  0.64797372  0.82716863  1
  O  O500  1  0.58611265  0.98224760  0.07773087  1
  O  O501  1  0.58832673  0.98168178  0.32846577  1
  O  O502  1  0.58872917  0.98062906  0.57662530  1
  O  O503  1  0.58848242  0.98193110  0.82783490  1
  O  O504  1  0.41446634  0.01714276  0.17294336  1
  O  O505  1  0.41376531  0.01848598  0.42380357  1
  O  O506  1  0.41122334  0.01826765  0.67258555  1
  O  O507  1  0.41366809  0.01957592  0.92218989  1
  O  O508  1  0.41010127  0.35243800  0.17298373  1
  O  O509  1  0.41445356  0.35114214  0.42243205  1
  O  O510  1  0.41158342  0.35270295  0.67316702  1
  O  O511  1  0.41288388  0.35099925  0.92244282  1
  O  O512  1  0.41088020  0.68548664  0.17303354  1
  O  O513  1  0.41194993  0.68519737  0.42297913  1
  O  O514  1  0.41358662  0.68448320  0.67181625  1
  O  O515  1  0.41481587  0.68411658  0.92197043  1
  O  O516  1  0.91333640  0.01882433  0.17238919  1
  O  O517  1  0.91256573  0.01907062  0.42241527  1
  O  O518  1  0.91209002  0.01712256  0.67148701  1
  O  O519  1  0.91037777  0.01854122  0.92304955  1
  O  O520  1  0.91464411  0.35068204  0.17223951  1
  O  O521  1  0.91197729  0.35055491  0.42320930  1
  O  O522  1  0.90998786  0.35149990  0.67277423  1
  O  O523  1  0.91129740  0.35209965  0.92169209  1
  O  O524  1  0.91265079  0.68553294  0.17336790  1
  O  O525  1  0.91455479  0.68458747  0.42245285  1
  O  O526  1  0.91039448  0.68651649  0.67330845  1
  O  O527  1  0.91051184  0.68375943  0.92248809  1
  O  O528  1  0.16159197  0.01756342  0.20175089  1
  O  O529  1  0.16351770  0.01840016  0.45307779  1
  O  O530  1  0.16461245  0.01835894  0.70275526  1
  O  O531  1  0.16146410  0.01934730  0.95255790  1
  O  O532  1  0.16291793  0.35260085  0.20112077  1
  O  O533  1  0.16337076  0.35055323  0.45307924  1
  O  O534  1  0.16427174  0.35276386  0.70312263  1
  O  O535  1  0.16363366  0.35053469  0.95209959  1
  O  O536  1  0.16205569  0.68459532  0.20189742  1
  O  O537  1  0.16304929  0.68565617  0.45170382  1
  O  O538  1  0.16306725  0.68359193  0.70353570  1
  O  O539  1  0.16206951  0.68507743  0.95270811  1
  O  O540  1  0.66124418  0.01901434  0.20158688  1
  O  O541  1  0.66174144  0.01780737  0.45201678  1
  O  O542  1  0.66144104  0.01953494  0.70330530  1
  O  O543  1  0.66317929  0.01776788  0.95238836  1
  O  O544  1  0.66230909  0.35080973  0.20285667  1
  O  O545  1  0.66274376  0.35124955  0.45173469  1
  O  O546  1  0.66287846  0.35151154  0.70366029  1
  O  O547  1  0.66141753  0.35192758  0.95188831  1
  O  O548  1  0.66390338  0.68495000  0.20196072  1
  O  O549  1  0.66017405  0.68630214  0.45201086  1
  O  O550  1  0.66232908  0.68327614  0.70270829  1
  O  O551  1  0.66356865  0.68539960  0.95174602  1
  O  O552  1  0.33740491  0.31570693  0.04681801  1
  O  O553  1  0.33708566  0.31605703  0.29689562  1
  O  O554  1  0.33665447  0.31415091  0.54752158  1
  O  O555  1  0.33933669  0.31519665  0.79808754  1
  O  O556  1  0.33961103  0.64759319  0.04765055  1
  O  O557  1  0.33675705  0.64840775  0.29636348  1
  O  O558  1  0.33799550  0.65027026  0.54753526  1
  O  O559  1  0.33859761  0.64762994  0.79837396  1
  O  O560  1  0.33821182  0.98183551  0.04885732  1
  O  O561  1  0.33633590  0.98118670  0.29730416  1
  O  O562  1  0.33637875  0.98131922  0.54672637  1
  O  O563  1  0.33738266  0.98262728  0.79765777  1
  O  O564  1  0.83937830  0.31392391  0.04837173  1
  O  O565  1  0.83776337  0.31497102  0.29783557  1
  O  O566  1  0.83572097  0.31565935  0.54656921  1
  O  O567  1  0.83620442  0.31589629  0.79822899  1
  O  O568  1  0.83802130  0.64923739  0.04681333  1
  O  O569  1  0.83745391  0.64959377  0.29765597  1
  O  O570  1  0.83715533  0.64757923  0.54745704  1
  O  O571  1  0.83625542  0.64833775  0.79803898  1
  O  O572  1  0.83951095  0.98168886  0.04772559  1
  O  O573  1  0.83867932  0.98088298  0.29726915  1
  O  O574  1  0.83607955  0.98153609  0.54806892  1
  O  O575  1  0.83908755  0.98038496  0.79760634  1
  O  O576  1  0.41450974  0.14734382  0.17357391  1
  O  O577  1  0.41377730  0.14845477  0.42377418  1
  O  O578  1  0.41155777  0.14839156  0.67255223  1
  O  O579  1  0.41423607  0.14969344  0.92212460  1
  O  O580  1  0.41083949  0.48262754  0.17214165  1
  O  O581  1  0.41372646  0.48126926  0.42201079  1
  O  O582  1  0.41226468  0.48279748  0.67260919  1
  O  O583  1  0.41226827  0.48126011  0.92197113  1
  O  O584  1  0.41111821  0.81570521  0.17305131  1
  O  O585  1  0.41205994  0.81523155  0.42331967  1
  O  O586  1  0.41365797  0.81463808  0.67245178  1
  O  O587  1  0.41478912  0.81416090  0.92248351  1
  O  O588  1  0.91342558  0.14917400  0.17170839  1
  O  O589  1  0.91275520  0.14930716  0.42239245  1
  O  O590  1  0.91182367  0.14734033  0.67235616  1
  O  O591  1  0.91079710  0.14874691  0.92319761  1
  O  O592  1  0.91513609  0.48081288  0.17311255  1
  O  O593  1  0.91116223  0.48066967  0.42344069  1
  O  O594  1  0.91043508  0.48150586  0.67290372  1
  O  O595  1  0.91119824  0.48246320  0.92156920  1
  O  O596  1  0.91301456  0.81558007  0.17292033  1
  O  O597  1  0.91425743  0.81462938  0.42222213  1
  O  O598  1  0.91103302  0.81654400  0.67180729  1
  O  O599  1  0.90953422  0.81410116  0.92215117  1
  O  O600  1  0.08703796  0.18520806  0.07655301  1
  O  O601  1  0.08657281  0.18519439  0.32762403  1
  O  O602  1  0.08792102  0.18473788  0.57727843  1
  O  O603  1  0.08566854  0.18507686  0.82759836  1
  O  O604  1  0.08852006  0.51776794  0.07772439  1
  O  O605  1  0.08973341  0.51921880  0.32706754  1
  O  O606  1  0.08726412  0.51806846  0.57806881  1
  O  O607  1  0.08622938  0.51857564  0.82590775  1
  O  O608  1  0.08646599  0.85119126  0.07773276  1
  O  O609  1  0.08941792  0.85041527  0.32738783  1
  O  O610  1  0.08659351  0.85173975  0.57693075  1
  O  O611  1  0.08398932  0.85146446  0.82709958  1
  O  O612  1  0.58810263  0.18363471  0.07855312  1
  O  O613  1  0.59011217  0.18486857  0.32824056  1
  O  O614  1  0.58906785  0.18527452  0.57739892  1
  O  O615  1  0.58748054  0.18547867  0.82705962  1
  O  O616  1  0.58462663  0.51859415  0.07712527  1
  O  O617  1  0.58746998  0.51854855  0.32750353  1
  O  O618  1  0.58676591  0.51877576  0.57749211  1
  O  O619  1  0.58688525  0.51787421  0.82705222  1
  O  O620  1  0.58630604  0.85214823  0.07756779  1
  O  O621  1  0.58803613  0.85130824  0.32821131  1
  O  O622  1  0.58810573  0.85056521  0.57701154  1
  O  O623  1  0.58849995  0.85140079  0.82794196  1
  O  O624  1  0.33710346  0.18556049  0.04776194  1
  O  O625  1  0.33749259  0.18573846  0.29732287  1
  O  O626  1  0.33650628  0.18396852  0.54701575  1
  O  O627  1  0.33899057  0.18500301  0.79838059  1
  O  O628  1  0.33938658  0.51733548  0.04665965  1
  O  O629  1  0.33650826  0.51808416  0.29633628  1
  O  O630  1  0.33987685  0.52012456  0.54792946  1
  O  O631  1  0.33832671  0.51757534  0.79760286  1
  O  O632  1  0.33821900  0.85178651  0.04853866  1
  O  O633  1  0.33621310  0.85093946  0.29667180  1
  O  O634  1  0.33564801  0.85113252  0.54722802  1
  O  O635  1  0.33761259  0.85228799  0.79815301  1
  O  O636  1  0.83844879  0.18375433  0.04784016  1
  O  O637  1  0.83774382  0.18500953  0.29789087  1
  O  O638  1  0.83563113  0.18549977  0.54725963  1
  O  O639  1  0.83672226  0.18592176  0.79853143  1
  O  O640  1  0.83802442  0.51897755  0.04769751  1
  O  O641  1  0.83797098  0.51927702  0.29741902  1
  O  O642  1  0.83668832  0.51718499  0.54694844  1
  O  O643  1  0.83627919  0.51838781  0.79818269  1
  O  O644  1  0.83962051  0.85137111  0.04721945  1
  O  O645  1  0.83854545  0.85060525  0.29699542  1
  O  O646  1  0.83612456  0.85157034  0.54793410  1
  O  O647  1  0.83849185  0.85012138  0.79651225  1
  O  O648  1  0.16075311  0.14774315  0.20138950  1
  O  O649  1  0.16418628  0.14864521  0.45270097  1
  O  O650  1  0.16444889  0.14857330  0.70304086  1
  O  O651  1  0.16199577  0.14980465  0.95293178  1
  O  O652  1  0.16353026  0.48272097  0.20136378  1
  O  O653  1  0.16241915  0.48085641  0.45303726  1
  O  O654  1  0.16524571  0.48294775  0.70290919  1
  O  O655  1  0.16330638  0.48068768  0.95199964  1
  O  O656  1  0.16190735  0.81471373  0.20189823  1
  O  O657  1  0.16326945  0.81579654  0.45226284  1
  O  O658  1  0.16242271  0.81395281  0.70321200  1
  O  O659  1  0.16211089  0.81527559  0.95258185  1
  O  O660  1  0.66151286  0.14918174  0.20245911  1
  O  O661  1  0.66142234  0.14799917  0.45213993  1
  O  O662  1  0.66158400  0.14976002  0.70402611  1
  O  O663  1  0.66301038  0.14771763  0.95237147  1
  O  O664  1  0.66184531  0.48112480  0.20227201  1
  O  O665  1  0.66292864  0.48119862  0.45119057  1
  O  O666  1  0.66271524  0.48184303  0.70346469  1
  O  O667  1  0.66159368  0.48187371  0.95189803  1
  O  O668  1  0.66391403  0.81501789  0.20186270  1
  O  O669  1  0.66123149  0.81637771  0.45251755  1
  O  O670  1  0.66185827  0.81337380  0.70207784  1
  O  O671  1  0.66394459  0.81536938  0.95157830  1
