# generated using pymatgen
data_Na2MnFe(PO4)2
_symmetry_space_group_name_H-M   'P 1'
_cell_length_a   21.07451823
_cell_length_b   18.92511767
_cell_length_c   20.03440819
_cell_angle_alpha   90.00032822
_cell_angle_beta   90.00216472
_cell_angle_gamma   89.99854937
_symmetry_Int_Tables_number   1
_chemical_formula_structural   Na2MnFe(PO4)2
_chemical_formula_sum   'Na96 Mn48 Fe48 P96 O384'
_cell_volume   7990.47802378
_cell_formula_units_Z   48
loop_
 _symmetry_equiv_pos_site_id
 _symmetry_equiv_pos_as_xyz
  1  'x, y, z'
loop_
 _atom_site_type_symbol
 _atom_site_label
 _atom_site_symmetry_multiplicity
 _atom_site_fract_x
 _atom_site_fract_y
 _atom_site_fract_z
 _atom_site_occupancy
  Na  Na0  1  0.00164402  0.00040300  -0.00038769  1
  Na  Na1  1  0.00081831  0.00067095  0.24998750  1
  Na  Na2  1  -0.00167081  -0.00043463  0.50114282  1
  Na  Na3  1  0.00108957  0.00052365  0.74890444  1
  Na  Na4  1  -0.00013921  0.33267711  0.00027174  1
  Na  Na5  1  0.00169161  0.33356769  0.25115569  1
  Na  Na6  1  -0.00009643  0.33302170  0.49986944  1
  Na  Na7  1  0.00033243  0.33382517  0.74849313  1
  Na  Na8  1  0.00157764  0.66634314  0.00011603  1
  Na  Na9  1  0.00079742  0.66624521  0.24997230  1
  Na  Na10  1  -0.00150131  0.66584205  0.50031807  1
  Na  Na11  1  0.00005333  0.66610088  0.75070182  1
  Na  Na12  1  0.49863790  0.00014186  0.00056995  1
  Na  Na13  1  0.49902104  -0.00013049  0.25044687  1
  Na  Na14  1  0.50156275  0.00092068  0.49998052  1
  Na  Na15  1  0.50141814  0.00125929  0.74871365  1
  Na  Na16  1  0.49974716  0.33410039  0.00041392  1
  Na  Na17  1  0.50190267  0.33458738  0.25049418  1
  Na  Na18  1  0.49985747  0.33303653  0.49976732  1
  Na  Na19  1  0.49959739  0.33370958  0.74921249  1
  Na  Na20  1  0.49914522  0.66577094  0.00071844  1
  Na  Na21  1  0.50195835  0.66712872  0.25051120  1
  Na  Na22  1  0.50131735  0.66602970  0.50005486  1
  Na  Na23  1  0.50113187  0.66659931  0.74888079  1
  Na  Na24  1  0.25250517  0.00125672  0.12573020  1
  Na  Na25  1  0.25064182  0.00051046  0.37424821  1
  Na  Na26  1  0.25190108  0.00130403  0.62477463  1
  Na  Na27  1  0.24979420  -0.00044296  0.87484478  1
  Na  Na28  1  0.24764805  0.33295151  0.12567564  1
  Na  Na29  1  0.24800846  0.33291131  0.37475446  1
  Na  Na30  1  0.25052836  0.33380192  0.62601623  1
  Na  Na31  1  0.25010571  0.33394778  0.87404149  1
  Na  Na32  1  0.24775828  0.66503818  0.12436850  1
  Na  Na33  1  0.24964390  0.66678175  0.37562823  1
  Na  Na34  1  0.24898280  0.66604597  0.62478074  1
  Na  Na35  1  0.25128652  0.66718698  0.87567123  1
  Na  Na36  1  0.74948009  0.00075949  0.12506453  1
  Na  Na37  1  0.74719906  -0.00080441  0.37564535  1
  Na  Na38  1  0.74908183  0.00093666  0.62544827  1
  Na  Na39  1  0.74682398  -0.00078027  0.87383812  1
  Na  Na40  1  0.75018159  0.33344336  0.12482700  1
  Na  Na41  1  0.75041500  0.33335789  0.37361126  1
  Na  Na42  1  0.75057873  0.33369920  0.62536967  1
  Na  Na43  1  0.74978351  0.33323975  0.87585934  1
  Na  Na44  1  0.74845458  0.66580734  0.12383045  1
  Na  Na45  1  0.75007617  0.66651270  0.37584505  1
  Na  Na46  1  0.74874189  0.66521987  0.62464682  1
  Na  Na47  1  0.75050441  0.66659750  0.87556668  1
  Na  Na48  1  -0.00032873  0.16698572  0.00073657  1
  Na  Na49  1  -0.00100659  0.16767232  0.25098237  1
  Na  Na50  1  -0.00001826  0.16643108  0.50028760  1
  Na  Na51  1  -0.00044508  0.16649368  0.74841956  1
  Na  Na52  1  0.00301845  0.49953597  0.00019651  1
  Na  Na53  1  0.00202477  0.49935813  0.24970741  1
  Na  Na54  1  -0.00188347  0.50067078  0.50103469  1
  Na  Na55  1  0.00085243  0.50010824  0.74929836  1
  Na  Na56  1  0.00105558  0.83337960  -0.00103624  1
  Na  Na57  1  0.00177404  0.83254589  0.25049970  1
  Na  Na58  1  -0.00058251  0.83353294  0.50005338  1
  Na  Na59  1  0.00143725  0.83297942  0.75026794  1
  Na  Na60  1  0.49942733  0.16619537  0.00004684  1
  Na  Na61  1  0.49956691  0.16665184  0.25031258  1
  Na  Na62  1  0.50071776  0.16591306  0.49921061  1
  Na  Na63  1  0.49967081  0.16644503  0.74946727  1
  Na  Na64  1  0.49991104  0.50007282  0.00129341  1
  Na  Na65  1  0.50222764  0.49937526  0.25013213  1
  Na  Na66  1  0.50153838  0.49961329  0.50055639  1
  Na  Na67  1  0.50099067  0.49935123  0.74821619  1
  Na  Na68  1  0.49772114  0.83390299  0.00023630  1
  Na  Na69  1  0.50078639  0.83294832  0.25094424  1
  Na  Na70  1  0.50173567  0.83329819  0.50017617  1
  Na  Na71  1  0.50217031  0.83206512  0.74919296  1
  Na  Na72  1  0.25123238  0.16595588  0.12510838  1
  Na  Na73  1  0.24891884  0.16726504  0.37512995  1
  Na  Na74  1  0.25102325  0.16624995  0.62549555  1
  Na  Na75  1  0.25176916  0.16599397  0.87396932  1
  Na  Na76  1  0.24737403  0.49979890  0.12487842  1
  Na  Na77  1  0.24815345  0.49987416  0.37488013  1
  Na  Na78  1  0.25110200  0.49936753  0.62553925  1
  Na  Na79  1  0.24820290  0.50102375  0.87535812  1
  Na  Na80  1  0.25089268  0.83287498  0.12519307  1
  Na  Na81  1  0.25099557  0.83288308  0.37474852  1
  Na  Na82  1  0.24843680  0.83410202  0.62460027  1
  Na  Na83  1  0.25076180  0.83282583  0.87543096  1
  Na  Na84  1  0.75120794  0.16674186  0.12520131  1
  Na  Na85  1  0.75055452  0.16650260  0.37445495  1
  Na  Na86  1  0.74867462  0.16735154  0.62490996  1
  Na  Na87  1  0.74998475  0.16667587  0.87502077  1
  Na  Na88  1  0.74856564  0.50049829  0.12436811  1
  Na  Na89  1  0.74903140  0.50064994  0.37458403  1
  Na  Na90  1  0.75034719  0.50009002  0.62539566  1
  Na  Na91  1  0.74916873  0.50037980  0.87516424  1
  Na  Na92  1  0.74746205  0.83417407  0.12444894  1
  Na  Na93  1  0.74849280  0.83333430  0.37579285  1
  Na  Na94  1  0.74759163  0.83473447  0.62537394  1
  Na  Na95  1  0.74846306  0.83360394  0.87483878  1
  Mn  Mn96  1  0.10834190  0.08311921  0.12274612  1
  Mn  Mn97  1  0.39229399  0.91581810  0.87651279  1
  Mn  Mn98  1  0.89159806  0.24982562  0.62651955  1
  Mn  Mn99  1  0.64223915  0.24980255  0.99785808  1
  Mn  Mn100  1  0.60689651  0.08348547  0.12279316  1
  Mn  Mn101  1  0.39300059  0.91641222  0.37774383  1
  Mn  Mn102  1  0.85808107  0.75055959  0.00255011  1
  Mn  Mn103  1  0.39200270  0.25067374  0.37750957  1
  Mn  Mn104  1  0.39239188  0.58291806  0.37675895  1
  Mn  Mn105  1  0.60696475  0.74945693  0.87252378  1
  Mn  Mn106  1  0.89348817  0.58307784  0.12714547  1
  Mn  Mn107  1  0.35783860  0.75027344  0.75129556  1
  Mn  Mn108  1  0.85748869  0.75028718  0.25115922  1
  Mn  Mn109  1  0.85775135  0.41688581  0.75308892  1
  Mn  Mn110  1  0.10861985  0.75022522  0.87230090  1
  Mn  Mn111  1  0.10789356  0.08265652  0.62210573  1
  Mn  Mn112  1  0.89238582  0.91701009  0.87693668  1
  Mn  Mn113  1  0.39171257  0.25024451  0.12758180  1
  Mn  Mn114  1  0.14257493  0.91677494  0.24773669  1
  Mn  Mn115  1  0.85737299  0.75038322  0.50312928  1
  Mn  Mn116  1  0.64153850  0.58331388  0.99704002  1
  Mn  Mn117  1  0.85821965  0.41754114  0.25206391  1
  Mn  Mn118  1  0.64278804  0.25029229  0.24750249  1
  Mn  Mn119  1  0.89216921  0.91655051  0.12736417  1
  Mn  Mn120  1  0.85697302  0.08325415  0.75265858  1
  Mn  Mn121  1  0.85843481  0.41670674  0.00197795  1
  Mn  Mn122  1  0.10775268  0.74979772  0.37320642  1
  Mn  Mn123  1  0.35757962  0.74934512  0.25217655  1
  Mn  Mn124  1  0.14212020  0.24970397  0.99707538  1
  Mn  Mn125  1  0.60834483  0.74974374  0.37246797  1
  Mn  Mn126  1  0.39197752  0.58336509  0.12796847  1
  Mn  Mn127  1  0.89145200  0.91689972  0.37720937  1
  Mn  Mn128  1  0.64064252  0.91713169  0.99760019  1
  Mn  Mn129  1  0.39306225  0.91687457  0.62695566  1
  Mn  Mn130  1  0.35690380  0.41640571  0.25241776  1
  Mn  Mn131  1  0.85710911  0.75026583  0.75190884  1
  Mn  Mn132  1  0.85785354  0.08235862  0.25271895  1
  Mn  Mn133  1  0.85815179  0.08277617  0.00117370  1
  Mn  Mn134  1  0.14342523  0.91665012  0.99806060  1
  Mn  Mn135  1  0.35774317  0.41742083  0.75275919  1
  Mn  Mn136  1  0.14188193  0.58286872  0.49788554  1
  Mn  Mn137  1  0.10752777  0.41730426  0.62217184  1
  Mn  Mn138  1  0.14241170  0.24968161  0.74773688  1
  Mn  Mn139  1  0.14231388  0.91767361  0.49765989  1
  Mn  Mn140  1  0.60820414  0.41590321  0.62182636  1
  Mn  Mn141  1  0.39286550  0.58309028  0.62681539  1
  Mn  Mn142  1  0.64158112  0.25019171  0.74771574  1
  Mn  Mn143  1  0.39221737  0.25101166  0.87772264  1
  Fe  Fe144  1  0.35767856  0.08281432  0.75160561  1
  Fe  Fe145  1  0.10757954  0.41659004  0.12275901  1
  Fe  Fe146  1  0.64294622  0.58394029  0.24840583  1
  Fe  Fe147  1  0.10823538  0.74996184  0.12321008  1
  Fe  Fe148  1  0.10707874  0.41623128  0.37448171  1
  Fe  Fe149  1  0.64252197  0.58359687  0.74882599  1
  Fe  Fe150  1  0.60743886  0.08404034  0.37307776  1
  Fe  Fe151  1  0.14256565  0.91644032  0.74812777  1
  Fe  Fe152  1  0.60663204  0.08404473  0.87319138  1
  Fe  Fe153  1  0.60682786  0.74989202  0.12318378  1
  Fe  Fe154  1  0.35750712  0.41649393  0.50058546  1
  Fe  Fe155  1  0.60676052  0.41656248  0.87374533  1
  Fe  Fe156  1  0.89226731  0.58275451  0.37619462  1
  Fe  Fe157  1  0.89216949  0.58421717  0.62742713  1
  Fe  Fe158  1  0.35753822  0.74944993  0.00249978  1
  Fe  Fe159  1  0.89346139  0.25018281  0.12670182  1
  Fe  Fe160  1  0.14348856  0.58332634  0.99766898  1
  Fe  Fe161  1  0.35688352  0.41681729  0.00181017  1
  Fe  Fe162  1  0.14144136  0.58314880  0.24866177  1
  Fe  Fe163  1  0.60821110  0.41613627  0.37347692  1
  Fe  Fe164  1  0.10727658  0.08363197  0.37413655  1
  Fe  Fe165  1  0.60733834  0.41676943  0.12291327  1
  Fe  Fe166  1  0.35698454  0.08399489  0.25241234  1
  Fe  Fe167  1  0.85631133  0.08359739  0.50110331  1
  Fe  Fe168  1  0.60800847  0.75000447  0.62277756  1
  Fe  Fe169  1  0.14190309  0.24979609  0.24868305  1
  Fe  Fe170  1  0.64177603  0.91616528  0.74770117  1
  Fe  Fe171  1  0.14306540  0.24987928  0.49877664  1
  Fe  Fe172  1  0.35779386  0.08339266  0.00137530  1
  Fe  Fe173  1  0.85710963  0.41620323  0.50045477  1
  Fe  Fe174  1  0.39262548  0.24976281  0.62522789  1
  Fe  Fe175  1  0.89315903  0.25021007  0.87629862  1
  Fe  Fe176  1  0.10746218  0.41599492  0.87359266  1
  Fe  Fe177  1  0.64191273  0.91618037  0.24763811  1
  Fe  Fe178  1  0.89329679  0.25033993  0.37719725  1
  Fe  Fe179  1  0.35778414  0.74980788  0.50214556  1
  Fe  Fe180  1  0.10839749  0.08397609  0.87311010  1
  Fe  Fe181  1  0.35774769  0.08386643  0.50117467  1
  Fe  Fe182  1  0.39258052  0.91632869  0.12705548  1
  Fe  Fe183  1  0.64260679  0.25033268  0.49770723  1
  Fe  Fe184  1  0.64304018  0.91718158  0.49847896  1
  Fe  Fe185  1  0.89348568  0.58282238  0.87659639  1
  Fe  Fe186  1  0.60698296  0.08372134  0.62239877  1
  Fe  Fe187  1  0.89202774  0.91597103  0.62702237  1
  Fe  Fe188  1  0.64364060  0.58257473  0.49788441  1
  Fe  Fe189  1  0.39238044  0.58279417  0.87631626  1
  Fe  Fe190  1  0.10696633  0.75003920  0.62350776  1
  Fe  Fe191  1  0.14247926  0.58435505  0.74842956  1
  P  P192  1  0.05392693  0.25044636  0.11131093  1
  P  P193  1  0.05444234  0.24958706  0.36173888  1
  P  P194  1  0.05406310  0.24987071  0.60894378  1
  P  P195  1  0.05241008  0.24995264  0.85958278  1
  P  P196  1  0.05622440  0.58329813  0.11045097  1
  P  P197  1  0.05236514  0.58217462  0.36019077  1
  P  P198  1  0.05306608  0.58464242  0.61130080  1
  P  P199  1  0.05464066  0.58247381  0.86060421  1
  P  P200  1  0.05373259  0.91581638  0.10968207  1
  P  P201  1  0.05316729  0.91796184  0.36041435  1
  P  P202  1  0.05322614  0.91551680  0.61102859  1
  P  P203  1  0.05464755  0.91779984  0.85908898  1
  P  P204  1  0.55309036  0.25067508  0.11005184  1
  P  P205  1  0.55489357  0.25015962  0.36111325  1
  P  P206  1  0.55286651  0.24918657  0.60887519  1
  P  P207  1  0.55287788  0.25050877  0.86011348  1
  P  P208  1  0.55481668  0.58343774  0.11158234  1
  P  P209  1  0.55562163  0.58203060  0.36071086  1
  P  P210  1  0.55600966  0.58376499  0.61020641  1
  P  P211  1  0.55208398  0.58213529  0.85921410  1
  P  P212  1  0.55266765  0.91599836  0.11131400  1
  P  P213  1  0.55573038  0.91773015  0.36084738  1
  P  P214  1  0.55558373  0.91697052  0.61033195  1
  P  P215  1  0.55325427  0.91742662  0.85898586  1
  P  P216  1  0.44414466  0.08277992  0.13991332  1
  P  P217  1  0.44630639  0.08367306  0.38950700  1
  P  P218  1  0.44578030  0.08431296  0.63863395  1
  P  P219  1  0.44605620  0.08304819  0.88907710  1
  P  P220  1  0.44652715  0.41686388  0.13961167  1
  P  P221  1  0.44786591  0.41695581  0.39047188  1
  P  P222  1  0.44523309  0.41552947  0.63815511  1
  P  P223  1  0.44701797  0.41807799  0.89066704  1
  P  P224  1  0.44652171  0.75021559  0.13952292  1
  P  P225  1  0.44648914  0.74945972  0.39098828  1
  P  P226  1  0.44741691  0.74995762  0.63849334  1
  P  P227  1  0.44572102  0.74852997  0.89034483  1
  P  P228  1  0.94686044  0.08384657  0.14014131  1
  P  P229  1  0.94694832  0.08408574  0.39095089  1
  P  P230  1  0.94446153  0.08241058  0.63850469  1
  P  P231  1  0.94857582  0.08405633  0.88937258  1
  P  P232  1  0.94847758  0.41619566  0.14001018  1
  P  P233  1  0.94726267  0.41662028  0.39029148  1
  P  P234  1  0.94452480  0.41736212  0.63846253  1
  P  P235  1  0.94829106  0.41680509  0.88968852  1
  P  P236  1  0.94873873  0.74983603  0.13996762  1
  P  P237  1  0.94616870  0.74909988  0.38998801  1
  P  P238  1  0.94715138  0.75019477  0.64033876  1
  P  P239  1  0.94692752  0.74914571  0.88978373  1
  P  P240  1  0.19638611  0.08432263  0.23646919  1
  P  P241  1  0.19777297  0.08422870  0.48455083  1
  P  P242  1  0.19663468  0.08252098  0.73576009  1
  P  P243  1  0.19809097  0.08341882  0.98432527  1
  P  P244  1  0.19372727  0.41633406  0.23610817  1
  P  P245  1  0.19725980  0.41579505  0.48487418  1
  P  P246  1  0.19496788  0.41777097  0.73627602  1
  P  P247  1  0.19598972  0.41694833  0.98531149  1
  P  P248  1  0.19595450  0.74916960  0.23454363  1
  P  P249  1  0.19690584  0.75017821  0.48623573  1
  P  P250  1  0.19606710  0.74999768  0.73427549  1
  P  P251  1  0.19728882  0.74935190  0.98630161  1
  P  P252  1  0.69529138  0.08291098  0.23595670  1
  P  P253  1  0.69555533  0.08390319  0.48567929  1
  P  P254  1  0.69389822  0.08308888  0.73522351  1
  P  P255  1  0.69575355  0.08366112  0.98398721  1
  P  P256  1  0.69531410  0.41763315  0.23512900  1
  P  P257  1  0.69759701  0.41641473  0.48432260  1
  P  P258  1  0.69517488  0.41748791  0.73627969  1
  P  P259  1  0.69506221  0.41648766  0.98510048  1
  P  P260  1  0.69577727  0.74975399  0.23406769  1
  P  P261  1  0.69546401  0.74993295  0.48659344  1
  P  P262  1  0.69540544  0.74939378  0.73449217  1
  P  P263  1  0.69518372  0.75016106  0.98554184  1
  P  P264  1  0.30323287  0.25073550  0.01480922  1
  P  P265  1  0.30184079  0.24977661  0.26521945  1
  P  P266  1  0.30271957  0.25030625  0.51528347  1
  P  P267  1  0.30509041  0.24928779  0.76349586  1
  P  P268  1  0.30386990  0.58249605  0.01391144  1
  P  P269  1  0.30112501  0.58282267  0.26509355  1
  P  P270  1  0.30355265  0.58285079  0.51478215  1
  P  P271  1  0.30266712  0.58386004  0.76556886  1
  P  P272  1  0.30484494  0.91662803  0.01554403  1
  P  P273  1  0.30499712  0.91713698  0.26409882  1
  P  P274  1  0.30391340  0.91694345  0.51480313  1
  P  P275  1  0.30235371  0.91704108  0.76444497  1
  P  P276  1  0.80567018  0.24995417  0.01467394  1
  P  P277  1  0.80593794  0.25027758  0.26447000  1
  P  P278  1  0.80307276  0.25012863  0.51315800  1
  P  P279  1  0.80353732  0.25006191  0.76597892  1
  P  P280  1  0.80482171  0.58299776  0.01395830  1
  P  P281  1  0.80270064  0.58376385  0.26510003  1
  P  P282  1  0.80439442  0.58210403  0.51421982  1
  P  P283  1  0.80365253  0.58374333  0.76494726  1
  P  P284  1  0.80253187  0.91711632  0.01508019  1
  P  P285  1  0.80107573  0.91616521  0.26524233  1
  P  P286  1  0.80241568  0.91778100  0.51572709  1
  P  P287  1  0.80234883  0.91649324  0.76394261  1
  O  O288  1  0.05816887  0.24965206  0.18804200  1
  O  O289  1  0.05917156  0.24953976  0.43842348  1
  O  O290  1  0.05744937  0.24978168  0.68573067  1
  O  O291  1  0.05575269  0.24969820  0.93637974  1
  O  O292  1  0.05918916  0.58342593  0.18734635  1
  O  O293  1  0.05573545  0.58290008  0.43698821  1
  O  O294  1  0.05804583  0.58385959  0.68794507  1
  O  O295  1  0.05954706  0.58341972  0.93735380  1
  O  O296  1  0.05675720  0.91647884  0.18650588  1
  O  O297  1  0.05601935  0.91746042  0.43725697  1
  O  O298  1  0.05836980  0.91664681  0.68766602  1
  O  O299  1  0.05812429  0.91713353  0.93588574  1
  O  O300  1  0.55641166  0.25008347  0.18684784  1
  O  O301  1  0.55888590  0.25007113  0.43789166  1
  O  O302  1  0.55614299  0.25023229  0.68560542  1
  O  O303  1  0.55570449  0.25014477  0.93686060  1
  O  O304  1  0.55878732  0.58358620  0.18834077  1
  O  O305  1  0.55971670  0.58261224  0.43750535  1
  O  O306  1  0.55959818  0.58317156  0.68699236  1
  O  O307  1  0.55538746  0.58296558  0.93601974  1
  O  O308  1  0.55726621  0.91647300  0.18805041  1
  O  O309  1  0.55978788  0.91718124  0.43767284  1
  O  O310  1  0.55875863  0.91664041  0.68718683  1
  O  O311  1  0.55514642  0.91688131  0.93589015  1
  O  O312  1  0.44034560  0.08375622  0.06302070  1
  O  O313  1  0.44109162  0.08398137  0.31281544  1
  O  O314  1  0.44106921  0.08352480  0.56187766  1
  O  O315  1  0.44149630  0.08289291  0.81229429  1
  O  O316  1  0.44108495  0.41693132  0.06298167  1
  O  O317  1  0.44355164  0.41696710  0.31374266  1
  O  O318  1  0.44088478  0.41642656  0.56144102  1
  O  O319  1  0.44356116  0.41740708  0.81384418  1
  O  O320  1  0.44146405  0.74927393  0.06278877  1
  O  O321  1  0.44302882  0.74944232  0.31417760  1
  O  O322  1  0.44211197  0.74996375  0.56184007  1
  O  O323  1  0.44330578  0.74935751  0.81346633  1
  O  O324  1  0.94386598  0.08292457  0.06335919  1
  O  O325  1  0.94358107  0.08323821  0.31417885  1
  O  O326  1  0.93972962  0.08316964  0.56178024  1
  O  O327  1  0.94437352  0.08324140  0.81264641  1
  O  O328  1  0.94468171  0.41688292  0.06331992  1
  O  O329  1  0.94428596  0.41677160  0.31355771  1
  O  O330  1  0.94019562  0.41642476  0.56171657  1
  O  O331  1  0.94479680  0.41718722  0.81292693  1
  O  O332  1  0.94478589  0.75005981  0.06322812  1
  O  O333  1  0.94334180  0.74973316  0.31322187  1
  O  O334  1  0.94351775  0.75024108  0.56354753  1
  O  O335  1  0.94341244  0.74970099  0.81303466  1
  O  O336  1  0.19410698  0.08371708  0.06107694  1
  O  O337  1  0.19145000  0.08370901  0.31310809  1
  O  O338  1  0.19407833  0.08331395  0.56130630  1
  O  O339  1  0.19194299  0.08348893  0.81246762  1
  O  O340  1  0.19145923  0.41588724  0.06207173  1
  O  O341  1  0.18983096  0.41646172  0.31294369  1
  O  O342  1  0.19382803  0.41669842  0.56163889  1
  O  O343  1  0.19079197  0.41682193  0.81306719  1
  O  O344  1  0.19249290  0.74994816  0.06292027  1
  O  O345  1  0.19312021  0.75003014  0.31144355  1
  O  O346  1  0.19154801  0.75004020  0.56285373  1
  O  O347  1  0.19395397  0.74985172  0.81119871  1
  O  O348  1  0.69259168  0.08407149  0.06082888  1
  O  O349  1  0.69140570  0.08377908  0.31275483  1
  O  O350  1  0.69139038  0.08445642  0.56244024  1
  O  O351  1  0.68973584  0.08398794  0.81201365  1
  O  O352  1  0.69077527  0.41650461  0.06191293  1
  O  O353  1  0.69162877  0.41649230  0.31193339  1
  O  O354  1  0.69448572  0.41608827  0.56115761  1
  O  O355  1  0.69080673  0.41675133  0.81300365  1
  O  O356  1  0.69049160  0.75001085  0.06226743  1
  O  O357  1  0.69366944  0.74965542  0.31111394  1
  O  O358  1  0.69207090  0.74988178  0.56332653  1
  O  O359  1  0.69291514  0.74934362  0.81136434  1
  O  O360  1  0.30571640  0.25045807  0.18853018  1
  O  O361  1  0.30584670  0.25036984  0.43849091  1
  O  O362  1  0.30898988  0.24988587  0.68676850  1
  O  O363  1  0.30610291  0.25102389  0.93796330  1
  O  O364  1  0.30518544  0.58258670  0.18835783  1
  O  O365  1  0.30634113  0.58296051  0.43799819  1
  O  O366  1  0.30707245  0.58324289  0.68886108  1
  O  O367  1  0.30830357  0.58269899  0.93724600  1
  O  O368  1  0.30880946  0.91634049  0.18730883  1
  O  O369  1  0.30678926  0.91667499  0.43798953  1
  O  O370  1  0.30643574  0.91677400  0.68776237  1
  O  O371  1  0.30710363  0.91639416  0.93868072  1
  O  O372  1  0.81029267  0.25051758  0.18764520  1
  O  O373  1  0.80807653  0.25010749  0.43646739  1
  O  O374  1  0.80665507  0.25006254  0.68912685  1
  O  O375  1  0.81021248  0.25024518  0.93785502  1
  O  O376  1  0.80685193  0.58323041  0.18838247  1
  O  O377  1  0.80907329  0.58288826  0.43746937  1
  O  O378  1  0.80841929  0.58361193  0.68815407  1
  O  O379  1  0.80983889  0.58268099  0.93718957  1
  O  O380  1  0.80542518  0.91654011  0.18856937  1
  O  O381  1  0.80596147  0.91679701  0.43895641  1
  O  O382  1  0.80768269  0.91658536  0.68729873  1
  O  O383  1  0.80619067  0.91697446  0.93823788  1
  O  O384  1  0.23363950  0.24995073  0.04029427  1
  O  O385  1  0.23177229  0.25011155  0.28962541  1
  O  O386  1  0.23273969  0.25008161  0.54041535  1
  O  O387  1  0.23511263  0.24973800  0.78803375  1
  O  O388  1  0.23352457  0.58240687  0.03784365  1
  O  O389  1  0.23103823  0.58307549  0.28952102  1
  O  O390  1  0.23386328  0.58262979  0.54020503  1
  O  O391  1  0.23244764  0.58437873  0.78953450  1
  O  O392  1  0.23524103  0.91697475  0.04125026  1
  O  O393  1  0.23505775  0.91674682  0.28864981  1
  O  O394  1  0.23423563  0.91766772  0.54014873  1
  O  O395  1  0.23241449  0.91624611  0.78924866  1
  O  O396  1  0.73549069  0.25014357  0.03848284  1
  O  O397  1  0.73566496  0.25008514  0.28788318  1
  O  O398  1  0.73272574  0.25034572  0.53722083  1
  O  O399  1  0.73371293  0.25002264  0.79061307  1
  O  O400  1  0.73454130  0.58285998  0.03719215  1
  O  O401  1  0.73252983  0.58384111  0.28927083  1
  O  O402  1  0.73386118  0.58263056  0.53762809  1
  O  O403  1  0.73321237  0.58374370  0.78843819  1
  O  O404  1  0.73269517  0.91760399  0.03970546  1
  O  O405  1  0.73098235  0.91592550  0.28954763  1
  O  O406  1  0.73216682  0.91767857  0.53985031  1
  O  O407  1  0.73183205  0.91616987  0.78709008  1
  O  O408  1  0.26673502  0.08401708  0.21268397  1
  O  O409  1  0.26797516  0.08387514  0.46021745  1
  O  O410  1  0.26698663  0.08312624  0.71193244  1
  O  O411  1  0.26834239  0.08307266  0.96028838  1
  O  O412  1  0.26378538  0.41631857  0.21164243  1
  O  O413  1  0.26728136  0.41632154  0.46000098  1
  O  O414  1  0.26507362  0.41710462  0.71229370  1
  O  O415  1  0.26625684  0.41716610  0.96131374  1
  O  O416  1  0.26567994  0.74915687  0.20940255  1
  O  O417  1  0.26729541  0.74981952  0.46260349  1
  O  O418  1  0.26564823  0.74996620  0.70861831  1
  O  O419  1  0.26768358  0.74976327  0.96258452  1
  O  O420  1  0.76524628  0.08353002  0.21150888  1
  O  O421  1  0.76591033  0.08327857  0.46148812  1
  O  O422  1  0.76406313  0.08404042  0.71131182  1
  O  O423  1  0.76546616  0.08298946  0.95887752  1
  O  O424  1  0.76536572  0.41698607  0.21069353  1
  O  O425  1  0.76757997  0.41669432  0.45929761  1
  O  O426  1  0.76520220  0.41695391  0.71204457  1
  O  O427  1  0.76522669  0.41669638  0.96133192  1
  O  O428  1  0.76521712  0.74986538  0.20812281  1
  O  O429  1  0.76534618  0.74993480  0.46170039  1
  O  O430  1  0.76497246  0.74979669  0.70880044  1
  O  O431  1  0.76520905  0.75012479  0.96146112  1
  O  O432  1  0.01656355  0.08395961  0.16539138  1
  O  O433  1  0.01701105  0.08356286  0.41569345  1
  O  O434  1  0.01475478  0.08310565  0.66201245  1
  O  O435  1  0.01865682  0.08373279  0.91402958  1
  O  O436  1  0.01852514  0.41675061  0.16456935  1
  O  O437  1  0.01731822  0.41631566  0.41536850  1
  O  O438  1  0.01468023  0.41710009  0.66233606  1
  O  O439  1  0.01825800  0.41639870  0.91472931  1
  O  O440  1  0.01875932  0.74935007  0.16449379  1
  O  O441  1  0.01585541  0.74948461  0.41544364  1
  O  O442  1  0.01700368  0.74983312  0.66536513  1
  O  O443  1  0.01689180  0.74959804  0.91439079  1
  O  O444  1  0.51422083  0.08351834  0.16406401  1
  O  O445  1  0.51682226  0.08359098  0.41262414  1
  O  O446  1  0.51630481  0.08367030  0.66188441  1
  O  O447  1  0.51638628  0.08337504  0.91296356  1
  O  O448  1  0.51699213  0.41706351  0.16285540  1
  O  O449  1  0.51807888  0.41631924  0.41450707  1
  O  O450  1  0.51541832  0.41627814  0.66202401  1
  O  O451  1  0.51704122  0.41712602  0.91531937  1
  O  O452  1  0.51678106  0.74988670  0.16340335  1
  O  O453  1  0.51655692  0.74967487  0.41513085  1
  O  O454  1  0.51781330  0.74977263  0.66186366  1
  O  O455  1  0.51532490  0.74957477  0.91587462  1
  O  O456  1  0.48338735  0.25023506  0.08499662  1
  O  O457  1  0.48492223  0.25062534  0.33655164  1
  O  O458  1  0.48286566  0.24935035  0.58407245  1
  O  O459  1  0.48330613  0.25058458  0.83444528  1
  O  O460  1  0.48479642  0.58305822  0.08724590  1
  O  O461  1  0.48561314  0.58302336  0.33625823  1
  O  O462  1  0.48589938  0.58286886  0.58604285  1
  O  O463  1  0.48218561  0.58282004  0.83407340  1
  O  O464  1  0.48246684  0.91674683  0.08715992  1
  O  O465  1  0.48559864  0.91670503  0.33692583  1
  O  O466  1  0.48566649  0.91737370  0.58556518  1
  O  O467  1  0.48379158  0.91652363  0.83293026  1
  O  O468  1  0.98374577  0.25007873  0.08705542  1
  O  O469  1  0.98395500  0.25027768  0.33810123  1
  O  O470  1  0.98411364  0.24975392  0.58463151  1
  O  O471  1  0.98257040  0.25028054  0.83417938  1
  O  O472  1  0.98631776  0.58300375  0.08563530  1
  O  O473  1  0.98233193  0.58260818  0.33527440  1
  O  O474  1  0.98267635  0.58400831  0.58766138  1
  O  O475  1  0.98419334  0.58294310  0.83698217  1
  O  O476  1  0.98421413  0.91651859  0.08404582  1
  O  O477  1  0.98355497  0.91725338  0.33490811  1
  O  O478  1  0.98285628  0.91601942  0.58732233  1
  O  O479  1  0.98476596  0.91697842  0.83433669  1
  O  O480  1  0.08715215  0.31576920  0.07830113  1
  O  O481  1  0.08805664  0.31450359  0.32839446  1
  O  O482  1  0.08807768  0.31492463  0.57635784  1
  O  O483  1  0.08660687  0.31510967  0.82735777  1
  O  O484  1  0.09011062  0.64833186  0.07747815  1
  O  O485  1  0.08676860  0.64699215  0.32737866  1
  O  O486  1  0.08610936  0.64989380  0.57806903  1
  O  O487  1  0.08824643  0.64742494  0.82702291  1
  O  O488  1  0.08836909  0.98081757  0.07743677  1
  O  O489  1  0.08709356  0.98337274  0.32838297  1
  O  O490  1  0.08673930  0.98039790  0.57725278  1
  O  O491  1  0.08844822  0.98299429  0.82653740  1
  O  O492  1  0.58710971  0.31587437  0.07784730  1
  O  O493  1  0.58889338  0.31522259  0.32841620  1
  O  O494  1  0.58719687  0.31401497  0.57584718  1
  O  O495  1  0.58691536  0.31585048  0.82791104  1
  O  O496  1  0.58803832  0.64864528  0.07826620  1
  O  O497  1  0.58979104  0.64693141  0.32757167  1
  O  O498  1  0.58937447  0.64893252  0.57720371  1
  O  O499  1  0.58667932  0.64697682  0.82655431  1
  O  O500  1  0.58619368  0.98104205  0.07798982  1
  O  O501  1  0.58873957  0.98304129  0.32779334  1
  O  O502  1  0.58949230  0.98219759  0.57772904  1
  O  O503  1  0.58743679  0.98267300  0.82712287  1
  O  O504  1  0.41084806  0.01745621  0.17264428  1
  O  O505  1  0.41308527  0.01872747  0.42312028  1
  O  O506  1  0.41226359  0.01949378  0.67255659  1
  O  O507  1  0.41277175  0.01794074  0.92233570  1
  O  O508  1  0.41354007  0.35167913  0.17318811  1
  O  O509  1  0.41349759  0.35213731  0.42327725  1
  O  O510  1  0.41229937  0.35003574  0.67093217  1
  O  O511  1  0.41239881  0.35342586  0.92360566  1
  O  O512  1  0.41318751  0.68519832  0.17319405  1
  O  O513  1  0.41260458  0.68435782  0.42358495  1
  O  O514  1  0.41407684  0.68500531  0.67196968  1
  O  O515  1  0.41195381  0.68306879  0.92248594  1
  O  O516  1  0.91283130  0.01874560  0.17299594  1
  O  O517  1  0.91230102  0.01935099  0.42364867  1
  O  O518  1  0.91148391  0.01706332  0.67173289  1
  O  O519  1  0.91463719  0.01902959  0.92233497  1
  O  O520  1  0.91486147  0.35110621  0.17271030  1
  O  O521  1  0.91298847  0.35161098  0.42291976  1
  O  O522  1  0.91109430  0.35231966  0.67184197  1
  O  O523  1  0.91419432  0.35166062  0.92196981  1
  O  O524  1  0.91468199  0.68477552  0.17249736  1
  O  O525  1  0.91220363  0.68378975  0.42208936  1
  O  O526  1  0.91290310  0.68512401  0.67272341  1
  O  O527  1  0.91339847  0.68381719  0.92225278  1
  O  O528  1  0.16325010  0.01930110  0.20270939  1
  O  O529  1  0.16360757  0.01951153  0.45134915  1
  O  O530  1  0.16365320  0.01713465  0.70259299  1
  O  O531  1  0.16401358  0.01849201  0.95169776  1
  O  O532  1  0.16013876  0.35107364  0.20317985  1
  O  O533  1  0.16332276  0.35057104  0.45256493  1
  O  O534  1  0.16119077  0.35296760  0.70290516  1
  O  O535  1  0.16254210  0.35198707  0.95161333  1
  O  O536  1  0.16163349  0.68403527  0.20261648  1
  O  O537  1  0.16336390  0.68516545  0.45288923  1
  O  O538  1  0.16155037  0.68488920  0.70214113  1
  O  O539  1  0.16416514  0.68415348  0.95298264  1
  O  O540  1  0.66182521  0.01750515  0.20334443  1
  O  O541  1  0.66174960  0.01876270  0.45296400  1
  O  O542  1  0.66078821  0.01768325  0.70234252  1
  O  O543  1  0.66081912  0.01894601  0.95176453  1
  O  O544  1  0.66118042  0.35289537  0.20172554  1
  O  O545  1  0.66348404  0.35152544  0.45148755  1
  O  O546  1  0.66150391  0.35257334  0.70266066  1
  O  O547  1  0.66147250  0.35146641  0.95193734  1
  O  O548  1  0.66135295  0.68463183  0.20206834  1
  O  O549  1  0.66189658  0.68476901  0.45362722  1
  O  O550  1  0.66127924  0.68415302  0.70229078  1
  O  O551  1  0.66170280  0.68508692  0.95223616  1
  O  O552  1  0.33683802  0.31618010  0.04736060  1
  O  O553  1  0.33568817  0.31478166  0.29822176  1
  O  O554  1  0.33683401  0.31541563  0.54772091  1
  O  O555  1  0.33874681  0.31429070  0.79679458  1
  O  O556  1  0.33713182  0.64761813  0.04742930  1
  O  O557  1  0.33524177  0.64777111  0.29765911  1
  O  O558  1  0.33765459  0.64798202  0.54735616  1
  O  O559  1  0.33685094  0.64881499  0.79807337  1
  O  O560  1  0.33931520  0.98177210  0.04747999  1
  O  O561  1  0.33853279  0.98248365  0.29669155  1
  O  O562  1  0.33833735  0.98216216  0.54672772  1
  O  O563  1  0.33608071  0.98217609  0.79715511  1
  O  O564  1  0.83939078  0.31489687  0.04808452  1
  O  O565  1  0.83931891  0.31536564  0.29780445  1
  O  O566  1  0.83647576  0.31521929  0.54641787  1
  O  O567  1  0.83774508  0.31503308  0.79858988  1
  O  O568  1  0.83797128  0.64812932  0.04731523  1
  O  O569  1  0.83656929  0.64874088  0.29791314  1
  O  O570  1  0.83778170  0.64704576  0.54814394  1
  O  O571  1  0.83717038  0.64872896  0.79809245  1
  O  O572  1  0.83674384  0.98211610  0.04754359  1
  O  O573  1  0.83464854  0.98124139  0.29844166  1
  O  O574  1  0.83621178  0.98289367  0.54813085  1
  O  O575  1  0.83523154  0.98166085  0.79760721  1
  O  O576  1  0.41008247  0.14759635  0.17331430  1
  O  O577  1  0.41300785  0.14867777  0.42308256  1
  O  O578  1  0.41270591  0.14957240  0.67170153  1
  O  O579  1  0.41238541  0.14794915  0.92244260  1
  O  O580  1  0.41324316  0.48176912  0.17335349  1
  O  O581  1  0.41427569  0.48201154  0.42349084  1
  O  O582  1  0.41158284  0.48033968  0.67186817  1
  O  O583  1  0.41342121  0.48337561  0.92320689  1
  O  O584  1  0.41336283  0.81548674  0.17249768  1
  O  O585  1  0.41248343  0.81444388  0.42374603  1
  O  O586  1  0.41444882  0.81510762  0.67209721  1
  O  O587  1  0.41076595  0.81323809  0.92275173  1
  O  O588  1  0.91269931  0.14900454  0.17223276  1
  O  O589  1  0.91304755  0.14942133  0.42328022  1
  O  O590  1  0.91093978  0.14742529  0.67183601  1
  O  O591  1  0.91486228  0.14928269  0.92183902  1
  O  O592  1  0.91455723  0.48121898  0.17300394  1
  O  O593  1  0.91313132  0.48167325  0.42277646  1
  O  O594  1  0.91125373  0.48264938  0.67146719  1
  O  O595  1  0.91464773  0.48192872  0.92262690  1
  O  O596  1  0.91497745  0.81492721  0.17286640  1
  O  O597  1  0.91184567  0.81413801  0.42258091  1
  O  O598  1  0.91324532  0.81541228  0.67289108  1
  O  O599  1  0.91295442  0.81433879  0.92231159  1
  O  O600  1  0.08757808  0.18565461  0.07769259  1
  O  O601  1  0.08730524  0.18423413  0.32814313  1
  O  O602  1  0.08833042  0.18495561  0.57633098  1
  O  O603  1  0.08646842  0.18485143  0.82700063  1
  O  O604  1  0.09023844  0.51809611  0.07788348  1
  O  O605  1  0.08628463  0.51690114  0.32803286  1
  O  O606  1  0.08650087  0.51974468  0.57755175  1
  O  O607  1  0.08774498  0.51726706  0.82750078  1
  O  O608  1  0.08774648  0.85048727  0.07753524  1
  O  O609  1  0.08785632  0.85300097  0.32832483  1
  O  O610  1  0.08633469  0.85014044  0.57808500  1
  O  O611  1  0.08918011  0.85280570  0.82656223  1
  O  O612  1  0.58720400  0.18563624  0.07741846  1
  O  O613  1  0.58824202  0.18489175  0.32807990  1
  O  O614  1  0.58699985  0.18411041  0.57652163  1
  O  O615  1  0.58686298  0.18540085  0.82751116  1
  O  O616  1  0.58855771  0.51833580  0.07857382  1
  O  O617  1  0.58898464  0.51672071  0.32798880  1
  O  O618  1  0.59013328  0.51889207  0.57699759  1
  O  O619  1  0.58616195  0.51693449  0.82698772  1
  O  O620  1  0.58576180  0.85080474  0.07807232  1
  O  O621  1  0.58965842  0.85274464  0.32766493  1
  O  O622  1  0.58939916  0.85192369  0.57742024  1
  O  O623  1  0.58825989  0.85252649  0.82693539  1
  O  O624  1  0.33782073  0.18560090  0.04660226  1
  O  O625  1  0.33577894  0.18477196  0.29789866  1
  O  O626  1  0.33703235  0.18520334  0.54764966  1
  O  O627  1  0.33855455  0.18399653  0.79620784  1
  O  O628  1  0.33702053  0.51727431  0.04733868  1
  O  O629  1  0.33489402  0.51779216  0.29796344  1
  O  O630  1  0.33767117  0.51755290  0.54691458  1
  O  O631  1  0.33616694  0.51883762  0.79903571  1
  O  O632  1  0.33909068  0.85146925  0.04794136  1
  O  O633  1  0.33881002  0.85218539  0.29720806  1
  O  O634  1  0.33771964  0.85171918  0.54746538  1
  O  O635  1  0.33647968  0.85196982  0.79704396  1
  O  O636  1  0.83911116  0.18475323  0.04763952  1
  O  O637  1  0.83954243  0.18539757  0.29788527  1
  O  O638  1  0.83607483  0.18490698  0.54664340  1
  O  O639  1  0.83781587  0.18511530  0.79850921  1
  O  O640  1  0.83809356  0.51795898  0.04751066  1
  O  O641  1  0.83647470  0.51874128  0.29831638  1
  O  O642  1  0.83735868  0.51684439  0.54731658  1
  O  O643  1  0.83716105  0.51877338  0.79844608  1
  O  O644  1  0.83620106  0.85193723  0.04791964  1
  O  O645  1  0.83492436  0.85108641  0.29793460  1
  O  O646  1  0.83620432  0.85275378  0.54898543  1
  O  O647  1  0.83563551  0.85155518  0.79743188  1
  O  O648  1  0.16327541  0.14957788  0.20320268  1
  O  O649  1  0.16390514  0.14946535  0.45223750  1
  O  O650  1  0.16297470  0.14731789  0.70217934  1
  O  O651  1  0.16447737  0.14845300  0.95107746  1
  O  O652  1  0.16011287  0.48143107  0.20306247  1
  O  O653  1  0.16266627  0.48048132  0.45200702  1
  O  O654  1  0.16193286  0.48334900  0.70351210  1
  O  O655  1  0.16213835  0.48202725  0.95262296  1
  O  O656  1  0.16179288  0.81419023  0.20179287  1
  O  O657  1  0.16388050  0.81536358  0.45276373  1
  O  O658  1  0.16155777  0.81508782  0.70221908  1
  O  O659  1  0.16392701  0.81428428  0.95268359  1
  O  O660  1  0.66150671  0.14780333  0.20264563  1
  O  O661  1  0.66231789  0.14890282  0.45196962  1
  O  O662  1  0.65987805  0.14780024  0.70164826  1
  O  O663  1  0.66186906  0.14883094  0.95129117  1
  O  O664  1  0.66189674  0.48307192  0.20265553  1
  O  O665  1  0.66336936  0.48151442  0.45204594  1
  O  O666  1  0.66193646  0.48280522  0.70338492  1
  O  O667  1  0.66114310  0.48128229  0.95177795  1
  O  O668  1  0.66093823  0.81478800  0.20222404  1
  O  O669  1  0.66182610  0.81518402  0.45389487  1
  O  O670  1  0.66064101  0.81433075  0.70233363  1
  O  O671  1  0.66151936  0.81521854  0.95258779  1
