# generated using pymatgen
data_Na2MnFe(PO4)2
_symmetry_space_group_name_H-M   'P 1'
_cell_length_a   21.08120202
_cell_length_b   18.93316228
_cell_length_c   20.04086742
_cell_angle_alpha   89.99988145
_cell_angle_beta   89.99819578
_cell_angle_gamma   90.00062848
_symmetry_Int_Tables_number   1
_chemical_formula_structural   Na2MnFe(PO4)2
_chemical_formula_sum   'Na96 Mn48 Fe48 P96 O384'
_cell_volume   7998.98794243
_cell_formula_units_Z   48
loop_
 _symmetry_equiv_pos_site_id
 _symmetry_equiv_pos_as_xyz
  1  'x, y, z'
loop_
 _atom_site_type_symbol
 _atom_site_label
 _atom_site_symmetry_multiplicity
 _atom_site_fract_x
 _atom_site_fract_y
 _atom_site_fract_z
 _atom_site_occupancy
  Na  Na0  1  0.00010832  -0.00030049  -0.00012299  1
  Na  Na1  1  -0.00235275  -0.00058092  0.25059162  1
  Na  Na2  1  -0.00100231  -0.00013597  0.50006601  1
  Na  Na3  1  0.00126260  -0.00040062  0.74906599  1
  Na  Na4  1  0.00162899  0.33396125  -0.00098563  1
  Na  Na5  1  -0.00014372  0.33269009  0.25026833  1
  Na  Na6  1  0.00036875  0.33289918  0.50008007  1
  Na  Na7  1  0.00111133  0.33348467  0.75016673  1
  Na  Na8  1  -0.00088878  0.66644663  -0.00043781  1
  Na  Na9  1  0.00109536  0.66768010  0.24916091  1
  Na  Na10  1  0.00082920  0.66666239  0.50108736  1
  Na  Na11  1  0.00096107  0.66682317  0.75049187  1
  Na  Na12  1  0.50003708  -0.00002879  0.00101649  1
  Na  Na13  1  0.49895643  -0.00037159  0.24877481  1
  Na  Na14  1  0.49891529  -0.00036187  0.49901340  1
  Na  Na15  1  0.49784090  -0.00114420  0.75056724  1
  Na  Na16  1  0.50147614  0.33345334  0.00024753  1
  Na  Na17  1  0.50208605  0.33342807  0.25064160  1
  Na  Na18  1  0.50091826  0.33330949  0.49912128  1
  Na  Na19  1  0.50112195  0.33343032  0.75021028  1
  Na  Na20  1  0.50055409  0.66662034  0.00018397  1
  Na  Na21  1  0.50043678  0.66665175  0.24925469  1
  Na  Na22  1  0.50046726  0.66681423  0.50090118  1
  Na  Na23  1  0.50068031  0.66690533  0.74986778  1
  Na  Na24  1  0.25121943  -0.00007372  0.12479388  1
  Na  Na25  1  0.25077934  0.00039915  0.37417575  1
  Na  Na26  1  0.24947628  -0.00100223  0.62556853  1
  Na  Na27  1  0.25204395  -0.00006368  0.87472610  1
  Na  Na28  1  0.24884038  0.33277008  0.12425293  1
  Na  Na29  1  0.24957068  0.33291274  0.37466458  1
  Na  Na30  1  0.24914815  0.33361019  0.62620767  1
  Na  Na31  1  0.24742264  0.33283832  0.87507594  1
  Na  Na32  1  0.24790472  0.66634342  0.12445320  1
  Na  Na33  1  0.24776422  0.66614380  0.37432211  1
  Na  Na34  1  0.25124683  0.66759651  0.62570583  1
  Na  Na35  1  0.24885436  0.66641608  0.87646744  1
  Na  Na36  1  0.74992543  -0.00061974  0.12383690  1
  Na  Na37  1  0.75226330  0.00077096  0.37573954  1
  Na  Na38  1  0.75167045  0.00061333  0.62580490  1
  Na  Na39  1  0.74897633  -0.00070628  0.87504536  1
  Na  Na40  1  0.74780513  0.33208733  0.12487655  1
  Na  Na41  1  0.74969191  0.33267034  0.37506794  1
  Na  Na42  1  0.75032461  0.33359389  0.62550035  1
  Na  Na43  1  0.74874908  0.33351686  0.87463723  1
  Na  Na44  1  0.75154081  0.66708890  0.12388888  1
  Na  Na45  1  0.74902709  0.66625373  0.37521784  1
  Na  Na46  1  0.74789629  0.66623796  0.62583843  1
  Na  Na47  1  0.75006033  0.66662907  0.87473708  1
  Na  Na48  1  -0.00157553  0.16735191  0.00043423  1
  Na  Na49  1  -0.00216927  0.16738788  0.25079183  1
  Na  Na50  1  -0.00120485  0.16775671  0.49941655  1
  Na  Na51  1  0.00102127  0.16660235  0.74913089  1
  Na  Na52  1  0.00079947  0.49963207  -0.00130170  1
  Na  Na53  1  -0.00006452  0.49995783  0.25009671  1
  Na  Na54  1  -0.00010607  0.49969083  0.50080361  1
  Na  Na55  1  0.00118686  0.49980030  0.75047988  1
  Na  Na56  1  0.00232151  0.83267672  -0.00068573  1
  Na  Na57  1  0.00099057  0.83313586  0.24907801  1
  Na  Na58  1  0.00169114  0.83359632  0.50093423  1
  Na  Na59  1  0.00148747  0.83368149  0.75021410  1
  Na  Na60  1  0.49986484  0.16698245  0.00095711  1
  Na  Na61  1  0.49952730  0.16716467  0.24965969  1
  Na  Na62  1  0.50048599  0.16680193  0.49849369  1
  Na  Na63  1  0.50069234  0.16659154  0.75064695  1
  Na  Na64  1  0.50161502  0.49959941  0.00048297  1
  Na  Na65  1  0.50151151  0.49908549  0.24969102  1
  Na  Na66  1  0.49934194  0.50043062  0.50082110  1
  Na  Na67  1  0.50138001  0.49905116  0.74912745  1
  Na  Na68  1  0.49945730  0.83376029  -0.00007886  1
  Na  Na69  1  0.50108281  0.83327505  0.24936651  1
  Na  Na70  1  0.49966285  0.83331348  0.49959164  1
  Na  Na71  1  0.49893894  0.83332746  0.75124766  1
  Na  Na72  1  0.25301607  0.16574981  0.12488413  1
  Na  Na73  1  0.24895588  0.16795196  0.37462271  1
  Na  Na74  1  0.25060911  0.16702604  0.62544443  1
  Na  Na75  1  0.25033539  0.16744282  0.87487537  1
  Na  Na76  1  0.24680142  0.50065754  0.12370142  1
  Na  Na77  1  0.25076556  0.49839227  0.37547951  1
  Na  Na78  1  0.24789145  0.50053220  0.62617253  1
  Na  Na79  1  0.24866657  0.50004378  0.87576701  1
  Na  Na80  1  0.24865447  0.83366804  0.12454878  1
  Na  Na81  1  0.24845530  0.83415647  0.37337517  1
  Na  Na82  1  0.25000170  0.83333590  0.62610420  1
  Na  Na83  1  0.24889389  0.83402587  0.87585525  1
  Na  Na84  1  0.75088900  0.16647315  0.12498374  1
  Na  Na85  1  0.75153091  0.16719464  0.37490873  1
  Na  Na86  1  0.75134693  0.16655457  0.62612182  1
  Na  Na87  1  0.74796808  0.16775510  0.87389441  1
  Na  Na88  1  0.74953530  0.50063750  0.12363443  1
  Na  Na89  1  0.74901273  0.50009717  0.37501908  1
  Na  Na90  1  0.74893576  0.49986839  0.62543445  1
  Na  Na91  1  0.74974934  0.49974894  0.87617829  1
  Na  Na92  1  0.74871106  0.83432916  0.12407424  1
  Na  Na93  1  0.74988222  0.83354978  0.37605376  1
  Na  Na94  1  0.74941096  0.83342696  0.62548882  1
  Na  Na95  1  0.74993460  0.83284652  0.87424855  1
  Mn  Mn96  1  0.39225946  0.25043804  0.37706123  1
  Mn  Mn97  1  0.35760140  0.08379076  0.50229657  1
  Mn  Mn98  1  0.89198837  0.91658860  0.12680224  1
  Mn  Mn99  1  0.39188396  0.58276518  0.12722559  1
  Mn  Mn100  1  0.60841788  0.75016215  0.37241755  1
  Mn  Mn101  1  0.39195676  0.58336237  0.37663356  1
  Mn  Mn102  1  0.85812413  0.75011593  0.50269703  1
  Mn  Mn103  1  0.35744514  0.41649236  0.00204377  1
  Mn  Mn104  1  0.64275993  0.58359965  0.99694885  1
  Mn  Mn105  1  0.39207149  0.91602388  0.37680369  1
  Mn  Mn106  1  0.85816454  0.08339257  0.75297045  1
  Mn  Mn107  1  0.14232200  0.58346041  0.49754453  1
  Mn  Mn108  1  0.85813205  0.75065953  0.25230952  1
  Mn  Mn109  1  0.85750566  0.74930247  0.75246788  1
  Mn  Mn110  1  0.64200615  0.25056833  0.74699391  1
  Mn  Mn111  1  0.10825965  0.08433989  0.62208286  1
  Mn  Mn112  1  0.89225681  0.58274338  0.62819088  1
  Mn  Mn113  1  0.89308939  0.91663884  0.62756456  1
  Mn  Mn114  1  0.85774662  0.41657000  0.00222431  1
  Mn  Mn115  1  0.85774467  0.41637172  0.50286401  1
  Mn  Mn116  1  0.60830704  0.74974123  0.12239483  1
  Mn  Mn117  1  0.60785840  0.08354157  0.12318095  1
  Mn  Mn118  1  0.39219655  0.58301282  0.62814090  1
  Mn  Mn119  1  0.10682602  0.08309659  0.37268271  1
  Mn  Mn120  1  0.85742958  0.41652521  0.25156685  1
  Mn  Mn121  1  0.89256287  0.24983960  0.87717804  1
  Mn  Mn122  1  0.64210445  0.91778958  0.49822657  1
  Mn  Mn123  1  0.85720267  0.08303670  0.00139877  1
  Mn  Mn124  1  0.14095633  0.58235747  0.24723342  1
  Mn  Mn125  1  0.10915201  0.74955379  0.62298157  1
  Mn  Mn126  1  0.14168303  0.91797831  0.24739119  1
  Mn  Mn127  1  0.35748085  0.41631118  0.25125024  1
  Mn  Mn128  1  0.60798161  0.41682008  0.37276638  1
  Mn  Mn129  1  0.35732726  0.41757692  0.75244843  1
  Mn  Mn130  1  0.64163204  0.58291871  0.49790129  1
  Mn  Mn131  1  0.39264439  0.25055764  0.87724579  1
  Mn  Mn132  1  0.89174367  0.58377472  0.37719757  1
  Mn  Mn133  1  0.35691478  0.74986390  0.00214030  1
  Mn  Mn134  1  0.35685558  0.74982933  0.25188140  1
  Mn  Mn135  1  0.60877702  0.08289094  0.37235567  1
  Mn  Mn136  1  0.35730540  0.74966769  0.50187368  1
  Mn  Mn137  1  0.10864948  0.08310758  0.87297236  1
  Mn  Mn138  1  0.35799977  0.08336511  0.75236060  1
  Mn  Mn139  1  0.10753879  0.08353825  0.12277746  1
  Mn  Mn140  1  0.64139090  0.91616127  0.74776844  1
  Mn  Mn141  1  0.60738576  0.08304512  0.62227351  1
  Mn  Mn142  1  0.14222158  0.24895050  0.99833325  1
  Mn  Mn143  1  0.10792868  0.41693683  0.37290405  1
  Fe  Fe144  1  0.64330954  0.91694103  0.24857788  1
  Fe  Fe145  1  0.85760959  0.75058910  0.00064775  1
  Fe  Fe146  1  0.85756312  0.08372227  0.50195941  1
  Fe  Fe147  1  0.35755326  0.74948197  0.75255512  1
  Fe  Fe148  1  0.10700997  0.41708685  0.87283693  1
  Fe  Fe149  1  0.14279285  0.58365710  0.74896283  1
  Fe  Fe150  1  0.89237117  0.25012572  0.37725363  1
  Fe  Fe151  1  0.89345920  0.91608154  0.87644581  1
  Fe  Fe152  1  0.14209304  0.24967852  0.24780891  1
  Fe  Fe153  1  0.64346290  0.24962613  0.24805936  1
  Fe  Fe154  1  0.89195470  0.25073251  0.12661875  1
  Fe  Fe155  1  0.85721843  0.08313852  0.25128072  1
  Fe  Fe156  1  0.14320239  0.91724621  0.99812265  1
  Fe  Fe157  1  0.10681781  0.74962815  0.12260572  1
  Fe  Fe158  1  0.14287897  0.24961754  0.49832669  1
  Fe  Fe159  1  0.64340684  0.24944378  0.49890026  1
  Fe  Fe160  1  0.35725111  0.08380445  0.25152169  1
  Fe  Fe161  1  0.14127514  0.58374788  0.99753609  1
  Fe  Fe162  1  0.14274261  0.91735368  0.49791675  1
  Fe  Fe163  1  0.10710371  0.74997028  0.87325896  1
  Fe  Fe164  1  0.64235777  0.58318232  0.74932957  1
  Fe  Fe165  1  0.64227838  0.24912292  0.99859944  1
  Fe  Fe166  1  0.60787498  0.41647166  0.12352435  1
  Fe  Fe167  1  0.64220420  0.91676313  0.99757361  1
  Fe  Fe168  1  0.14384188  0.91670414  0.74880961  1
  Fe  Fe169  1  0.89327843  0.25071542  0.62672818  1
  Fe  Fe170  1  0.60743367  0.41715538  0.87290287  1
  Fe  Fe171  1  0.39273781  0.91604466  0.87758369  1
  Fe  Fe172  1  0.60731234  0.41626273  0.62304431  1
  Fe  Fe173  1  0.89338209  0.58292047  0.12641882  1
  Fe  Fe174  1  0.60705086  0.74972832  0.87327449  1
  Fe  Fe175  1  0.10662029  0.41663539  0.12325211  1
  Fe  Fe176  1  0.39279806  0.24996990  0.62604878  1
  Fe  Fe177  1  0.85711191  0.41713983  0.75174285  1
  Fe  Fe178  1  0.35834494  0.08335570  0.00158831  1
  Fe  Fe179  1  0.89232056  0.91646758  0.37703046  1
  Fe  Fe180  1  0.60616675  0.75030895  0.62377364  1
  Fe  Fe181  1  0.10709782  0.41638652  0.62350578  1
  Fe  Fe182  1  0.39164794  0.91675791  0.62637057  1
  Fe  Fe183  1  0.14253229  0.24995979  0.74766709  1
  Fe  Fe184  1  0.60662003  0.08295440  0.87379251  1
  Fe  Fe185  1  0.35713050  0.41619282  0.50229939  1
  Fe  Fe186  1  0.64262857  0.58352719  0.24768007  1
  Fe  Fe187  1  0.39291440  0.58325887  0.87646805  1
  Fe  Fe188  1  0.39292082  0.91669731  0.12666699  1
  Fe  Fe189  1  0.39334278  0.25030947  0.12698784  1
  Fe  Fe190  1  0.10704993  0.75043120  0.37356164  1
  Fe  Fe191  1  0.89313832  0.58391759  0.87612617  1
  P  P192  1  0.05256631  0.25035712  0.11119734  1
  P  P193  1  0.05378288  0.24977095  0.36059141  1
  P  P194  1  0.05419322  0.25102578  0.61030294  1
  P  P195  1  0.05438488  0.25012271  0.85936126  1
  P  P196  1  0.05267667  0.58294716  0.10900673  1
  P  P197  1  0.05285365  0.58421134  0.36010999  1
  P  P198  1  0.05487371  0.58229645  0.61164436  1
  P  P199  1  0.05400827  0.58402640  0.86065632  1
  P  P200  1  0.05386387  0.91664333  0.10905235  1
  P  P201  1  0.05287348  0.91644256  0.36112684  1
  P  P202  1  0.05619284  0.91694349  0.61054120  1
  P  P203  1  0.05473902  0.91606001  0.86061255  1
  P  P204  1  0.55458220  0.25025908  0.11104340  1
  P  P205  1  0.55563414  0.24956089  0.36015534  1
  P  P206  1  0.55287540  0.25039580  0.60911825  1
  P  P207  1  0.55488258  0.24985530  0.86150479  1
  P  P208  1  0.55483643  0.58260049  0.11069439  1
  P  P209  1  0.55389776  0.58330764  0.35893680  1
  P  P210  1  0.55459557  0.58334327  0.61195759  1
  P  P211  1  0.55289310  0.58333883  0.85959061  1
  P  P212  1  0.55445953  0.91692934  0.11046795  1
  P  P213  1  0.55408672  0.91700759  0.35867450  1
  P  P214  1  0.55124843  0.91586031  0.61025704  1
  P  P215  1  0.55318507  0.91664759  0.86170810  1
  P  P216  1  0.44472818  0.08346074  0.13914543  1
  P  P217  1  0.44571646  0.08340885  0.38853180  1
  P  P218  1  0.44640279  0.08387710  0.63968988  1
  P  P219  1  0.44700186  0.08278445  0.89080555  1
  P  P220  1  0.44813539  0.41562676  0.13975937  1
  P  P221  1  0.44589684  0.41679607  0.39073492  1
  P  P222  1  0.44655028  0.41516851  0.63890144  1
  P  P223  1  0.44796214  0.41778874  0.88980524  1
  P  P224  1  0.44636561  0.75070694  0.13956872  1
  P  P225  1  0.44691929  0.74969434  0.38991364  1
  P  P226  1  0.44624079  0.75063822  0.64088390  1
  P  P227  1  0.44632886  0.74910193  0.88899928  1
  P  P228  1  0.94549938  0.08404085  0.14047566  1
  P  P229  1  0.94400489  0.08343594  0.38925440  1
  P  P230  1  0.94569605  0.08450330  0.63877360  1
  P  P231  1  0.94738221  0.08221973  0.88986279  1
  P  P232  1  0.94753920  0.41690041  0.13938636  1
  P  P233  1  0.94637496  0.41591238  0.39007962  1
  P  P234  1  0.94714982  0.41571563  0.64097049  1
  P  P235  1  0.94656517  0.41746187  0.88837295  1
  P  P236  1  0.94652168  0.74942121  0.13797525  1
  P  P237  1  0.94785672  0.75094782  0.39025602  1
  P  P238  1  0.94747791  0.74996672  0.64077477  1
  P  P239  1  0.94720701  0.75031605  0.88988018  1
  P  P240  1  0.19739999  0.08450322  0.23473140  1
  P  P241  1  0.19664001  0.08356256  0.48478987  1
  P  P242  1  0.19680493  0.08322546  0.73520449  1
  P  P243  1  0.19868919  0.08255724  0.98517574  1
  P  P244  1  0.19545649  0.41526967  0.23388949  1
  P  P245  1  0.19659440  0.41539049  0.48656377  1
  P  P246  1  0.19419657  0.41719685  0.73625415  1
  P  P247  1  0.19391599  0.41704726  0.98543567  1
  P  P248  1  0.19393647  0.75019384  0.23479993  1
  P  P249  1  0.19614914  0.75118157  0.48407987  1
  P  P250  1  0.19679883  0.74987601  0.73727519  1
  P  P251  1  0.19388087  0.75032398  0.98577518  1
  P  P252  1  0.69827480  0.08307011  0.23501745  1
  P  P253  1  0.69817442  0.08445517  0.48538516  1
  P  P254  1  0.69522516  0.08299092  0.73605578  1
  P  P255  1  0.69552990  0.08347063  0.98436379  1
  P  P256  1  0.69606360  0.41661893  0.23426905  1
  P  P257  1  0.69552406  0.41534577  0.48632131  1
  P  P258  1  0.69561043  0.41786109  0.73571790  1
  P  P259  1  0.69482547  0.41554388  0.98556447  1
  P  P260  1  0.69717895  0.75042567  0.23463508  1
  P  P261  1  0.69537261  0.75035979  0.48651837  1
  P  P262  1  0.69425444  0.74897228  0.73582548  1
  P  P263  1  0.69707781  0.75065247  0.98388557  1
  P  P264  1  0.30446207  0.24965413  0.01540346  1
  P  P265  1  0.30341304  0.24967727  0.26353600  1
  P  P266  1  0.30271701  0.25085521  0.51567638  1
  P  P267  1  0.30319760  0.25072233  0.76395815  1
  P  P268  1  0.30257982  0.58321987  0.01370184  1
  P  P269  1  0.30213616  0.58274204  0.26474572  1
  P  P270  1  0.30319036  0.58239755  0.51537634  1
  P  P271  1  0.30263137  0.58399961  0.76635809  1
  P  P272  1  0.30448664  0.91707188  0.01435990  1
  P  P273  1  0.30433529  0.91745322  0.26321626  1
  P  P274  1  0.30231246  0.91648292  0.51532090  1
  P  P275  1  0.30481931  0.91558025  0.76485454  1
  P  P276  1  0.80248697  0.25003305  0.01506714  1
  P  P277  1  0.80425702  0.24963826  0.26414913  1
  P  P278  1  0.80432067  0.24941622  0.51503540  1
  P  P279  1  0.80467496  0.25145782  0.76390174  1
  P  P280  1  0.80597213  0.58441613  0.01368767  1
  P  P281  1  0.80314756  0.58326061  0.26346968  1
  P  P282  1  0.80303928  0.58329421  0.51577643  1
  P  P283  1  0.80256917  0.58211766  0.76586129  1
  P  P284  1  0.80326848  0.91565122  0.01290187  1
  P  P285  1  0.80299750  0.91721465  0.26533722  1
  P  P286  1  0.80467760  0.91743609  0.51461941  1
  P  P287  1  0.80400843  0.91633058  0.76596070  1
  O  O288  1  0.05722967  0.24928363  0.18786938  1
  O  O289  1  0.05896612  0.24968303  0.43726557  1
  O  O290  1  0.05903387  0.24976688  0.68699499  1
  O  O291  1  0.05708986  0.24909535  0.93619572  1
  O  O292  1  0.05559891  0.58309350  0.18578376  1
  O  O293  1  0.05603481  0.58320439  0.43691729  1
  O  O294  1  0.05905207  0.58351879  0.68839484  1
  O  O295  1  0.05789906  0.58382338  0.93738419  1
  O  O296  1  0.05644522  0.91775162  0.18590545  1
  O  O297  1  0.05785121  0.91749858  0.43777272  1
  O  O298  1  0.06081395  0.91685143  0.68733137  1
  O  O299  1  0.05934750  0.91743697  0.93729798  1
  O  O300  1  0.55954535  0.24928861  0.18774390  1
  O  O301  1  0.56003456  0.24911651  0.43687287  1
  O  O302  1  0.55633399  0.24991861  0.68589404  1
  O  O303  1  0.55820615  0.24976432  0.93830198  1
  O  O304  1  0.55912190  0.58347568  0.18740302  1
  O  O305  1  0.55668268  0.58334103  0.43581841  1
  O  O306  1  0.55839181  0.58290594  0.68864280  1
  O  O307  1  0.55635996  0.58348879  0.93641321  1
  O  O308  1  0.55968586  0.91699315  0.18709736  1
  O  O309  1  0.55730031  0.91742115  0.43550136  1
  O  O310  1  0.55493469  0.91657014  0.68697276  1
  O  O311  1  0.55792461  0.91650033  0.93841658  1
  O  O312  1  0.44133808  0.08341913  0.06231713  1
  O  O313  1  0.44123975  0.08377941  0.31176939  1
  O  O314  1  0.44384339  0.08385461  0.56285693  1
  O  O315  1  0.44335614  0.08333277  0.81404396  1
  O  O316  1  0.44404339  0.41623688  0.06306984  1
  O  O317  1  0.44268996  0.41631402  0.31393341  1
  O  O318  1  0.44155175  0.41602281  0.56226486  1
  O  O319  1  0.44389960  0.41704926  0.81311330  1
  O  O320  1  0.44302053  0.75005257  0.06275117  1
  O  O321  1  0.44325082  0.74978811  0.31315996  1
  O  O322  1  0.44275203  0.74992308  0.56414119  1
  O  O323  1  0.44173709  0.74920651  0.81233415  1
  O  O324  1  0.94253883  0.08337026  0.06366019  1
  O  O325  1  0.94021582  0.08328145  0.31243982  1
  O  O326  1  0.94162709  0.08399001  0.56200116  1
  O  O327  1  0.94464591  0.08265076  0.81305622  1
  O  O328  1  0.94433362  0.41643889  0.06270278  1
  O  O329  1  0.94318052  0.41630275  0.31330474  1
  O  O330  1  0.94345004  0.41632205  0.56423258  1
  O  O331  1  0.94176155  0.41701258  0.81175854  1
  O  O332  1  0.94179770  0.75063587  0.06138158  1
  O  O333  1  0.94437224  0.75060734  0.31343465  1
  O  O334  1  0.94409008  0.75005768  0.56401035  1
  O  O335  1  0.94372348  0.75036941  0.81318400  1
  O  O336  1  0.19458498  0.08308903  0.06180906  1
  O  O337  1  0.19310245  0.08389830  0.31139329  1
  O  O338  1  0.19424905  0.08356965  0.56157925  1
  O  O339  1  0.19437226  0.08338867  0.81198852  1
  O  O340  1  0.18967369  0.41653943  0.06221172  1
  O  O341  1  0.19298534  0.41601244  0.31075275  1
  O  O342  1  0.19183310  0.41615855  0.56321242  1
  O  O343  1  0.19029320  0.41703359  0.81311026  1
  O  O344  1  0.19001712  0.74981540  0.06259234  1
  O  O345  1  0.18982509  0.75032123  0.31159826  1
  O  O346  1  0.19411645  0.75015323  0.56098838  1
  O  O347  1  0.19203851  0.74988798  0.81393281  1
  O  O348  1  0.69315899  0.08327256  0.06119693  1
  O  O349  1  0.69524818  0.08335117  0.31170513  1
  O  O350  1  0.69417343  0.08360537  0.56211744  1
  O  O351  1  0.69022686  0.08274904  0.81275284  1
  O  O352  1  0.69093578  0.41644340  0.06232611  1
  O  O353  1  0.69374967  0.41671408  0.31111824  1
  O  O354  1  0.69134464  0.41599284  0.56311534  1
  O  O355  1  0.69095015  0.41713194  0.81248505  1
  O  O356  1  0.69354980  0.75010600  0.06060037  1
  O  O357  1  0.69455925  0.75005181  0.31144610  1
  O  O358  1  0.69060137  0.75059214  0.56327300  1
  O  O359  1  0.68999221  0.74988850  0.81261976  1
  O  O360  1  0.30862427  0.25059921  0.18690972  1
  O  O361  1  0.30637350  0.25051048  0.43892920  1
  O  O362  1  0.30846471  0.25079065  0.68737890  1
  O  O363  1  0.30736436  0.25083508  0.93854684  1
  O  O364  1  0.30542998  0.58293294  0.18789641  1
  O  O365  1  0.30592929  0.58282652  0.43859900  1
  O  O366  1  0.30657531  0.58336220  0.68960993  1
  O  O367  1  0.30842934  0.58303563  0.93713237  1
  O  O368  1  0.30852116  0.91635964  0.18647983  1
  O  O369  1  0.30613814  0.91645730  0.43857527  1
  O  O370  1  0.30915793  0.91613114  0.68811339  1
  O  O371  1  0.30931385  0.91625796  0.93755796  1
  O  O372  1  0.80883633  0.25068655  0.18740916  1
  O  O373  1  0.80847626  0.25050325  0.43824897  1
  O  O374  1  0.80918209  0.25089466  0.68718154  1
  O  O375  1  0.80642716  0.25053404  0.93833547  1
  O  O376  1  0.80862922  0.58321309  0.18680025  1
  O  O377  1  0.80629884  0.58330318  0.43892094  1
  O  O378  1  0.80607712  0.58278101  0.68912276  1
  O  O379  1  0.81025848  0.58346520  0.93693758  1
  O  O380  1  0.80635856  0.91624558  0.18853389  1
  O  O381  1  0.80869463  0.91625703  0.43783830  1
  O  O382  1  0.80759262  0.91642675  0.68916575  1
  O  O383  1  0.80855470  0.91597256  0.93634413  1
  O  O384  1  0.23460179  0.24947078  0.04014986  1
  O  O385  1  0.23310499  0.25000905  0.28735164  1
  O  O386  1  0.23261205  0.24994291  0.54014046  1
  O  O387  1  0.23273173  0.25054014  0.78732073  1
  O  O388  1  0.23192893  0.58366412  0.03639907  1
  O  O389  1  0.23246373  0.58210196  0.28979939  1
  O  O390  1  0.23358725  0.58350446  0.54088746  1
  O  O391  1  0.23243122  0.58332206  0.79043307  1
  O  O392  1  0.23400454  0.91634673  0.03769320  1
  O  O393  1  0.23427019  0.91765189  0.28739113  1
  O  O394  1  0.23227263  0.91661909  0.53981869  1
  O  O395  1  0.23436245  0.91661323  0.78848587  1
  O  O396  1  0.73232552  0.24921941  0.03922513  1
  O  O397  1  0.73377568  0.25004294  0.28764432  1
  O  O398  1  0.73412938  0.24975077  0.53936080  1
  O  O399  1  0.73453153  0.25108812  0.78764083  1
  O  O400  1  0.73563891  0.58389256  0.03718960  1
  O  O401  1  0.73278053  0.58315465  0.28705211  1
  O  O402  1  0.73332795  0.58316511  0.54061386  1
  O  O403  1  0.73252962  0.58286438  0.79050311  1
  O  O404  1  0.73281459  0.91656987  0.03645643  1
  O  O405  1  0.73301329  0.91706964  0.29019843  1
  O  O406  1  0.73476981  0.91745086  0.53930198  1
  O  O407  1  0.73396496  0.91610624  0.79000207  1
  O  O408  1  0.26746574  0.08362951  0.21043065  1
  O  O409  1  0.26609440  0.08398305  0.45893732  1
  O  O410  1  0.26637992  0.08307646  0.70962487  1
  O  O411  1  0.26872033  0.08343585  0.96048950  1
  O  O412  1  0.26498317  0.41641411  0.20824923  1
  O  O413  1  0.26677575  0.41539454  0.46234860  1
  O  O414  1  0.26431494  0.41737216  0.71218683  1
  O  O415  1  0.26409040  0.41624496  0.96145854  1
  O  O416  1  0.26396663  0.75018492  0.21057154  1
  O  O417  1  0.26558070  0.75035006  0.45814608  1
  O  O418  1  0.26704478  0.75004274  0.71313299  1
  O  O419  1  0.26402642  0.75043652  0.96175197  1
  O  O420  1  0.76812013  0.08307465  0.20965294  1
  O  O421  1  0.76813458  0.08420764  0.46080249  1
  O  O422  1  0.76545929  0.08320366  0.71268138  1
  O  O423  1  0.76515034  0.08363173  0.95879444  1
  O  O424  1  0.76564540  0.41638052  0.20853833  1
  O  O425  1  0.76539724  0.41596050  0.46174770  1
  O  O426  1  0.76599065  0.41713412  0.71204505  1
  O  O427  1  0.76493635  0.41654764  0.96149187  1
  O  O428  1  0.76671050  0.75072813  0.20884655  1
  O  O429  1  0.76540184  0.75001050  0.46239074  1
  O  O430  1  0.76443034  0.74975386  0.71197982  1
  O  O431  1  0.76716872  0.74984847  0.95940524  1
  O  O432  1  0.01516877  0.08327684  0.16579772  1
  O  O433  1  0.01403139  0.08371646  0.41367302  1
  O  O434  1  0.01574824  0.08380681  0.66291388  1
  O  O435  1  0.01692056  0.08317703  0.91544189  1
  O  O436  1  0.01738482  0.41684925  0.16471226  1
  O  O437  1  0.01604015  0.41609899  0.41528227  1
  O  O438  1  0.01726436  0.41625934  0.66522517  1
  O  O439  1  0.01703622  0.41709261  0.91190707  1
  O  O440  1  0.01691487  0.74990036  0.16172377  1
  O  O441  1  0.01772414  0.75047511  0.41534977  1
  O  O442  1  0.01726876  0.75006860  0.66551136  1
  O  O443  1  0.01737079  0.74979639  0.91424558  1
  O  O444  1  0.51478261  0.08355968  0.16360178  1
  O  O445  1  0.51576400  0.08313509  0.41255385  1
  O  O446  1  0.51585240  0.08327231  0.66564386  1
  O  O447  1  0.51704593  0.08324055  0.91537262  1
  O  O448  1  0.51818545  0.41593810  0.16424176  1
  O  O449  1  0.51579121  0.41701250  0.41527546  1
  O  O450  1  0.51696783  0.41584415  0.66250077  1
  O  O451  1  0.51811389  0.41733159  0.91406924  1
  O  O452  1  0.51616293  0.75023776  0.16426750  1
  O  O453  1  0.51661138  0.75000155  0.41485627  1
  O  O454  1  0.51634770  0.75002801  0.66540069  1
  O  O455  1  0.51667087  0.74969405  0.91302321  1
  O  O456  1  0.48414009  0.24977453  0.08758393  1
  O  O457  1  0.48544902  0.25015514  0.33643056  1
  O  O458  1  0.48292529  0.25004162  0.58427598  1
  O  O459  1  0.48502953  0.25007249  0.83646174  1
  O  O460  1  0.48482383  0.58302235  0.08638446  1
  O  O461  1  0.48427244  0.58284341  0.33368948  1
  O  O462  1  0.48460819  0.58346152  0.58736995  1
  O  O463  1  0.48292334  0.58303298  0.83467495  1
  O  O464  1  0.48391909  0.91714629  0.08731435  1
  O  O465  1  0.48432106  0.91661959  0.33392191  1
  O  O466  1  0.48125226  0.91640508  0.58542736  1
  O  O467  1  0.48271779  0.91623594  0.83810405  1
  O  O468  1  0.98232590  0.25048889  0.08697589  1
  O  O469  1  0.98316599  0.24971147  0.33766847  1
  O  O470  1  0.98381154  0.25067157  0.58673540  1
  O  O471  1  0.98463878  0.24971222  0.83430913  1
  O  O472  1  0.98274559  0.58289870  0.08392811  1
  O  O473  1  0.98331118  0.58390149  0.33455292  1
  O  O474  1  0.98490085  0.58251708  0.58732657  1
  O  O475  1  0.98363908  0.58412858  0.83659199  1
  O  O476  1  0.98409798  0.91658272  0.08406224  1
  O  O477  1  0.98257590  0.91673863  0.33717545  1
  O  O478  1  0.98597351  0.91687620  0.58710293  1
  O  O479  1  0.98441503  0.91614475  0.83668200  1
  O  O480  1  0.08617490  0.31541365  0.07836203  1
  O  O481  1  0.08709537  0.31471952  0.32710476  1
  O  O482  1  0.08736790  0.31641436  0.57751461  1
  O  O483  1  0.08829145  0.31545908  0.82733234  1
  O  O484  1  0.08678222  0.64794416  0.07634150  1
  O  O485  1  0.08688204  0.64941681  0.32812889  1
  O  O486  1  0.08862543  0.64714272  0.57830339  1
  O  O487  1  0.08764436  0.64911042  0.82762951  1
  O  O488  1  0.08819121  0.98159279  0.07629496  1
  O  O489  1  0.08613006  0.98143549  0.32729208  1
  O  O490  1  0.08943898  0.98195944  0.57698098  1
  O  O491  1  0.08844569  0.98072586  0.82679287  1
  O  O492  1  0.58789054  0.31529179  0.07784471  1
  O  O493  1  0.58948982  0.31453224  0.32723857  1
  O  O494  1  0.58714407  0.31541746  0.57682564  1
  O  O495  1  0.58861774  0.31507770  0.82876182  1
  O  O496  1  0.58859680  0.64744828  0.07719677  1
  O  O497  1  0.58817553  0.64831220  0.32646610  1
  O  O498  1  0.58800088  0.64875674  0.57930179  1
  O  O499  1  0.58690175  0.64843663  0.82711573  1
  O  O500  1  0.58781267  0.98198453  0.07709005  1
  O  O501  1  0.58810009  0.98198487  0.32580941  1
  O  O502  1  0.58537957  0.98076179  0.57725143  1
  O  O503  1  0.58596936  0.98193909  0.82832668  1
  O  O504  1  0.41099765  0.01828834  0.17181881  1
  O  O505  1  0.41196211  0.01841194  0.42146842  1
  O  O506  1  0.41172618  0.01888339  0.67169094  1
  O  O507  1  0.41312840  0.01765345  0.92335584  1
  O  O508  1  0.41460300  0.35041404  0.17254274  1
  O  O509  1  0.41200390  0.35170083  0.42353023  1
  O  O510  1  0.41366241  0.34986966  0.67214346  1
  O  O511  1  0.41412653  0.35281773  0.92279136  1
  O  O512  1  0.41212135  0.68574605  0.17208707  1
  O  O513  1  0.41313751  0.68453482  0.42253756  1
  O  O514  1  0.41203483  0.68578890  0.67401886  1
  O  O515  1  0.41332421  0.68372308  0.92214192  1
  O  O516  1  0.91081275  0.01912799  0.17288010  1
  O  O517  1  0.91043051  0.01836992  0.42232115  1
  O  O518  1  0.91193378  0.01965400  0.67206031  1
  O  O519  1  0.91355154  0.01687014  0.92203282  1
  O  O520  1  0.91336879  0.35203996  0.17217417  1
  O  O521  1  0.91241392  0.35062561  0.42233739  1
  O  O522  1  0.91340026  0.35052611  0.67348639  1
  O  O523  1  0.91343813  0.35246714  0.92216723  1
  O  O524  1  0.91365171  0.68397858  0.17103992  1
  O  O525  1  0.91370679  0.68589545  0.42277847  1
  O  O526  1  0.91349396  0.68481248  0.67322114  1
  O  O527  1  0.91292169  0.68543524  0.92241465  1
  O  O528  1  0.16330234  0.01969473  0.20171735  1
  O  O529  1  0.16259061  0.01825715  0.45252951  1
  O  O530  1  0.16261080  0.01802157  0.70329210  1
  O  O531  1  0.16533213  0.01724382  0.95240086  1
  O  O532  1  0.16152521  0.34981222  0.20197127  1
  O  O533  1  0.16308127  0.35026631  0.45350455  1
  O  O534  1  0.16065626  0.35215145  0.70303052  1
  O  O535  1  0.15994841  0.35215741  0.95240083  1
  O  O536  1  0.16021548  0.68509620  0.20179293  1
  O  O537  1  0.16103613  0.68651517  0.45182380  1
  O  O538  1  0.16363028  0.68468617  0.70389200  1
  O  O539  1  0.16022116  0.68540599  0.95245657  1
  O  O540  1  0.66420383  0.01801026  0.20255392  1
  O  O541  1  0.66426491  0.01951044  0.45238957  1
  O  O542  1  0.66212587  0.01787227  0.70254392  1
  O  O543  1  0.66115764  0.01841634  0.95204765  1
  O  O544  1  0.66163314  0.35139716  0.20230556  1
  O  O545  1  0.66229608  0.34994067  0.45367666  1
  O  O546  1  0.66176044  0.35316580  0.70201159  1
  O  O547  1  0.66171094  0.35014454  0.95287708  1
  O  O548  1  0.66307714  0.68533645  0.20210576  1
  O  O549  1  0.66180226  0.68531278  0.45337522  1
  O  O550  1  0.66114294  0.68346768  0.70330440  1
  O  O551  1  0.66270512  0.68575240  0.95111756  1
  O  O552  1  0.33847176  0.31462268  0.04836917  1
  O  O553  1  0.33677074  0.31462078  0.29721004  1
  O  O554  1  0.33635819  0.31586542  0.54871908  1
  O  O555  1  0.33619189  0.31574347  0.79773760  1
  O  O556  1  0.33572542  0.64818817  0.04732025  1
  O  O557  1  0.33576674  0.64804313  0.29724893  1
  O  O558  1  0.33782238  0.64730616  0.54770406  1
  O  O559  1  0.33630922  0.64910934  0.79908916  1
  O  O560  1  0.33766674  0.98231730  0.04726314  1
  O  O561  1  0.33797207  0.98265518  0.29582053  1
  O  O562  1  0.33633338  0.98149879  0.54811974  1
  O  O563  1  0.33879542  0.98038252  0.79811452  1
  O  O564  1  0.83590641  0.31516609  0.04828777  1
  O  O565  1  0.83775306  0.31438304  0.29801900  1
  O  O566  1  0.83813781  0.31420293  0.54860632  1
  O  O567  1  0.83777259  0.31675078  0.79701513  1
  O  O568  1  0.83909415  0.64978238  0.04648828  1
  O  O569  1  0.83626938  0.64841107  0.29696757  1
  O  O570  1  0.83712647  0.64824025  0.54835515  1
  O  O571  1  0.83708853  0.64694589  0.79854130  1
  O  O572  1  0.83676166  0.98052019  0.04650202  1
  O  O573  1  0.83713172  0.98234961  0.29743356  1
  O  O574  1  0.83832390  0.98290200  0.54682987  1
  O  O575  1  0.83808075  0.98120124  0.79880269  1
  O  O576  1  0.41095888  0.14855405  0.17204953  1
  O  O577  1  0.41235123  0.14848749  0.42181053  1
  O  O578  1  0.41259222  0.14938229  0.67185992  1
  O  O579  1  0.41284860  0.14773267  0.92350399  1
  O  O580  1  0.41419291  0.48061885  0.17255821  1
  O  O581  1  0.41162843  0.48170666  0.42322236  1
  O  O582  1  0.41303397  0.48001682  0.67270755  1
  O  O583  1  0.41431060  0.48295907  0.92248336  1
  O  O584  1  0.41271053  0.81612107  0.17173548  1
  O  O585  1  0.41276471  0.81471232  0.42247867  1
  O  O586  1  0.41253212  0.81584443  0.67338789  1
  O  O587  1  0.41257452  0.81394870  0.92225413  1
  O  O588  1  0.91146251  0.14926861  0.17264760  1
  O  O589  1  0.91026402  0.14867589  0.42203461  1
  O  O590  1  0.91249371  0.14986241  0.67163673  1
  O  O591  1  0.91261352  0.14708151  0.92202796  1
  O  O592  1  0.91366354  0.48223877  0.17168796  1
  O  O593  1  0.91225369  0.48093185  0.42262856  1
  O  O594  1  0.91290764  0.48047507  0.67409367  1
  O  O595  1  0.91354578  0.48260887  0.92160174  1
  O  O596  1  0.91320233  0.81423404  0.17189056  1
  O  O597  1  0.91404576  0.81609633  0.42275604  1
  O  O598  1  0.91341959  0.81491260  0.67332739  1
  O  O599  1  0.91367036  0.81550187  0.92295842  1
  O  O600  1  0.08587462  0.18533789  0.07750211  1
  O  O601  1  0.08692454  0.18481069  0.32678455  1
  O  O602  1  0.08771148  0.18634716  0.57628378  1
  O  O603  1  0.08894727  0.18539226  0.82658791  1
  O  O604  1  0.08680440  0.51784176  0.07666102  1
  O  O605  1  0.08702127  0.51906008  0.32764875  1
  O  O606  1  0.08820685  0.51685236  0.57902313  1
  O  O607  1  0.08756544  0.51908964  0.82747334  1
  O  O608  1  0.08826010  0.85163142  0.07711287  1
  O  O609  1  0.08624309  0.85131183  0.32817759  1
  O  O610  1  0.08975455  0.85195715  0.57739155  1
  O  O611  1  0.08815880  0.85064690  0.82792951  1
  O  O612  1  0.58802080  0.18531514  0.07735653  1
  O  O613  1  0.58900578  0.18464058  0.32647319  1
  O  O614  1  0.58715619  0.18545993  0.57632927  1
  O  O615  1  0.58842702  0.18467587  0.82869949  1
  O  O616  1  0.58831897  0.51733324  0.07803211  1
  O  O617  1  0.58857797  0.51843171  0.32675348  1
  O  O618  1  0.58806013  0.51822470  0.57872727  1
  O  O619  1  0.58726767  0.51839905  0.82712678  1
  O  O620  1  0.58765346  0.85200523  0.07666339  1
  O  O621  1  0.58858628  0.85209932  0.32637454  1
  O  O622  1  0.58501917  0.85062132  0.57800043  1
  O  O623  1  0.58650263  0.85167132  0.82830590  1
  O  O624  1  0.33883977  0.18457811  0.04725451  1
  O  O625  1  0.33661963  0.18444681  0.29669923  1
  O  O626  1  0.33712579  0.18598586  0.54837831  1
  O  O627  1  0.33653069  0.18565508  0.79728175  1
  O  O628  1  0.33534200  0.51806278  0.04748452  1
  O  O629  1  0.33659339  0.51779527  0.29684831  1
  O  O630  1  0.33677302  0.51703275  0.54789465  1
  O  O631  1  0.33676203  0.51911107  0.79931367  1
  O  O632  1  0.33809878  0.85227698  0.04793633  1
  O  O633  1  0.33745313  0.85236668  0.29681313  1
  O  O634  1  0.33618884  0.85149335  0.54825661  1
  O  O635  1  0.33765839  0.85037167  0.79835343  1
  O  O636  1  0.83691507  0.18524173  0.04756535  1
  O  O637  1  0.83738761  0.18435909  0.29707586  1
  O  O638  1  0.83797265  0.18424172  0.54769301  1
  O  O639  1  0.83811339  0.18646156  0.79733222  1
  O  O640  1  0.83951438  0.51956263  0.04736336  1
  O  O641  1  0.83630019  0.51818760  0.29696077  1
  O  O642  1  0.83704059  0.51811140  0.54817615  1
  O  O643  1  0.83642723  0.51697605  0.79838427  1
  O  O644  1  0.83600353  0.85037398  0.04649465  1
  O  O645  1  0.83713465  0.85237184  0.29845469  1
  O  O646  1  0.83835339  0.85256005  0.54801623  1
  O  O647  1  0.83810794  0.85131053  0.79854048  1
  O  O648  1  0.16405165  0.14976464  0.20183201  1
  O  O649  1  0.16204153  0.14863554  0.45286632  1
  O  O650  1  0.16263341  0.14831232  0.70275557  1
  O  O651  1  0.16442593  0.14741052  0.95246292  1
  O  O652  1  0.16022529  0.47980736  0.20147442  1
  O  O653  1  0.16328118  0.48044570  0.45296637  1
  O  O654  1  0.16058542  0.48236356  0.70347977  1
  O  O655  1  0.16061805  0.48232391  0.95240835  1
  O  O656  1  0.16012904  0.81514236  0.20176581  1
  O  O657  1  0.16204908  0.81662012  0.45231560  1
  O  O658  1  0.16340845  0.81495087  0.70404444  1
  O  O659  1  0.16041047  0.81556010  0.95294159  1
  O  O660  1  0.66418479  0.14809327  0.20238157  1
  O  O661  1  0.66451394  0.14964304  0.45282721  1
  O  O662  1  0.66196306  0.14811674  0.70282377  1
  O  O663  1  0.66113357  0.14857625  0.95231254  1
  O  O664  1  0.66174616  0.48156761  0.20180192  1
  O  O665  1  0.66166035  0.48024427  0.45318711  1
  O  O666  1  0.66239520  0.48312165  0.70284066  1
  O  O667  1  0.66079751  0.48036284  0.95216652  1
  O  O668  1  0.66289837  0.81574822  0.20277304  1
  O  O669  1  0.66212037  0.81552218  0.45328287  1
  O  O670  1  0.66019142  0.81365274  0.70232574  1
  O  O671  1  0.66310681  0.81569677  0.95133944  1
