# generated using pymatgen
data_Na2MnFe(PO4)2
_symmetry_space_group_name_H-M   'P 1'
_cell_length_a   21.08750334
_cell_length_b   18.94017873
_cell_length_c   20.04606172
_cell_angle_alpha   90.00105980
_cell_angle_beta   89.99669508
_cell_angle_gamma   90.00086025
_symmetry_Int_Tables_number   1
_chemical_formula_structural   Na2MnFe(PO4)2
_chemical_formula_sum   'Na96 Mn48 Fe48 P96 O384'
_cell_volume   8006.41872603
_cell_formula_units_Z   48
loop_
 _symmetry_equiv_pos_site_id
 _symmetry_equiv_pos_as_xyz
  1  'x, y, z'
loop_
 _atom_site_type_symbol
 _atom_site_label
 _atom_site_symmetry_multiplicity
 _atom_site_fract_x
 _atom_site_fract_y
 _atom_site_fract_z
 _atom_site_occupancy
  Na  Na0  1  0.00009138  -0.00020443  0.00043748  1
  Na  Na1  1  -0.00075662  -0.00066089  0.24974877  1
  Na  Na2  1  0.00289525  0.00076191  0.49958068  1
  Na  Na3  1  0.00002922  -0.00067758  0.75059435  1
  Na  Na4  1  -0.00113922  0.33325470  -0.00031941  1
  Na  Na5  1  0.00172653  0.33446920  0.25074999  1
  Na  Na6  1  0.00161667  0.33385281  0.50009581  1
  Na  Na7  1  -0.00037482  0.33293710  0.74973638  1
  Na  Na8  1  0.00249938  0.66732750  -0.00083432  1
  Na  Na9  1  -0.00064579  0.66596124  0.25081703  1
  Na  Na10  1  -0.00057469  0.66597410  0.50062583  1
  Na  Na11  1  0.00333542  0.66769711  0.74933308  1
  Na  Na12  1  0.49983430  0.00024349  -0.00099720  1
  Na  Na13  1  0.50037208  -0.00024573  0.25073181  1
  Na  Na14  1  0.50167645  0.00046806  0.49903216  1
  Na  Na15  1  0.49832718  -0.00110457  0.75063722  1
  Na  Na16  1  0.50182256  0.33442766  0.00107974  1
  Na  Na17  1  0.50147493  0.33413651  0.25005064  1
  Na  Na18  1  0.49930537  0.33317727  0.50003779  1
  Na  Na19  1  0.50017402  0.33441848  0.74924306  1
  Na  Na20  1  0.49841832  0.66619014  0.00074799  1
  Na  Na21  1  0.49917008  0.66656271  0.24982393  1
  Na  Na22  1  0.50029390  0.66660177  0.49960754  1
  Na  Na23  1  0.49982144  0.66679493  0.74919369  1
  Na  Na24  1  0.24990029  -0.00066437  0.12456207  1
  Na  Na25  1  0.24883431  -0.00042284  0.37488159  1
  Na  Na26  1  0.25044576  0.00038063  0.62565804  1
  Na  Na27  1  0.24979216  -0.00053165  0.87430543  1
  Na  Na28  1  0.24862388  0.33269678  0.12481877  1
  Na  Na29  1  0.24934018  0.33398205  0.37378977  1
  Na  Na30  1  0.24900360  0.33315792  0.62508544  1
  Na  Na31  1  0.25146931  0.33442399  0.87628912  1
  Na  Na32  1  0.25127006  0.66731306  0.12425950  1
  Na  Na33  1  0.25082460  0.66746555  0.37466542  1
  Na  Na34  1  0.24824297  0.66594337  0.62582372  1
  Na  Na35  1  0.24916744  0.66655413  0.87590666  1
  Na  Na36  1  0.75039073  -0.00022534  0.12525321  1
  Na  Na37  1  0.74787465  -0.00098227  0.37442180  1
  Na  Na38  1  0.74917248  -0.00091174  0.62514086  1
  Na  Na39  1  0.75170238  -0.00016691  0.87492904  1
  Na  Na40  1  0.74855044  0.33301384  0.12451663  1
  Na  Na41  1  0.74877333  0.33331883  0.37529547  1
  Na  Na42  1  0.74888292  0.33340491  0.62582895  1
  Na  Na43  1  0.74854374  0.33369245  0.87537203  1
  Na  Na44  1  0.74942276  0.66563483  0.12513583  1
  Na  Na45  1  0.75118353  0.66612290  0.37463840  1
  Na  Na46  1  0.75050035  0.66638371  0.62494440  1
  Na  Na47  1  0.74799721  0.66553528  0.87468652  1
  Na  Na48  1  -0.00173288  0.16671948  0.00045482  1
  Na  Na49  1  -0.00082005  0.16700356  0.25003863  1
  Na  Na50  1  0.00263221  0.16592548  0.49981753  1
  Na  Na51  1  0.00219595  0.16512987  0.74948845  1
  Na  Na52  1  0.00137617  0.50002549  -0.00081113  1
  Na  Na53  1  -0.00031517  0.50087390  0.25033738  1
  Na  Na54  1  0.00085415  0.50075196  0.50060721  1
  Na  Na55  1  0.00080229  0.50093492  0.75057946  1
  Na  Na56  1  0.00089635  0.83351130  -0.00024348  1
  Na  Na57  1  0.00077965  0.83316133  0.25091224  1
  Na  Na58  1  -0.00009152  0.83346848  0.49968162  1
  Na  Na59  1  0.00016972  0.83363882  0.74964851  1
  Na  Na60  1  0.49855521  0.16683788  0.00035645  1
  Na  Na61  1  0.50149126  0.16547780  0.24972318  1
  Na  Na62  1  0.50191721  0.16514888  0.49951484  1
  Na  Na63  1  0.49819411  0.16680594  0.75027741  1
  Na  Na64  1  0.50116301  0.50124877  0.00004422  1
  Na  Na65  1  0.50177429  0.50044990  0.25095139  1
  Na  Na66  1  0.50207104  0.49995474  0.49999715  1
  Na  Na67  1  0.50210217  0.49993222  0.74887336  1
  Na  Na68  1  0.49775653  0.83406050  -0.00011813  1
  Na  Na69  1  0.49772093  0.83389720  0.25003347  1
  Na  Na70  1  0.49856988  0.83343048  0.49950246  1
  Na  Na71  1  0.49766170  0.83392530  0.74993057  1
  Na  Na72  1  0.25142342  0.16530483  0.12426929  1
  Na  Na73  1  0.24797216  0.16703576  0.37580398  1
  Na  Na74  1  0.24883107  0.16659941  0.62499797  1
  Na  Na75  1  0.25056348  0.16603129  0.87534971  1
  Na  Na76  1  0.24896626  0.50074170  0.12470040  1
  Na  Na77  1  0.24882900  0.50086849  0.37342360  1
  Na  Na78  1  0.24988449  0.50022582  0.62494784  1
  Na  Na79  1  0.24892036  0.50111643  0.87656111  1
  Na  Na80  1  0.25103717  0.83314510  0.12435700  1
  Na  Na81  1  0.25085589  0.83291477  0.37474603  1
  Na  Na82  1  0.25001095  0.83306812  0.62622086  1
  Na  Na83  1  0.25101897  0.83289169  0.87471972  1
  Na  Na84  1  0.75013316  0.16589589  0.12543297  1
  Na  Na85  1  0.74716250  0.16694496  0.37489837  1
  Na  Na86  1  0.74832025  0.16596828  0.62437205  1
  Na  Na87  1  0.75054141  0.16543798  0.87575165  1
  Na  Na88  1  0.74857777  0.50086773  0.12496888  1
  Na  Na89  1  0.74958738  0.50088263  0.37525480  1
  Na  Na90  1  0.74852403  0.50109526  0.62531475  1
  Na  Na91  1  0.74766316  0.50049519  0.87471292  1
  Na  Na92  1  0.75075027  0.83349600  0.12454930  1
  Na  Na93  1  0.75105997  0.83336402  0.37426860  1
  Na  Na94  1  0.75165294  0.83321240  0.62612640  1
  Na  Na95  1  0.75082344  0.83377085  0.87460681  1
  Mn  Mn96  1  0.89237550  0.25035069  0.37755307  1
  Mn  Mn97  1  0.60670345  0.74991937  0.87326896  1
  Mn  Mn98  1  0.64087146  0.24971865  0.74782128  1
  Mn  Mn99  1  0.39297605  0.25012768  0.12793977  1
  Mn  Mn100  1  0.39231973  0.58289204  0.37742376  1
  Mn  Mn101  1  0.60817055  0.41627662  0.37281032  1
  Mn  Mn102  1  0.85857796  0.74957536  0.25134056  1
  Mn  Mn103  1  0.85809788  0.41676885  0.50271222  1
  Mn  Mn104  1  0.14286514  0.91647814  0.24738729  1
  Mn  Mn105  1  0.64220189  0.24943585  0.99738653  1
  Mn  Mn106  1  0.89179056  0.24933880  0.87706972  1
  Mn  Mn107  1  0.14158901  0.24947173  0.99768543  1
  Mn  Mn108  1  0.85664820  0.41656643  0.75183273  1
  Mn  Mn109  1  0.85841557  0.74963065  0.00214913  1
  Mn  Mn110  1  0.14187961  0.58408277  0.24720363  1
  Mn  Mn111  1  0.14205323  0.24964879  0.24710979  1
  Mn  Mn112  1  0.39159053  0.24939255  0.62674521  1
  Mn  Mn113  1  0.35720118  0.74969490  0.75235215  1
  Mn  Mn114  1  0.35752039  0.08264526  0.00217833  1
  Mn  Mn115  1  0.39240920  0.25015539  0.37697283  1
  Mn  Mn116  1  0.85845594  0.74938795  0.75232759  1
  Mn  Mn117  1  0.10832494  0.41675484  0.62239116  1
  Mn  Mn118  1  0.85835445  0.08366444  0.75139259  1
  Mn  Mn119  1  0.85774992  0.41630741  0.25181274  1
  Mn  Mn120  1  0.35775238  0.41653316  0.25181465  1
  Mn  Mn121  1  0.14268709  0.25058642  0.74847242  1
  Mn  Mn122  1  0.89269102  0.24953674  0.62722197  1
  Mn  Mn123  1  0.60704189  0.75065923  0.12235139  1
  Mn  Mn124  1  0.64197833  0.91612541  0.74791698  1
  Mn  Mn125  1  0.60815698  0.75034713  0.37300598  1
  Mn  Mn126  1  0.89256014  0.91687749  0.37794739  1
  Mn  Mn127  1  0.60780161  0.75083487  0.62189314  1
  Mn  Mn128  1  0.64155662  0.24968880  0.49761865  1
  Mn  Mn129  1  0.89266705  0.58392931  0.87708296  1
  Mn  Mn130  1  0.10719882  0.08354383  0.12267345  1
  Mn  Mn131  1  0.39228471  0.58354238  0.62661702  1
  Mn  Mn132  1  0.10802238  0.41623084  0.87254473  1
  Mn  Mn133  1  0.39200419  0.91706060  0.37787180  1
  Mn  Mn134  1  0.35852362  0.41681498  0.75259615  1
  Mn  Mn135  1  0.85701770  0.08372058  0.25247428  1
  Mn  Mn136  1  0.14241619  0.91648459  0.74764935  1
  Mn  Mn137  1  0.35717025  0.08351181  0.50242873  1
  Mn  Mn138  1  0.35822641  0.41735963  0.00294371  1
  Mn  Mn139  1  0.60726978  0.08360620  0.87274999  1
  Mn  Mn140  1  0.85690467  0.41671126  0.00236062  1
  Mn  Mn141  1  0.10797356  0.74985370  0.37318246  1
  Mn  Mn142  1  0.85755261  0.08269825  0.50214639  1
  Mn  Mn143  1  0.64193148  0.91605115  0.24669639  1
  Fe  Fe144  1  0.14257464  0.91617602  0.99828278  1
  Fe  Fe145  1  0.85754541  0.08281476  0.00192204  1
  Fe  Fe146  1  0.39301727  0.58355082  0.12680464  1
  Fe  Fe147  1  0.10783973  0.08367447  0.37267074  1
  Fe  Fe148  1  0.14288510  0.58402864  0.99872243  1
  Fe  Fe149  1  0.64189237  0.58451922  0.99819168  1
  Fe  Fe150  1  0.60650649  0.41691686  0.87346938  1
  Fe  Fe151  1  0.64318372  0.58335348  0.24796896  1
  Fe  Fe152  1  0.14304539  0.58287258  0.74854824  1
  Fe  Fe153  1  0.39228898  0.91698400  0.62573323  1
  Fe  Fe154  1  0.14270371  0.58329700  0.49831920  1
  Fe  Fe155  1  0.39261397  0.58311578  0.87680590  1
  Fe  Fe156  1  0.89339573  0.58360736  0.62707013  1
  Fe  Fe157  1  0.89278552  0.58297118  0.37729438  1
  Fe  Fe158  1  0.35729480  0.75028904  0.25136180  1
  Fe  Fe159  1  0.35782998  0.08308903  0.25178467  1
  Fe  Fe160  1  0.60760417  0.41683411  0.12340258  1
  Fe  Fe161  1  0.60695516  0.08279240  0.12286137  1
  Fe  Fe162  1  0.64273928  0.91542420  0.49912177  1
  Fe  Fe163  1  0.10798421  0.74969944  0.12328620  1
  Fe  Fe164  1  0.35730395  0.08360745  0.75140612  1
  Fe  Fe165  1  0.39242537  0.91693188  0.12620329  1
  Fe  Fe166  1  0.10829061  0.08256154  0.62340811  1
  Fe  Fe167  1  0.14257398  0.25052814  0.49799598  1
  Fe  Fe168  1  0.60706855  0.41620506  0.62252908  1
  Fe  Fe169  1  0.10718075  0.75053207  0.62242661  1
  Fe  Fe170  1  0.14289562  0.91631864  0.49895606  1
  Fe  Fe171  1  0.35670843  0.74962759  0.50169973  1
  Fe  Fe172  1  0.60734013  0.08306555  0.37282960  1
  Fe  Fe173  1  0.89337036  0.91661802  0.62582555  1
  Fe  Fe174  1  0.89343306  0.91656706  0.87705195  1
  Fe  Fe175  1  0.35660243  0.74985536  0.00158612  1
  Fe  Fe176  1  0.10777196  0.41663169  0.37352964  1
  Fe  Fe177  1  0.35659067  0.41728264  0.50089502  1
  Fe  Fe178  1  0.10670854  0.41718055  0.12338929  1
  Fe  Fe179  1  0.39248822  0.25070595  0.87688768  1
  Fe  Fe180  1  0.64234639  0.25054281  0.24747110  1
  Fe  Fe181  1  0.64190753  0.58403340  0.74783055  1
  Fe  Fe182  1  0.89293803  0.58337900  0.12570970  1
  Fe  Fe183  1  0.89326370  0.91603122  0.12599413  1
  Fe  Fe184  1  0.10807140  0.75094043  0.87347298  1
  Fe  Fe185  1  0.85776676  0.75020818  0.50180743  1
  Fe  Fe186  1  0.39204655  0.91652283  0.87752009  1
  Fe  Fe187  1  0.64398375  0.58460757  0.49826443  1
  Fe  Fe188  1  0.10690443  0.08303505  0.87372280  1
  Fe  Fe189  1  0.64287453  0.91612014  0.99837435  1
  Fe  Fe190  1  0.89214682  0.25059885  0.12711538  1
  Fe  Fe191  1  0.60665647  0.08292563  0.62386822  1
  P  P192  1  0.05160775  0.25072362  0.11012856  1
  P  P193  1  0.05513493  0.25017710  0.36111906  1
  P  P194  1  0.05465647  0.24925103  0.60950844  1
  P  P195  1  0.05294036  0.24863908  0.86000853  1
  P  P196  1  0.05288723  0.58363099  0.10950295  1
  P  P197  1  0.05388122  0.58287293  0.36148467  1
  P  P198  1  0.05470253  0.58422783  0.61081476  1
  P  P199  1  0.05587252  0.58458709  0.86056789  1
  P  P200  1  0.05331822  0.91583398  0.10969603  1
  P  P201  1  0.05521727  0.91721114  0.36115309  1
  P  P202  1  0.05337484  0.91627796  0.60968897  1
  P  P203  1  0.05412475  0.91685032  0.86140961  1
  P  P204  1  0.55482964  0.24960976  0.11122512  1
  P  P205  1  0.55417614  0.24926027  0.35906842  1
  P  P206  1  0.55277754  0.24943241  0.61003535  1
  P  P207  1  0.55161643  0.25070759  0.86039951  1
  P  P208  1  0.55407118  0.58329768  0.11095019  1
  P  P209  1  0.55570989  0.58404768  0.36051577  1
  P  P210  1  0.55533812  0.58325462  0.60993580  1
  P  P211  1  0.55344457  0.58338621  0.86047608  1
  P  P212  1  0.55227753  0.91730005  0.10911374  1
  P  P213  1  0.55477474  0.91652807  0.36109981  1
  P  P214  1  0.55225448  0.91735040  0.60954289  1
  P  P215  1  0.55268062  0.91625688  0.86130427  1
  P  P216  1  0.44704961  0.08208925  0.14038344  1
  P  P217  1  0.44669377  0.08351779  0.38906881  1
  P  P218  1  0.44669720  0.08221501  0.64014686  1
  P  P219  1  0.44481143  0.08347098  0.88871193  1
  P  P220  1  0.44836875  0.41803128  0.14018439  1
  P  P221  1  0.44623779  0.41683008  0.39083022  1
  P  P222  1  0.44627507  0.41704213  0.63820216  1
  P  P223  1  0.44766148  0.41743803  0.89011168  1
  P  P224  1  0.44428033  0.75028558  0.13893535  1
  P  P225  1  0.44473017  0.74980665  0.38971491  1
  P  P226  1  0.44499392  0.75064699  0.63839771  1
  P  P227  1  0.44506341  0.74947526  0.89052166  1
  P  P228  1  0.94488220  0.08305755  0.13896142  1
  P  P229  1  0.94807998  0.08358356  0.39002175  1
  P  P230  1  0.94861094  0.08216062  0.63935338  1
  P  P231  1  0.94698226  0.08219813  0.89045340  1
  P  P232  1  0.94743022  0.41728921  0.13962232  1
  P  P233  1  0.94799052  0.41736590  0.39016809  1
  P  P234  1  0.94694785  0.41783893  0.64018316  1
  P  P235  1  0.94629256  0.41702020  0.88979699  1
  P  P236  1  0.94864068  0.74976894  0.13948204  1
  P  P237  1  0.94603043  0.74915243  0.39079205  1
  P  P238  1  0.94663043  0.75003830  0.63845200  1
  P  P239  1  0.94843836  0.75065433  0.88962641  1
  P  P240  1  0.19723390  0.08307533  0.23545375  1
  P  P241  1  0.19466252  0.08267277  0.48587389  1
  P  P242  1  0.19622092  0.08326614  0.73594081  1
  P  P243  1  0.19563880  0.08191687  0.98445662  1
  P  P244  1  0.19476654  0.41698152  0.23477430  1
  P  P245  1  0.19709884  0.41723801  0.48418128  1
  P  P246  1  0.19726510  0.41755625  0.73532437  1
  P  P247  1  0.19519230  0.41752449  0.98670919  1
  P  P248  1  0.19744987  0.75014411  0.23400519  1
  P  P249  1  0.19651835  0.75018906  0.48647437  1
  P  P250  1  0.19445220  0.74932365  0.73585564  1
  P  P251  1  0.19572462  0.75028032  0.98592112  1
  P  P252  1  0.69427565  0.08383692  0.23514779  1
  P  P253  1  0.69432602  0.08150813  0.48559994  1
  P  P254  1  0.69591847  0.08268034  0.73439442  1
  P  P255  1  0.69655838  0.08164404  0.98623048  1
  P  P256  1  0.69595790  0.41698757  0.23448584  1
  P  P257  1  0.69567401  0.41769228  0.48635398  1
  P  P258  1  0.69344205  0.41757916  0.73562776  1
  P  P259  1  0.69397708  0.41784244  0.98559417  1
  P  P260  1  0.69688507  0.74907561  0.23455945  1
  P  P261  1  0.69849400  0.75023961  0.48514962  1
  P  P262  1  0.69636935  0.74952122  0.73506868  1
  P  P263  1  0.69664546  0.75042631  0.98499490  1
  P  P264  1  0.30452426  0.25013582  0.01440564  1
  P  P265  1  0.30344498  0.24893043  0.26490828  1
  P  P266  1  0.30166595  0.25104990  0.51439950  1
  P  P267  1  0.30414795  0.24934384  0.76582014  1
  P  P268  1  0.30423490  0.58426571  0.01447994  1
  P  P269  1  0.30467069  0.58417667  0.26340388  1
  P  P270  1  0.30192809  0.58327830  0.51457666  1
  P  P271  1  0.30281375  0.58340101  0.76598764  1
  P  P272  1  0.30370214  0.91572740  0.01413952  1
  P  P273  1  0.30512821  0.91672152  0.26358618  1
  P  P274  1  0.30240931  0.91607116  0.51564132  1
  P  P275  1  0.30530338  0.91744906  0.76420759  1
  P  P276  1  0.80375312  0.24899670  0.01565442  1
  P  P277  1  0.80279421  0.25036004  0.26427081  1
  P  P278  1  0.80280022  0.24966052  0.51532736  1
  P  P279  1  0.80226162  0.24968460  0.76516460  1
  P  P280  1  0.80225918  0.58341543  0.01520452  1
  P  P281  1  0.80473277  0.58287114  0.26416357  1
  P  P282  1  0.80478548  0.58410074  0.51470907  1
  P  P283  1  0.80301160  0.58316220  0.76407584  1
  P  P284  1  0.80445879  0.91696443  0.01431294  1
  P  P285  1  0.80491574  0.91645793  0.26371392  1
  P  P286  1  0.80280262  0.91595150  0.51554388  1
  P  P287  1  0.80591068  0.91667690  0.76451308  1
  O  O288  1  0.05567011  0.24990465  0.18683420  1
  O  O289  1  0.05929946  0.25029264  0.43787407  1
  O  O290  1  0.05752770  0.25013506  0.68629976  1
  O  O291  1  0.05562688  0.24950454  0.93678081  1
  O  O292  1  0.05586644  0.58388713  0.18635620  1
  O  O293  1  0.05903208  0.58361901  0.43813020  1
  O  O294  1  0.05932651  0.58326029  0.68746233  1
  O  O295  1  0.05987645  0.58377069  0.93734141  1
  O  O296  1  0.05688161  0.91638777  0.18643552  1
  O  O297  1  0.05945370  0.91623819  0.43785405  1
  O  O298  1  0.05657651  0.91634937  0.68644956  1
  O  O299  1  0.05850187  0.91651178  0.93804515  1
  O  O300  1  0.55837513  0.24980967  0.18798014  1
  O  O301  1  0.55670806  0.25000351  0.43590708  1
  O  O302  1  0.55509398  0.24985724  0.68680354  1
  O  O303  1  0.55562414  0.24967812  0.93711496  1
  O  O304  1  0.55881941  0.58403778  0.18761012  1
  O  O305  1  0.56037744  0.58456745  0.43724728  1
  O  O306  1  0.55873150  0.58446754  0.68677705  1
  O  O307  1  0.55800753  0.58466154  0.93720800  1
  O  O308  1  0.55589953  0.91625360  0.18585403  1
  O  O309  1  0.55912736  0.91532880  0.43777406  1
  O  O310  1  0.55568373  0.91597784  0.68627269  1
  O  O311  1  0.55820213  0.91626998  0.93785761  1
  O  O312  1  0.44304550  0.08273211  0.06365898  1
  O  O313  1  0.44166423  0.08328151  0.31245855  1
  O  O314  1  0.44330629  0.08295652  0.56336656  1
  O  O315  1  0.44116823  0.08314254  0.81199134  1
  O  O316  1  0.44460201  0.41780560  0.06349272  1
  O  O317  1  0.44288852  0.41716175  0.31406444  1
  O  O318  1  0.44064530  0.41733630  0.56162046  1
  O  O319  1  0.44455627  0.41766785  0.81334591  1
  O  O320  1  0.44035172  0.75008391  0.06217879  1
  O  O321  1  0.44066454  0.74982666  0.31293809  1
  O  O322  1  0.44043042  0.74955128  0.56166270  1
  O  O323  1  0.44277143  0.74935422  0.81362363  1
  O  O324  1  0.94117856  0.08300223  0.06219707  1
  O  O325  1  0.94345461  0.08342141  0.31334309  1
  O  O326  1  0.94462277  0.08284939  0.56273057  1
  O  O327  1  0.94391069  0.08293662  0.81371842  1
  O  O328  1  0.94365756  0.41708609  0.06295544  1
  O  O329  1  0.94399879  0.41693774  0.31349247  1
  O  O330  1  0.94409607  0.41746815  0.56338658  1
  O  O331  1  0.94278743  0.41728445  0.81305498  1
  O  O332  1  0.94517248  0.74981041  0.06279740  1
  O  O333  1  0.94326995  0.74973039  0.31399617  1
  O  O334  1  0.94189545  0.74992660  0.56180993  1
  O  O335  1  0.94472391  0.74971981  0.81293262  1
  O  O336  1  0.19258860  0.08269080  0.06128850  1
  O  O337  1  0.19213339  0.08328703  0.31211783  1
  O  O338  1  0.19117349  0.08258228  0.56276027  1
  O  O339  1  0.19126857  0.08288352  0.81255662  1
  O  O340  1  0.19045301  0.41668255  0.06343693  1
  O  O341  1  0.19059657  0.41724165  0.31153200  1
  O  O342  1  0.19390308  0.41717171  0.56095421  1
  O  O343  1  0.19419550  0.41698387  0.81209235  1
  O  O344  1  0.19136414  0.75040237  0.06262694  1
  O  O345  1  0.19331038  0.74990792  0.31070659  1
  O  O346  1  0.19194392  0.75017159  0.56316940  1
  O  O347  1  0.19099017  0.75069802  0.81266140  1
  O  O348  1  0.69152200  0.08222870  0.06285970  1
  O  O349  1  0.69040858  0.08294872  0.31196601  1
  O  O350  1  0.69020974  0.08237370  0.56234846  1
  O  O351  1  0.69280584  0.08260578  0.81123652  1
  O  O352  1  0.69021044  0.41709970  0.06239663  1
  O  O353  1  0.69364567  0.41687951  0.31131056  1
  O  O354  1  0.69150660  0.41664779  0.56310414  1
  O  O355  1  0.68941753  0.41662535  0.81247319  1
  O  O356  1  0.69355267  0.75045851  0.06171682  1
  O  O357  1  0.69405071  0.74999064  0.31128710  1
  O  O358  1  0.69472722  0.75038132  0.56182313  1
  O  O359  1  0.69263404  0.75020703  0.81176973  1
  O  O360  1  0.30684639  0.24937576  0.18808205  1
  O  O361  1  0.30557752  0.25031032  0.43776464  1
  O  O362  1  0.30655945  0.24996837  0.68895319  1
  O  O363  1  0.30919478  0.25075231  0.93767089  1
  O  O364  1  0.30891065  0.58306920  0.18667254  1
  O  O365  1  0.30560038  0.58345752  0.43790221  1
  O  O366  1  0.30690323  0.58331052  0.68929795  1
  O  O367  1  0.30890525  0.58313233  0.93782192  1
  O  O368  1  0.30871083  0.91718946  0.18681933  1
  O  O369  1  0.30589442  0.91676289  0.43887419  1
  O  O370  1  0.30915050  0.91692397  0.68748187  1
  O  O371  1  0.30825569  0.91654371  0.93741093  1
  O  O372  1  0.80840199  0.25049439  0.18763403  1
  O  O373  1  0.80613771  0.24974435  0.43849589  1
  O  O374  1  0.80596996  0.24945196  0.68840513  1
  O  O375  1  0.80658324  0.24982030  0.93882938  1
  O  O376  1  0.81002440  0.58304645  0.18748429  1
  O  O377  1  0.80931993  0.58300765  0.43793753  1
  O  O378  1  0.80868713  0.58350906  0.68747535  1
  O  O379  1  0.80647077  0.58340064  0.93852148  1
  O  O380  1  0.80984483  0.91626388  0.18699316  1
  O  O381  1  0.80634220  0.91693935  0.43877965  1
  O  O382  1  0.81066177  0.91668184  0.68777819  1
  O  O383  1  0.80930297  0.91632566  0.93760291  1
  O  O384  1  0.23441083  0.24916277  0.03823458  1
  O  O385  1  0.23373080  0.24990062  0.28969615  1
  O  O386  1  0.23157815  0.25021408  0.53895029  1
  O  O387  1  0.23461795  0.25028497  0.79145157  1
  O  O388  1  0.23372756  0.58422191  0.03792654  1
  O  O389  1  0.23459518  0.58426686  0.28756733  1
  O  O390  1  0.23188750  0.58320479  0.53934381  1
  O  O391  1  0.23269345  0.58381693  0.79011804  1
  O  O392  1  0.23333068  0.91608305  0.03779815  1
  O  O393  1  0.23528693  0.91628736  0.28840373  1
  O  O394  1  0.23241645  0.91659205  0.54039572  1
  O  O395  1  0.23517277  0.91619170  0.78826435  1
  O  O396  1  0.73390603  0.24928464  0.04038186  1
  O  O397  1  0.73235802  0.25044584  0.28739749  1
  O  O398  1  0.73302918  0.24967655  0.54010502  1
  O  O399  1  0.73257772  0.24946301  0.79023958  1
  O  O400  1  0.73198314  0.58368105  0.03904050  1
  O  O401  1  0.73421574  0.58306456  0.28727273  1
  O  O402  1  0.73434448  0.58387780  0.53821355  1
  O  O403  1  0.73251743  0.58317669  0.78717120  1
  O  O404  1  0.73411097  0.91646916  0.03811706  1
  O  O405  1  0.73470341  0.91645689  0.28708502  1
  O  O406  1  0.73277961  0.91593723  0.54024914  1
  O  O407  1  0.73562514  0.91665904  0.78797422  1
  O  O408  1  0.26747991  0.08261268  0.21163923  1
  O  O409  1  0.26469843  0.08294367  0.46139770  1
  O  O410  1  0.26656656  0.08339611  0.71224111  1
  O  O411  1  0.26544056  0.08248609  0.95980095  1
  O  O412  1  0.26483938  0.41665365  0.21076875  1
  O  O413  1  0.26705394  0.41749879  0.45907524  1
  O  O414  1  0.26683597  0.41688558  0.70998030  1
  O  O415  1  0.26533113  0.41778798  0.96289855  1
  O  O416  1  0.26754938  0.75025662  0.20997146  1
  O  O417  1  0.26672094  0.75006830  0.46219206  1
  O  O418  1  0.26452195  0.74973323  0.71168652  1
  O  O419  1  0.26607326  0.74996033  0.96201451  1
  O  O420  1  0.76438627  0.08288676  0.21123818  1
  O  O421  1  0.76433393  0.08261578  0.46106900  1
  O  O422  1  0.76563764  0.08260568  0.70941784  1
  O  O423  1  0.76691980  0.08228581  0.96256586  1
  O  O424  1  0.76549125  0.41700861  0.20877788  1
  O  O425  1  0.76554968  0.41746887  0.46170087  1
  O  O426  1  0.76347868  0.41726709  0.71140579  1
  O  O427  1  0.76399448  0.41705717  0.96129331  1
  O  O428  1  0.76647996  0.74928539  0.20913982  1
  O  O429  1  0.76842024  0.75004155  0.46021883  1
  O  O430  1  0.76621815  0.74971819  0.71050929  1
  O  O431  1  0.76621164  0.74978366  0.95944511  1
  O  O432  1  0.01484343  0.08311727  0.16364964  1
  O  O433  1  0.01829417  0.08356328  0.41373990  1
  O  O434  1  0.01870849  0.08211549  0.66390741  1
  O  O435  1  0.01692043  0.08289038  0.91540537  1
  O  O436  1  0.01743983  0.41748901  0.16448708  1
  O  O437  1  0.01804193  0.41711981  0.41468283  1
  O  O438  1  0.01663503  0.41726844  0.66535962  1
  O  O439  1  0.01610925  0.41670365  0.91442921  1
  O  O440  1  0.01853803  0.74961940  0.16476831  1
  O  O441  1  0.01578723  0.74955215  0.41573396  1
  O  O442  1  0.01694711  0.75026593  0.66233882  1
  O  O443  1  0.01847936  0.75074704  0.91409925  1
  O  O444  1  0.51724969  0.08242390  0.16438292  1
  O  O445  1  0.51707096  0.08310402  0.41241428  1
  O  O446  1  0.51661543  0.08283624  0.66512380  1
  O  O447  1  0.51467274  0.08346514  0.91357530  1
  O  O448  1  0.51840068  0.41741589  0.16472215  1
  O  O449  1  0.51612966  0.41651247  0.41518204  1
  O  O450  1  0.51671916  0.41702139  0.66140524  1
  O  O451  1  0.51754048  0.41743893  0.91524525  1
  O  O452  1  0.51430784  0.75028177  0.16334017  1
  O  O453  1  0.51480951  0.74991526  0.41365728  1
  O  O454  1  0.51502292  0.75050321  0.66248508  1
  O  O455  1  0.51461224  0.74997638  0.91610966  1
  O  O456  1  0.48495730  0.24995116  0.08645324  1
  O  O457  1  0.48458019  0.25005517  0.33368562  1
  O  O458  1  0.48331030  0.24908035  0.58406090  1
  O  O459  1  0.48166957  0.25067518  0.83566242  1
  O  O460  1  0.48357292  0.58392249  0.08746233  1
  O  O461  1  0.48548817  0.58357057  0.33706033  1
  O  O462  1  0.48531359  0.58355494  0.58555475  1
  O  O463  1  0.48309979  0.58369853  0.83655946  1
  O  O464  1  0.48211020  0.91707648  0.08487224  1
  O  O465  1  0.48470343  0.91661834  0.33714265  1
  O  O466  1  0.48227536  0.91697915  0.58463758  1
  O  O467  1  0.48215549  0.91602120  0.83824462  1
  O  O468  1  0.98148064  0.25031709  0.08587883  1
  O  O469  1  0.98519760  0.25022710  0.33660571  1
  O  O470  1  0.98496553  0.24997981  0.58424932  1
  O  O471  1  0.98348229  0.24872774  0.83426159  1
  O  O472  1  0.98294676  0.58365085  0.08437201  1
  O  O473  1  0.98349859  0.58338003  0.33796881  1
  O  O474  1  0.98432036  0.58382672  0.58720242  1
  O  O475  1  0.98582475  0.58417386  0.83633085  1
  O  O476  1  0.98318819  0.91644745  0.08527784  1
  O  O477  1  0.98520348  0.91656674  0.33697096  1
  O  O478  1  0.98338557  0.91648401  0.58476892  1
  O  O479  1  0.98398689  0.91651123  0.83707344  1
  O  O480  1  0.08530216  0.31579734  0.07756803  1
  O  O481  1  0.08865839  0.31543922  0.32842634  1
  O  O482  1  0.08928038  0.31408104  0.57683937  1
  O  O483  1  0.08724594  0.31365481  0.82756333  1
  O  O484  1  0.08730454  0.64856577  0.07709896  1
  O  O485  1  0.08720651  0.64785162  0.32780556  1
  O  O486  1  0.08789553  0.64948348  0.57767290  1
  O  O487  1  0.08935365  0.64986756  0.82801047  1
  O  O488  1  0.08752973  0.98060830  0.07678052  1
  O  O489  1  0.08846937  0.98252211  0.32825862  1
  O  O490  1  0.08785107  0.98102453  0.57725885  1
  O  O491  1  0.08730381  0.98220357  0.82835455  1
  O  O492  1  0.58868317  0.31466967  0.07861028  1
  O  O493  1  0.58898020  0.31407070  0.32676189  1
  O  O494  1  0.58696893  0.31448584  0.57762295  1
  O  O495  1  0.58539891  0.31588845  0.82815220  1
  O  O496  1  0.58743893  0.64813292  0.07701594  1
  O  O497  1  0.58893587  0.64893027  0.32680411  1
  O  O498  1  0.58927419  0.64807224  0.57655332  1
  O  O499  1  0.58709490  0.64811865  0.82668465  1
  O  O500  1  0.58624638  0.98234951  0.07663933  1
  O  O501  1  0.58828344  0.98175085  0.32840403  1
  O  O502  1  0.58620675  0.98262357  0.57762811  1
  O  O503  1  0.58566666  0.98129608  0.82770012  1
  O  O504  1  0.41336609  0.01690781  0.17294854  1
  O  O505  1  0.41323965  0.01876165  0.42273374  1
  O  O506  1  0.41278110  0.01703007  0.67242139  1
  O  O507  1  0.41122445  0.01827813  0.92174261  1
  O  O508  1  0.41437432  0.35296639  0.17275970  1
  O  O509  1  0.41187898  0.35193566  0.42324229  1
  O  O510  1  0.41326510  0.35188685  0.67160542  1
  O  O511  1  0.41362576  0.35243597  0.92264275  1
  O  O512  1  0.41063556  0.68529050  0.17210177  1
  O  O513  1  0.41105709  0.68486023  0.42292743  1
  O  O514  1  0.41150478  0.68571757  0.67195123  1
  O  O515  1  0.41103365  0.68428329  0.92277864  1
  O  O516  1  0.91153705  0.01768915  0.17161358  1
  O  O517  1  0.91458407  0.01850064  0.42308782  1
  O  O518  1  0.91481143  0.01709917  0.67187177  1
  O  O519  1  0.91329408  0.01684035  0.92285955  1
  O  O520  1  0.91369494  0.35224635  0.17265147  1
  O  O521  1  0.91411692  0.35237623  0.42303856  1
  O  O522  1  0.91248736  0.35277472  0.67222027  1
  O  O523  1  0.91211668  0.35198971  0.92212256  1
  O  O524  1  0.91452004  0.68465177  0.17181106  1
  O  O525  1  0.91193492  0.68406637  0.42300657  1
  O  O526  1  0.91356843  0.68482543  0.67200335  1
  O  O527  1  0.91472796  0.68570799  0.92272472  1
  O  O528  1  0.16358151  0.01816988  0.20230509  1
  O  O529  1  0.16126592  0.01743656  0.45298809  1
  O  O530  1  0.16295488  0.01820313  0.70234342  1
  O  O531  1  0.16191163  0.01656781  0.95227504  1
  O  O532  1  0.16079542  0.35214416  0.20178118  1
  O  O533  1  0.16311972  0.35214497  0.45165893  1
  O  O534  1  0.16274921  0.35273988  0.70290847  1
  O  O535  1  0.16209301  0.35243048  0.95311912  1
  O  O536  1  0.16360065  0.68521554  0.20093644  1
  O  O537  1  0.16314253  0.68515062  0.45313284  1
  O  O538  1  0.16100814  0.68405286  0.70339880  1
  O  O539  1  0.16213892  0.68527153  0.95289995  1
  O  O540  1  0.66020994  0.01919127  0.20166500  1
  O  O541  1  0.66125643  0.01593217  0.45299055  1
  O  O542  1  0.66158363  0.01774145  0.70197444  1
  O  O543  1  0.66350794  0.01647925  0.95288382  1
  O  O544  1  0.66144747  0.35205672  0.20220379  1
  O  O545  1  0.66190360  0.35276572  0.45311825  1
  O  O546  1  0.65958382  0.35272208  0.70227981  1
  O  O547  1  0.65985676  0.35304644  0.95239450  1
  O  O548  1  0.66273435  0.68388451  0.20261777  1
  O  O549  1  0.66456002  0.68516634  0.45251137  1
  O  O550  1  0.66245270  0.68449279  0.70257833  1
  O  O551  1  0.66197613  0.68540925  0.95296810  1
  O  O552  1  0.33750594  0.31530660  0.04789397  1
  O  O553  1  0.33777827  0.31400021  0.29711830  1
  O  O554  1  0.33502428  0.31632223  0.54699895  1
  O  O555  1  0.33907834  0.31406648  0.79824801  1
  O  O556  1  0.33751164  0.64951393  0.04730737  1
  O  O557  1  0.33811813  0.64942218  0.29604572  1
  O  O558  1  0.33563774  0.64825740  0.54761020  1
  O  O559  1  0.33673744  0.64837333  0.79881002  1
  O  O560  1  0.33732236  0.98048576  0.04784106  1
  O  O561  1  0.33857260  0.98177020  0.29689868  1
  O  O562  1  0.33670943  0.98096657  0.54833169  1
  O  O563  1  0.33822479  0.98280609  0.79721027  1
  O  O564  1  0.83785290  0.31403598  0.04842981  1
  O  O565  1  0.83597050  0.31539416  0.29777878  1
  O  O566  1  0.83679524  0.31471734  0.54773436  1
  O  O567  1  0.83602567  0.31489226  0.79759210  1
  O  O568  1  0.83627131  0.64830873  0.04815516  1
  O  O569  1  0.83819909  0.64775694  0.29763098  1
  O  O570  1  0.83797223  0.64941913  0.54764109  1
  O  O571  1  0.83613988  0.64817895  0.79780650  1
  O  O572  1  0.83779218  0.98200677  0.04753831  1
  O  O573  1  0.83805515  0.98145306  0.29732919  1
  O  O574  1  0.83677526  0.98087490  0.54858135  1
  O  O575  1  0.83940014  0.98164067  0.79779315  1
  O  O576  1  0.41315454  0.14697134  0.17356643  1
  O  O577  1  0.41378416  0.14868542  0.42253635  1
  O  O578  1  0.41209596  0.14697047  0.67280057  1
  O  O579  1  0.41123156  0.14863475  0.92146205  1
  O  O580  1  0.41472307  0.48307428  0.17288098  1
  O  O581  1  0.41244151  0.48185348  0.42372751  1
  O  O582  1  0.41339650  0.48203796  0.67213742  1
  O  O583  1  0.41383067  0.48261808  0.92269527  1
  O  O584  1  0.41074297  0.81554923  0.17172055  1
  O  O585  1  0.41081794  0.81464277  0.42284652  1
  O  O586  1  0.41149276  0.81588135  0.67097961  1
  O  O587  1  0.41021517  0.81433393  0.92256952  1
  O  O588  1  0.91123090  0.14826142  0.17177521  1
  O  O589  1  0.91444641  0.14853390  0.42297878  1
  O  O590  1  0.91497362  0.14723806  0.67246156  1
  O  O591  1  0.91221481  0.14673633  0.92322373  1
  O  O592  1  0.91375194  0.48257914  0.17205645  1
  O  O593  1  0.91426726  0.48246937  0.42280828  1
  O  O594  1  0.91310811  0.48318442  0.67233189  1
  O  O595  1  0.91265066  0.48213164  0.92262422  1
  O  O596  1  0.91475940  0.81492463  0.17202343  1
  O  O597  1  0.91163527  0.81404718  0.42340603  1
  O  O598  1  0.91333819  0.81518964  0.67149150  1
  O  O599  1  0.91449705  0.81566286  0.92208403  1
  O  O600  1  0.08548417  0.18570036  0.07726513  1
  O  O601  1  0.08862642  0.18493721  0.32807395  1
  O  O602  1  0.08858487  0.18392370  0.57763041  1
  O  O603  1  0.08728452  0.18339328  0.82835317  1
  O  O604  1  0.08710328  0.51864145  0.07717006  1
  O  O605  1  0.08695202  0.51778845  0.32821022  1
  O  O606  1  0.08832612  0.51948260  0.57706421  1
  O  O607  1  0.08977706  0.51975492  0.82719829  1
  O  O608  1  0.08704272  0.85067910  0.07710386  1
  O  O609  1  0.08892165  0.85222760  0.32795798  1
  O  O610  1  0.08728079  0.85113702  0.57700226  1
  O  O611  1  0.08787484  0.85208371  0.82797340  1
  O  O612  1  0.58803042  0.18416903  0.07830827  1
  O  O613  1  0.58822306  0.18401067  0.32718534  1
  O  O614  1  0.58717039  0.18413393  0.57844973  1
  O  O615  1  0.58538773  0.18568979  0.82745361  1
  O  O616  1  0.58718274  0.51817740  0.07774578  1
  O  O617  1  0.58943528  0.51902447  0.32755401  1
  O  O618  1  0.58911661  0.51804924  0.57765377  1
  O  O619  1  0.58683328  0.51811357  0.82784016  1
  O  O620  1  0.58624006  0.85242894  0.07599748  1
  O  O621  1  0.58800240  0.85162636  0.32727930  1
  O  O622  1  0.58658621  0.85273782  0.57610425  1
  O  O623  1  0.58570063  0.85127138  0.82753998  1
  O  O624  1  0.33845227  0.18511823  0.04703990  1
  O  O625  1  0.33692466  0.18361556  0.29741315  1
  O  O626  1  0.33563559  0.18610501  0.54738749  1
  O  O627  1  0.33800460  0.18392143  0.79762633  1
  O  O628  1  0.33774657  0.51962984  0.04852357  1
  O  O629  1  0.33797083  0.51919144  0.29690834  1
  O  O630  1  0.33575652  0.51815428  0.54717766  1
  O  O631  1  0.33657912  0.51845123  0.79904543  1
  O  O632  1  0.33710276  0.85063595  0.04706024  1
  O  O633  1  0.33880708  0.85140244  0.29607659  1
  O  O634  1  0.33632045  0.85102142  0.54808195  1
  O  O635  1  0.33940907  0.85272590  0.79748442  1
  O  O636  1  0.83772320  0.18382006  0.04776355  1
  O  O637  1  0.83578337  0.18528561  0.29787898  1
  O  O638  1  0.83671182  0.18447773  0.54768617  1
  O  O639  1  0.83645077  0.18460092  0.79747448  1
  O  O640  1  0.83586458  0.51845895  0.04834637  1
  O  O641  1  0.83771149  0.51779795  0.29787028  1
  O  O642  1  0.83825170  0.51941514  0.54858020  1
  O  O643  1  0.83598039  0.51815808  0.79766406  1
  O  O644  1  0.83817293  0.85201966  0.04774098  1
  O  O645  1  0.83829197  0.85138761  0.29683707  1
  O  O646  1  0.83704774  0.85091029  0.54780184  1
  O  O647  1  0.83944600  0.85170675  0.79791438  1
  O  O648  1  0.16401112  0.14808911  0.20191472  1
  O  O649  1  0.16085124  0.14772173  0.45304552  1
  O  O650  1  0.16271934  0.14816091  0.70267471  1
  O  O651  1  0.16116975  0.14667971  0.95178835  1
  O  O652  1  0.16123523  0.48211184  0.20175320  1
  O  O653  1  0.16286066  0.48223264  0.45168725  1
  O  O654  1  0.16346762  0.48284333  0.70306463  1
  O  O655  1  0.16177263  0.48277369  0.95405736  1
  O  O656  1  0.16353849  0.81500400  0.20109072  1
  O  O657  1  0.16339332  0.81541433  0.45329178  1
  O  O658  1  0.16060091  0.81404043  0.70231715  1
  O  O659  1  0.16255697  0.81537109  0.95233868  1
  O  O660  1  0.66125802  0.14927459  0.20241437  1
  O  O661  1  0.65991275  0.14612388  0.45229232  1
  O  O662  1  0.66151494  0.14759374  0.70206945  1
  O  O663  1  0.66305821  0.14663281  0.95271293  1
  O  O664  1  0.66159611  0.48216191  0.20241675  1
  O  O665  1  0.66222101  0.48300065  0.45382741  1
  O  O666  1  0.65992920  0.48280742  0.70301164  1
  O  O667  1  0.66062164  0.48324061  0.95303442  1
  O  O668  1  0.66259347  0.81391229  0.20176418  1
  O  O669  1  0.66455846  0.81531081  0.45251687  1
  O  O670  1  0.66256483  0.81459786  0.70217003  1
  O  O671  1  0.66284336  0.81576377  0.95260682  1
