# generated using pymatgen
data_Na2MnFe(PO4)2
_symmetry_space_group_name_H-M   'P 1'
_cell_length_a   21.08771787
_cell_length_b   18.94103162
_cell_length_c   20.04704229
_cell_angle_alpha   89.99988134
_cell_angle_beta   90.00259920
_cell_angle_gamma   89.99995682
_symmetry_Int_Tables_number   1
_chemical_formula_structural   Na2MnFe(PO4)2
_chemical_formula_sum   'Na96 Mn48 Fe48 P96 O384'
_cell_volume   8007.25239058
_cell_formula_units_Z   48
loop_
 _symmetry_equiv_pos_site_id
 _symmetry_equiv_pos_as_xyz
  1  'x, y, z'
loop_
 _atom_site_type_symbol
 _atom_site_label
 _atom_site_symmetry_multiplicity
 _atom_site_fract_x
 _atom_site_fract_y
 _atom_site_fract_z
 _atom_site_occupancy
  Na  Na0  1  0.00024110  0.00100516  -0.00091621  1
  Na  Na1  1  -0.00090974  -0.00033785  0.25070418  1
  Na  Na2  1  -0.00018506  0.00059630  0.49928259  1
  Na  Na3  1  0.00017648  0.00090843  0.74994487  1
  Na  Na4  1  -0.00037349  0.33307492  0.00004883  1
  Na  Na5  1  0.00072258  0.33355715  0.25095257  1
  Na  Na6  1  0.00306860  0.33401349  0.50001617  1
  Na  Na7  1  0.00040504  0.33319795  0.74939549  1
  Na  Na8  1  0.00281230  0.66774927  -0.00076551  1
  Na  Na9  1  0.00224003  0.66690435  0.25070165  1
  Na  Na10  1  0.00183242  0.66717454  0.50045296  1
  Na  Na11  1  0.00087721  0.66681887  0.74976126  1
  Na  Na12  1  0.50278625  0.00098211  -0.00103366  1
  Na  Na13  1  0.49957671  -0.00016983  0.25020702  1
  Na  Na14  1  0.50089994  0.00118338  0.50161134  1
  Na  Na15  1  0.50115231  0.00066461  0.75000725  1
  Na  Na16  1  0.49989490  0.33383576  -0.00088509  1
  Na  Na17  1  0.49927452  0.33330328  0.25098605  1
  Na  Na18  1  0.49924143  0.33336518  0.50046987  1
  Na  Na19  1  0.49956487  0.33312290  0.74906631  1
  Na  Na20  1  0.49770591  0.66588580  0.00083679  1
  Na  Na21  1  0.49959858  0.66694975  0.24973585  1
  Na  Na22  1  0.49910369  0.66625545  0.50057445  1
  Na  Na23  1  0.49941221  0.66664269  0.74899761  1
  Na  Na24  1  0.24860152  -0.00021272  0.12422782  1
  Na  Na25  1  0.25121323  0.00103931  0.37530921  1
  Na  Na26  1  0.25064600  0.00113395  0.62553970  1
  Na  Na27  1  0.24903275  0.00070160  0.87535380  1
  Na  Na28  1  0.24939649  0.33369573  0.12499141  1
  Na  Na29  1  0.24867362  0.33294239  0.37580628  1
  Na  Na30  1  0.25048822  0.33340325  0.62469051  1
  Na  Na31  1  0.25011659  0.33358236  0.87520909  1
  Na  Na32  1  0.25037013  0.66706426  0.12504713  1
  Na  Na33  1  0.25081772  0.66723275  0.37437809  1
  Na  Na34  1  0.24812691  0.66588324  0.62460867  1
  Na  Na35  1  0.25007380  0.66696705  0.87517352  1
  Na  Na36  1  0.75129542  0.00077146  0.12596411  1
  Na  Na37  1  0.74909429  -0.00013066  0.37487483  1
  Na  Na38  1  0.74840861  0.00022140  0.62456589  1
  Na  Na39  1  0.74816156  -0.00071773  0.87453647  1
  Na  Na40  1  0.75079889  0.33345945  0.12529374  1
  Na  Na41  1  0.75018760  0.33376328  0.37465911  1
  Na  Na42  1  0.74917784  0.33256667  0.62417989  1
  Na  Na43  1  0.75134906  0.33337644  0.87501976  1
  Na  Na44  1  0.74773036  0.66588866  0.12588766  1
  Na  Na45  1  0.74901152  0.66645720  0.37396309  1
  Na  Na46  1  0.75050283  0.66684496  0.62475794  1
  Na  Na47  1  0.74990295  0.66695906  0.87602422  1
  Na  Na48  1  0.00094343  0.16639805  0.00017472  1
  Na  Na49  1  0.00050053  0.16716935  0.25073214  1
  Na  Na50  1  0.00168697  0.16683544  0.50003318  1
  Na  Na51  1  0.00093008  0.16650867  0.74908887  1
  Na  Na52  1  0.00199124  0.49911158  -0.00103982  1
  Na  Na53  1  0.00179905  0.49992216  0.25094072  1
  Na  Na54  1  0.00244369  0.49901657  0.49925480  1
  Na  Na55  1  0.00058916  0.49990099  0.75082459  1
  Na  Na56  1  0.00000451  0.83291694  -0.00077042  1
  Na  Na57  1  0.00017697  0.83266225  0.25056091  1
  Na  Na58  1  0.00066996  0.83233726  0.50055368  1
  Na  Na59  1  0.00066456  0.83220967  0.74933865  1
  Na  Na60  1  0.50149138  0.16638929  -0.00085372  1
  Na  Na61  1  0.50105928  0.16634905  0.25092363  1
  Na  Na62  1  0.50040862  0.16676942  0.50097705  1
  Na  Na63  1  0.50151981  0.16618338  0.74935972  1
  Na  Na64  1  0.49818770  0.50052767  0.00001443  1
  Na  Na65  1  0.49708801  0.50072639  0.25054584  1
  Na  Na66  1  0.49906015  0.49966871  0.50057763  1
  Na  Na67  1  0.49832981  0.50001068  0.74873748  1
  Na  Na68  1  0.50040109  0.83282360  -0.00031423  1
  Na  Na69  1  0.50069713  0.83221090  0.24975959  1
  Na  Na70  1  0.49907083  0.83365129  0.50080056  1
  Na  Na71  1  0.50105706  0.83284079  0.75013706  1
  Na  Na72  1  0.24717242  0.16719967  0.12399468  1
  Na  Na73  1  0.24947197  0.16672312  0.37537733  1
  Na  Na74  1  0.24911996  0.16703614  0.62546021  1
  Na  Na75  1  0.24822417  0.16687094  0.87476292  1
  Na  Na76  1  0.25041146  0.50023888  0.12520877  1
  Na  Na77  1  0.25124214  0.49940968  0.37463878  1
  Na  Na78  1  0.25046123  0.49980018  0.62398906  1
  Na  Na79  1  0.25074118  0.49990865  0.87593895  1
  Na  Na80  1  0.25110040  0.83189913  0.12505186  1
  Na  Na81  1  0.24982650  0.83286258  0.37535267  1
  Na  Na82  1  0.24990876  0.83261967  0.62529129  1
  Na  Na83  1  0.24956557  0.83286917  0.87506306  1
  Na  Na84  1  0.75152777  0.16650969  0.12524152  1
  Na  Na85  1  0.75049564  0.16674675  0.37563265  1
  Na  Na86  1  0.74841042  0.16730094  0.62431216  1
  Na  Na87  1  0.74973424  0.16688095  0.87471467  1
  Na  Na88  1  0.75047907  0.49932571  0.12560062  1
  Na  Na89  1  0.74817079  0.50051525  0.37505683  1
  Na  Na90  1  0.74995682  0.49980178  0.62423204  1
  Na  Na91  1  0.75033736  0.50007452  0.87524378  1
  Na  Na92  1  0.74804363  0.83340093  0.12615896  1
  Na  Na93  1  0.74972927  0.83270890  0.37297541  1
  Na  Na94  1  0.75060913  0.83257691  0.62482787  1
  Na  Na95  1  0.74901644  0.83352672  0.87576053  1
  Mn  Mn96  1  0.39140871  0.58299528  0.62726640  1
  Mn  Mn97  1  0.39203227  0.24993056  0.37757499  1
  Mn  Mn98  1  0.85796536  0.41711126  0.50190928  1
  Mn  Mn99  1  0.89296492  0.25025424  0.62661740  1
  Mn  Mn100  1  0.14190066  0.91737159  0.74735196  1
  Mn  Mn101  1  0.60739534  0.74949910  0.87272826  1
  Mn  Mn102  1  0.64288250  0.25061196  0.24818579  1
  Mn  Mn103  1  0.60777653  0.41681780  0.87203820  1
  Mn  Mn104  1  0.60715586  0.41696567  0.12351959  1
  Mn  Mn105  1  0.64182461  0.58317406  0.49708029  1
  Mn  Mn106  1  0.85759880  0.74909552  0.25170759  1
  Mn  Mn107  1  0.39225034  0.91753558  0.62782488  1
  Mn  Mn108  1  0.89212379  0.58310126  0.87716269  1
  Mn  Mn109  1  0.60878067  0.08304716  0.12295444  1
  Mn  Mn110  1  0.60744144  0.41612727  0.62316257  1
  Mn  Mn111  1  0.89305795  0.25011557  0.12771710  1
  Mn  Mn112  1  0.10785308  0.41620034  0.87203476  1
  Mn  Mn113  1  0.35763561  0.08292938  0.00192172  1
  Mn  Mn114  1  0.39234925  0.91657641  0.37755387  1
  Mn  Mn115  1  0.89227967  0.91693622  0.62722982  1
  Mn  Mn116  1  0.14204382  0.91711844  0.24709478  1
  Mn  Mn117  1  0.14122568  0.91592813  0.99773944  1
  Mn  Mn118  1  0.89283308  0.58302168  0.37698756  1
  Mn  Mn119  1  0.89160178  0.91715177  0.87692790  1
  Mn  Mn120  1  0.14239785  0.58237568  0.74765511  1
  Mn  Mn121  1  0.39250512  0.24984629  0.87657575  1
  Mn  Mn122  1  0.89226807  0.91624301  0.37767464  1
  Mn  Mn123  1  0.14274774  0.91671255  0.49783656  1
  Mn  Mn124  1  0.39293244  0.91642617  0.87731563  1
  Mn  Mn125  1  0.85774953  0.74996655  0.00289867  1
  Mn  Mn126  1  0.89323403  0.58377588  0.12731098  1
  Mn  Mn127  1  0.89294391  0.58287017  0.62694211  1
  Mn  Mn128  1  0.39167904  0.24984386  0.12752343  1
  Mn  Mn129  1  0.35717232  0.75002757  0.75242780  1
  Mn  Mn130  1  0.64248583  0.24976631  0.99770490  1
  Mn  Mn131  1  0.35752892  0.41684350  0.00254358  1
  Mn  Mn132  1  0.64215710  0.91666654  0.24756797  1
  Mn  Mn133  1  0.85703774  0.08314871  0.50225924  1
  Mn  Mn134  1  0.14129346  0.25043044  0.99723361  1
  Mn  Mn135  1  0.14335687  0.58313598  0.24750351  1
  Mn  Mn136  1  0.10828713  0.08306558  0.37272314  1
  Mn  Mn137  1  0.85793943  0.08276475  0.00171784  1
  Mn  Mn138  1  0.64096082  0.58319931  0.99768549  1
  Mn  Mn139  1  0.39232450  0.91688816  0.12687087  1
  Mn  Mn140  1  0.85838292  0.41726001  0.00265403  1
  Mn  Mn141  1  0.35748202  0.08374633  0.25182210  1
  Mn  Mn142  1  0.60849038  0.75014315  0.62265982  1
  Mn  Mn143  1  0.64194636  0.91631730  0.49721445  1
  Fe  Fe144  1  0.85824585  0.08405715  0.25216143  1
  Fe  Fe145  1  0.35756639  0.75022039  0.25236797  1
  Fe  Fe146  1  0.10768243  0.08321835  0.62313201  1
  Fe  Fe147  1  0.10722199  0.74992836  0.62266755  1
  Fe  Fe148  1  0.85805264  0.41675843  0.25223186  1
  Fe  Fe149  1  0.60633297  0.41697387  0.37291202  1
  Fe  Fe150  1  0.39220261  0.58341379  0.87653647  1
  Fe  Fe151  1  0.10691493  0.08324875  0.87253531  1
  Fe  Fe152  1  0.60814020  0.08372560  0.87210866  1
  Fe  Fe153  1  0.35679393  0.41594506  0.75151361  1
  Fe  Fe154  1  0.60682412  0.74954157  0.37368545  1
  Fe  Fe155  1  0.14375313  0.25015698  0.49858582  1
  Fe  Fe156  1  0.60706748  0.08351439  0.37351839  1
  Fe  Fe157  1  0.64274944  0.91660527  0.99861076  1
  Fe  Fe158  1  0.35676940  0.75026798  0.00170448  1
  Fe  Fe159  1  0.35667965  0.41626100  0.50144813  1
  Fe  Fe160  1  0.64326912  0.25041628  0.74823412  1
  Fe  Fe161  1  0.39237504  0.24940524  0.62706051  1
  Fe  Fe162  1  0.10649652  0.08281860  0.12358444  1
  Fe  Fe163  1  0.39199733  0.58339363  0.12723856  1
  Fe  Fe164  1  0.35671408  0.41626190  0.25216234  1
  Fe  Fe165  1  0.64159633  0.58254786  0.24864010  1
  Fe  Fe166  1  0.60712689  0.08394357  0.62361501  1
  Fe  Fe167  1  0.10852999  0.41664792  0.62320909  1
  Fe  Fe168  1  0.10796106  0.74994930  0.37343432  1
  Fe  Fe169  1  0.89258593  0.91628416  0.12610725  1
  Fe  Fe170  1  0.64199966  0.25048348  0.49773674  1
  Fe  Fe171  1  0.14238752  0.25007186  0.24856873  1
  Fe  Fe172  1  0.35691042  0.08390030  0.75224316  1
  Fe  Fe173  1  0.10812664  0.75021922  0.12332170  1
  Fe  Fe174  1  0.35792682  0.08372757  0.50232546  1
  Fe  Fe175  1  0.60597038  0.74962881  0.12327325  1
  Fe  Fe176  1  0.39286351  0.58349396  0.37665169  1
  Fe  Fe177  1  0.14343355  0.58293127  0.49814151  1
  Fe  Fe178  1  0.10736283  0.75059387  0.87288823  1
  Fe  Fe179  1  0.64257283  0.58307993  0.74890223  1
  Fe  Fe180  1  0.89262612  0.24966239  0.87531916  1
  Fe  Fe181  1  0.14346254  0.58368421  0.99880794  1
  Fe  Fe182  1  0.85773524  0.41659684  0.75074164  1
  Fe  Fe183  1  0.85771498  0.74968830  0.50093494  1
  Fe  Fe184  1  0.14262910  0.25025977  0.74813809  1
  Fe  Fe185  1  0.89375166  0.25057610  0.37682744  1
  Fe  Fe186  1  0.10773310  0.41712603  0.12370410  1
  Fe  Fe187  1  0.35698992  0.75013976  0.50148494  1
  Fe  Fe188  1  0.85743709  0.74967533  0.75141795  1
  Fe  Fe189  1  0.85683182  0.08373285  0.75118436  1
  Fe  Fe190  1  0.64312308  0.91648507  0.74851466  1
  Fe  Fe191  1  0.10837924  0.41687999  0.37288103  1
  P  P192  1  0.05484066  0.25034246  0.11165082  1
  P  P193  1  0.05531045  0.25078145  0.36107955  1
  P  P194  1  0.05609489  0.25008305  0.61055690  1
  P  P195  1  0.05289995  0.24936478  0.85882770  1
  P  P196  1  0.05483595  0.58330462  0.10949775  1
  P  P197  1  0.05592292  0.58334669  0.36152498  1
  P  P198  1  0.05482845  0.58274475  0.60937847  1
  P  P199  1  0.05488248  0.58419432  0.86111524  1
  P  P200  1  0.05180677  0.91658314  0.11005979  1
  P  P201  1  0.05379373  0.91571599  0.36021957  1
  P  P202  1  0.05346046  0.91712160  0.60983619  1
  P  P203  1  0.05300115  0.91672366  0.85957317  1
  P  P204  1  0.55310466  0.25044823  0.10998679  1
  P  P205  1  0.55429621  0.25026305  0.36166784  1
  P  P206  1  0.55419644  0.24949697  0.61081068  1
  P  P207  1  0.55438605  0.24973127  0.85866835  1
  P  P208  1  0.55240296  0.58351440  0.11151707  1
  P  P209  1  0.55234050  0.58301856  0.35986520  1
  P  P210  1  0.55442104  0.58298288  0.61100130  1
  P  P211  1  0.55182586  0.58328146  0.85884313  1
  P  P212  1  0.55394836  0.91574471  0.10933243  1
  P  P213  1  0.55332783  0.91678289  0.36033031  1
  P  P214  1  0.55508321  0.91751993  0.61163114  1
  P  P215  1  0.55554482  0.91719737  0.86029715  1
  P  P216  1  0.44740524  0.08334989  0.14006579  1
  P  P217  1  0.44717272  0.08348470  0.39108518  1
  P  P218  1  0.44566809  0.08455845  0.63997345  1
  P  P219  1  0.44724483  0.08351785  0.88854417  1
  P  P220  1  0.44528033  0.41712230  0.14100334  1
  P  P221  1  0.44536995  0.41728914  0.38962274  1
  P  P222  1  0.44393242  0.41537032  0.63905241  1
  P  P223  1  0.44508529  0.41733543  0.88829986  1
  P  P224  1  0.44514074  0.74959540  0.13936201  1
  P  P225  1  0.44611027  0.74913684  0.38960566  1
  P  P226  1  0.44534588  0.75012494  0.63908208  1
  P  P227  1  0.44566208  0.74897437  0.89047645  1
  P  P228  1  0.94716893  0.08260921  0.14041664  1
  P  P229  1  0.94570651  0.08472312  0.38919732  1
  P  P230  1  0.94727686  0.08378520  0.64005467  1
  P  P231  1  0.94622729  0.08460963  0.88805292  1
  P  P232  1  0.94813784  0.41728656  0.14094988  1
  P  P233  1  0.94743327  0.41599428  0.38904102  1
  P  P234  1  0.94834081  0.41672631  0.64000765  1
  P  P235  1  0.94528796  0.41536944  0.88831433  1
  P  P236  1  0.94859800  0.75024530  0.13990774  1
  P  P237  1  0.94767924  0.74926062  0.39058041  1
  P  P238  1  0.94633812  0.74960021  0.63915405  1
  P  P239  1  0.94615064  0.75003236  0.88870177  1
  P  P240  1  0.19591970  0.08425652  0.23422623  1
  P  P241  1  0.19719879  0.08412380  0.48655419  1
  P  P242  1  0.19565149  0.08434748  0.73561490  1
  P  P243  1  0.19399111  0.08303346  0.98511040  1
  P  P244  1  0.19630762  0.41609144  0.23580941  1
  P  P245  1  0.19616489  0.41659877  0.48581424  1
  P  P246  1  0.19747154  0.41585881  0.73437375  1
  P  P247  1  0.19524053  0.41780778  0.98624184  1
  P  P248  1  0.19664474  0.74995317  0.23557950  1
  P  P249  1  0.19612641  0.74915768  0.48561333  1
  P  P250  1  0.19468262  0.74996043  0.73527294  1
  P  P251  1  0.19567471  0.74913593  0.98563124  1
  P  P252  1  0.69737839  0.08392098  0.23655954  1
  P  P253  1  0.69419897  0.08433099  0.48554991  1
  P  P254  1  0.69600864  0.08373780  0.73541731  1
  P  P255  1  0.69618385  0.08240797  0.98430964  1
  P  P256  1  0.69670191  0.41733744  0.23642014  1
  P  P257  1  0.69544487  0.41580897  0.48413902  1
  P  P258  1  0.69803650  0.41662972  0.73494963  1
  P  P259  1  0.69662168  0.41663826  0.98494292  1
  P  P260  1  0.69370434  0.74855860  0.23568394  1
  P  P261  1  0.69746915  0.74992738  0.48371153  1
  P  P262  1  0.69770100  0.74961279  0.73546313  1
  P  P263  1  0.69493768  0.75059425  0.98673244  1
  P  P264  1  0.30286599  0.24974324  0.01480185  1
  P  P265  1  0.30166600  0.25062638  0.26514776  1
  P  P266  1  0.30334596  0.25001864  0.51545239  1
  P  P267  1  0.30317376  0.24973467  0.76365437  1
  P  P268  1  0.30414470  0.58448256  0.01459802  1
  P  P269  1  0.30576422  0.58344490  0.26432629  1
  P  P270  1  0.30385185  0.58341903  0.51304142  1
  P  P271  1  0.30357182  0.58229614  0.76552197  1
  P  P272  1  0.30291459  0.91583897  0.01472404  1
  P  P273  1  0.30325882  0.91610212  0.26503242  1
  P  P274  1  0.30378906  0.91669534  0.51524458  1
  P  P275  1  0.30318979  0.91791820  0.76538923  1
  P  P276  1  0.80488817  0.24968485  0.01401363  1
  P  P277  1  0.80508558  0.25040386  0.26586667  1
  P  P278  1  0.80330125  0.25033245  0.51363023  1
  P  P279  1  0.80313826  0.24982392  0.76441180  1
  P  P280  1  0.80286956  0.58362772  0.01586282  1
  P  P281  1  0.80227352  0.58247695  0.26494821  1
  P  P282  1  0.80349760  0.58413124  0.51454663  1
  P  P283  1  0.80246918  0.58316728  0.76458689  1
  P  P284  1  0.80252004  0.91654367  0.01598854  1
  P  P285  1  0.80516683  0.91698627  0.26368200  1
  P  P286  1  0.80317438  0.91557285  0.51469957  1
  P  P287  1  0.80233100  0.91687417  0.76441133  1
  O  O288  1  0.05838638  0.25055224  0.18841607  1
  O  O289  1  0.06016044  0.25010079  0.43778106  1
  O  O290  1  0.05957537  0.25029199  0.68732592  1
  O  O291  1  0.05603533  0.25025729  0.93561900  1
  O  O292  1  0.05756010  0.58330897  0.18642966  1
  O  O293  1  0.05988079  0.58310759  0.43822866  1
  O  O294  1  0.05705627  0.58256334  0.68620260  1
  O  O295  1  0.05920636  0.58354021  0.93777478  1
  O  O296  1  0.05524084  0.91642604  0.18675292  1
  O  O297  1  0.05711328  0.91649374  0.43696485  1
  O  O298  1  0.05601967  0.91716549  0.68658284  1
  O  O299  1  0.05565320  0.91665639  0.93634812  1
  O  O300  1  0.55650991  0.25050885  0.18680023  1
  O  O301  1  0.55758712  0.25053134  0.43843304  1
  O  O302  1  0.55946798  0.25049273  0.68745008  1
  O  O303  1  0.55727534  0.25048115  0.93544625  1
  O  O304  1  0.55731654  0.58259910  0.18812448  1
  O  O305  1  0.55562261  0.58292462  0.43662562  1
  O  O306  1  0.55935047  0.58307011  0.68769869  1
  O  O307  1  0.55541942  0.58312233  0.93562129  1
  O  O308  1  0.55662065  0.91662358  0.18618011  1
  O  O309  1  0.55567406  0.91673563  0.43714933  1
  O  O310  1  0.55961296  0.91641648  0.68836985  1
  O  O311  1  0.55922333  0.91650731  0.93702791  1
  O  O312  1  0.44407603  0.08348442  0.06329300  1
  O  O313  1  0.44295428  0.08366324  0.31441199  1
  O  O314  1  0.44082731  0.08402267  0.56326313  1
  O  O315  1  0.44173888  0.08363045  0.81192118  1
  O  O316  1  0.44261208  0.41652385  0.06413910  1
  O  O317  1  0.44051906  0.41601247  0.31297314  1
  O  O318  1  0.43977503  0.41622088  0.56227635  1
  O  O319  1  0.44086557  0.41631222  0.81155970  1
  O  O320  1  0.44054734  0.75017793  0.06269168  1
  O  O321  1  0.44165993  0.75004823  0.31289368  1
  O  O322  1  0.44062788  0.75002687  0.56233282  1
  O  O323  1  0.44276822  0.75002743  0.81366672  1
  O  O324  1  0.94384443  0.08343450  0.06363386  1
  O  O325  1  0.94171431  0.08413360  0.31244500  1
  O  O326  1  0.94307401  0.08392541  0.56335581  1
  O  O327  1  0.94093126  0.08382154  0.81143561  1
  O  O328  1  0.94426029  0.41718959  0.06417955  1
  O  O329  1  0.94213936  0.41695934  0.31242990  1
  O  O330  1  0.94429976  0.41666354  0.56330495  1
  O  O331  1  0.94077332  0.41645489  0.81156819  1
  O  O332  1  0.94467010  0.74959278  0.06320959  1
  O  O333  1  0.94332182  0.74903520  0.31390253  1
  O  O334  1  0.94133686  0.74959863  0.56254099  1
  O  O335  1  0.94078339  0.74972551  0.81201570  1
  O  O336  1  0.18929475  0.08272575  0.06183270  1
  O  O337  1  0.19348947  0.08319671  0.31108570  1
  O  O338  1  0.19227931  0.08324384  0.56315321  1
  O  O339  1  0.19066850  0.08349308  0.81230934  1
  O  O340  1  0.19133754  0.41708538  0.06297898  1
  O  O341  1  0.19202960  0.41679602  0.31256184  1
  O  O342  1  0.19213891  0.41693241  0.56249500  1
  O  O343  1  0.19383899  0.41651606  0.81110595  1
  O  O344  1  0.19115890  0.75025877  0.06239399  1
  O  O345  1  0.19168191  0.75010273  0.31221888  1
  O  O346  1  0.19125375  0.74985013  0.56232125  1
  O  O347  1  0.19063968  0.75022880  0.81207303  1
  O  O348  1  0.69387652  0.08354430  0.06116933  1
  O  O349  1  0.69188923  0.08361804  0.31314795  1
  O  O350  1  0.69033487  0.08387023  0.56233145  1
  O  O351  1  0.69192677  0.08377013  0.81215894  1
  O  O352  1  0.69308425  0.41656053  0.06170713  1
  O  O353  1  0.69109984  0.41704288  0.31298732  1
  O  O354  1  0.69246355  0.41624663  0.56092036  1
  O  O355  1  0.69457115  0.41662061  0.81161264  1
  O  O356  1  0.69043533  0.74948934  0.06343067  1
  O  O357  1  0.68950715  0.74930451  0.31243684  1
  O  O358  1  0.69379852  0.74990986  0.56044469  1
  O  O359  1  0.69398075  0.74963724  0.81214653  1
  O  O360  1  0.30514294  0.25013814  0.18849163  1
  O  O361  1  0.30656615  0.24970810  0.43872084  1
  O  O362  1  0.30764541  0.24936461  0.68703109  1
  O  O363  1  0.30655287  0.24963408  0.93803259  1
  O  O364  1  0.30887412  0.58365899  0.18748582  1
  O  O365  1  0.30837056  0.58360916  0.43637910  1
  O  O366  1  0.30606417  0.58332086  0.68865299  1
  O  O367  1  0.30833809  0.58369122  0.93792171  1
  O  O368  1  0.30618655  0.91635855  0.18828626  1
  O  O369  1  0.30647962  0.91674783  0.43845610  1
  O  O370  1  0.30634173  0.91732485  0.68861619  1
  O  O371  1  0.30640940  0.91660210  0.93799790  1
  O  O372  1  0.80787892  0.25041459  0.18900394  1
  O  O373  1  0.80888337  0.25057859  0.43710673  1
  O  O374  1  0.80663656  0.24958661  0.68768525  1
  O  O375  1  0.80898794  0.24956348  0.93730138  1
  O  O376  1  0.80653372  0.58302715  0.18832498  1
  O  O377  1  0.80680694  0.58338967  0.43782833  1
  O  O378  1  0.80615392  0.58317871  0.68789760  1
  O  O379  1  0.80676276  0.58387142  0.93910903  1
  O  O380  1  0.80945630  0.91633201  0.18693553  1
  O  O381  1  0.80611558  0.91631181  0.43788953  1
  O  O382  1  0.80592261  0.91705202  0.68772238  1
  O  O383  1  0.80635850  0.91636576  0.93923051  1
  O  O384  1  0.23300045  0.25025333  0.03916860  1
  O  O385  1  0.23177485  0.25011233  0.29016556  1
  O  O386  1  0.23320781  0.25031349  0.53988117  1
  O  O387  1  0.23295888  0.24998654  0.78795626  1
  O  O388  1  0.23394482  0.58390336  0.03884245  1
  O  O389  1  0.23576542  0.58331198  0.28887707  1
  O  O390  1  0.23358466  0.58288843  0.53715856  1
  O  O391  1  0.23394646  0.58299376  0.79076927  1
  O  O392  1  0.23318439  0.91554869  0.03967916  1
  O  O393  1  0.23370370  0.91677215  0.29053503  1
  O  O394  1  0.23425297  0.91670722  0.54087510  1
  O  O395  1  0.23352080  0.91746835  0.79043843  1
  O  O396  1  0.73501235  0.24977818  0.03862474  1
  O  O397  1  0.73532863  0.25038828  0.29081946  1
  O  O398  1  0.73286524  0.25026568  0.53690797  1
  O  O399  1  0.73300439  0.25000555  0.78896129  1
  O  O400  1  0.73303463  0.58304280  0.04033007  1
  O  O401  1  0.73212302  0.58316384  0.28920201  1
  O  O402  1  0.73376697  0.58339145  0.53945504  1
  O  O403  1  0.73250081  0.58329702  0.78971712  1
  O  O404  1  0.73252314  0.91701156  0.04044078  1
  O  O405  1  0.73504945  0.91638842  0.28773952  1
  O  O406  1  0.73358083  0.91616330  0.53993740  1
  O  O407  1  0.73228963  0.91668844  0.78914744  1
  O  O408  1  0.26543426  0.08366262  0.20861190  1
  O  O409  1  0.26756314  0.08420302  0.46279916  1
  O  O410  1  0.26609634  0.08400036  0.71226728  1
  O  O411  1  0.26416388  0.08350907  0.96142193  1
  O  O412  1  0.26657950  0.41711146  0.21196671  1
  O  O413  1  0.26656628  0.41626908  0.46186764  1
  O  O414  1  0.26748168  0.41633907  0.70983584  1
  O  O415  1  0.26516249  0.41704661  0.96184117  1
  O  O416  1  0.26708423  0.74935068  0.21233940  1
  O  O417  1  0.26658790  0.74990786  0.46212017  1
  O  O418  1  0.26477223  0.74945288  0.71134059  1
  O  O419  1  0.26600518  0.74983832  0.96193660  1
  O  O420  1  0.76779049  0.08411805  0.21312157  1
  O  O421  1  0.76427590  0.08329869  0.46148315  1
  O  O422  1  0.76634705  0.08389884  0.71123389  1
  O  O423  1  0.76577230  0.08275653  0.95881824  1
  O  O424  1  0.76716889  0.41660532  0.21305420  1
  O  O425  1  0.76529653  0.41695724  0.45944370  1
  O  O426  1  0.76798579  0.41614799  0.70971299  1
  O  O427  1  0.76640194  0.41694003  0.96025279  1
  O  O428  1  0.76390895  0.74929583  0.21183177  1
  O  O429  1  0.76743714  0.74963835  0.45900587  1
  O  O430  1  0.76778108  0.74971973  0.71073085  1
  O  O431  1  0.76490874  0.75031086  0.96243960  1
  O  O432  1  0.01724346  0.08320666  0.16513496  1
  O  O433  1  0.01573941  0.08402206  0.41342342  1
  O  O434  1  0.01757362  0.08378872  0.66377960  1
  O  O435  1  0.01655824  0.08404750  0.91171856  1
  O  O436  1  0.01833888  0.41706730  0.16506842  1
  O  O437  1  0.01793788  0.41627406  0.41224414  1
  O  O438  1  0.01855743  0.41656099  0.66406154  1
  O  O439  1  0.01538367  0.41572087  0.91224727  1
  O  O440  1  0.01871158  0.74982346  0.16439517  1
  O  O441  1  0.01796734  0.74958221  0.41435893  1
  O  O442  1  0.01693392  0.74942567  0.66222892  1
  O  O443  1  0.01662741  0.75048860  0.91188274  1
  O  O444  1  0.51706308  0.08301369  0.16522924  1
  O  O445  1  0.51734689  0.08373439  0.41509909  1
  O  O446  1  0.51621709  0.08392216  0.66307177  1
  O  O447  1  0.51776108  0.08378148  0.91153986  1
  O  O448  1  0.51488872  0.41703142  0.16633626  1
  O  O449  1  0.51575708  0.41693120  0.41323741  1
  O  O450  1  0.51408879  0.41608434  0.66292729  1
  O  O451  1  0.51500068  0.41714382  0.91277003  1
  O  O452  1  0.51553238  0.74980371  0.16301548  1
  O  O453  1  0.51649961  0.74959204  0.41345352  1
  O  O454  1  0.51544605  0.74994789  0.66286888  1
  O  O455  1  0.51537658  0.74919475  0.91546815  1
  O  O456  1  0.48354800  0.25025433  0.08459678  1
  O  O457  1  0.48441354  0.24997411  0.33679527  1
  O  O458  1  0.48365710  0.24980510  0.58764372  1
  O  O459  1  0.48464829  0.24972122  0.83364892  1
  O  O460  1  0.48202284  0.58324780  0.08783627  1
  O  O461  1  0.48223825  0.58329678  0.33536403  1
  O  O462  1  0.48423145  0.58276048  0.58740604  1
  O  O463  1  0.48181181  0.58349492  0.83433898  1
  O  O464  1  0.48440601  0.91683890  0.08382984  1
  O  O465  1  0.48385364  0.91644669  0.33449447  1
  O  O466  1  0.48504025  0.91767359  0.58763580  1
  O  O467  1  0.48556448  0.91649908  0.83578098  1
  O  O468  1  0.98503140  0.25009484  0.08665122  1
  O  O469  1  0.98496663  0.25057736  0.33748293  1
  O  O470  1  0.98612946  0.25023202  0.58590506  1
  O  O471  1  0.98302903  0.24975476  0.83385875  1
  O  O472  1  0.98530134  0.58339351  0.08385353  1
  O  O473  1  0.98605711  0.58332858  0.33684535  1
  O  O474  1  0.98528153  0.58286506  0.58369592  1
  O  O475  1  0.98493480  0.58363920  0.83666157  1
  O  O476  1  0.98198451  0.91666595  0.08462427  1
  O  O477  1  0.98408215  0.91584741  0.33534615  1
  O  O478  1  0.98396228  0.91701706  0.58408903  1
  O  O479  1  0.98347467  0.91655703  0.83393403  1
  O  O480  1  0.08824670  0.31559969  0.07871486  1
  O  O481  1  0.08876707  0.31582452  0.32788917  1
  O  O482  1  0.09003804  0.31506006  0.57767547  1
  O  O483  1  0.08745356  0.31407451  0.82600923  1
  O  O484  1  0.08934321  0.64835819  0.07747094  1
  O  O485  1  0.08959200  0.64847732  0.32871121  1
  O  O486  1  0.08938116  0.64781250  0.57734914  1
  O  O487  1  0.08821134  0.64938540  0.82825904  1
  O  O488  1  0.08577591  0.98169943  0.07768148  1
  O  O489  1  0.08763191  0.98088105  0.32761420  1
  O  O490  1  0.08763605  0.98234694  0.57770340  1
  O  O491  1  0.08706401  0.98199055  0.82743146  1
  O  O492  1  0.58704688  0.31559967  0.07758496  1
  O  O493  1  0.58775449  0.31550612  0.32873298  1
  O  O494  1  0.58755651  0.31428072  0.57688701  1
  O  O495  1  0.58847214  0.31469246  0.82579077  1
  O  O496  1  0.58539839  0.64876908  0.07829747  1
  O  O497  1  0.58640556  0.64793921  0.32728469  1
  O  O498  1  0.58756972  0.64804679  0.57759309  1
  O  O499  1  0.58603497  0.64824547  0.82629557  1
  O  O500  1  0.58918685  0.98020638  0.07696410  1
  O  O501  1  0.58744355  0.98209501  0.32821207  1
  O  O502  1  0.58851275  0.98285609  0.57918076  1
  O  O503  1  0.58908209  0.98241346  0.82749595  1
  O  O504  1  0.41312917  0.01834431  0.17234709  1
  O  O505  1  0.41351521  0.01844531  0.42404447  1
  O  O506  1  0.41208582  0.01989821  0.67370127  1
  O  O507  1  0.41438984  0.01837487  0.92217822  1
  O  O508  1  0.41091349  0.35221518  0.17366387  1
  O  O509  1  0.41174321  0.35251055  0.42338185  1
  O  O510  1  0.41083175  0.35001029  0.67195208  1
  O  O511  1  0.41139341  0.35246860  0.92167109  1
  O  O512  1  0.41184721  0.68456215  0.17265475  1
  O  O513  1  0.41283677  0.68384331  0.42251139  1
  O  O514  1  0.41176821  0.68506132  0.67205337  1
  O  O515  1  0.41153231  0.68373197  0.92242122  1
  O  O516  1  0.91334338  0.01741158  0.17261372  1
  O  O517  1  0.91184567  0.01974645  0.42213801  1
  O  O518  1  0.91342353  0.01886042  0.67298735  1
  O  O519  1  0.91289428  0.01963784  0.92171039  1
  O  O520  1  0.91409386  0.35240161  0.17373320  1
  O  O521  1  0.91449305  0.35083560  0.42247796  1
  O  O522  1  0.91423378  0.35184093  0.67271173  1
  O  O523  1  0.91224826  0.34985791  0.92087705  1
  O  O524  1  0.91485627  0.68527559  0.17306523  1
  O  O525  1  0.91417595  0.68425607  0.42372944  1
  O  O526  1  0.91313739  0.68463250  0.67276883  1
  O  O527  1  0.91334284  0.68504234  0.92256092  1
  O  O528  1  0.16113800  0.01953961  0.20163040  1
  O  O529  1  0.16401185  0.01924388  0.45271662  1
  O  O530  1  0.16218844  0.01957694  0.70175856  1
  O  O531  1  0.16064581  0.01796001  0.95180188  1
  O  O532  1  0.16310652  0.35090518  0.20291290  1
  O  O533  1  0.16268657  0.35141162  0.45294500  1
  O  O534  1  0.16362961  0.35080174  0.70184054  1
  O  O535  1  0.16130355  0.35308307  0.95285468  1
  O  O536  1  0.16313911  0.68503825  0.20215177  1
  O  O537  1  0.16327652  0.68394154  0.45227196  1
  O  O538  1  0.16087146  0.68507165  0.70228631  1
  O  O539  1  0.16268375  0.68377787  0.95273988  1
  O  O540  1  0.66428142  0.01884932  0.20298422  1
  O  O541  1  0.66010177  0.01961748  0.45229051  1
  O  O542  1  0.66246179  0.01864258  0.70245497  1
  O  O543  1  0.66202319  0.01705910  0.95264699  1
  O  O544  1  0.66342056  0.35237813  0.20282544  1
  O  O545  1  0.66173232  0.35058937  0.45173848  1
  O  O546  1  0.66383947  0.35162339  0.70238692  1
  O  O547  1  0.66289881  0.35156798  0.95220521  1
  O  O548  1  0.66036634  0.68323724  0.20294426  1
  O  O549  1  0.66297524  0.68508418  0.45121335  1
  O  O550  1  0.66392474  0.68451517  0.70273992  1
  O  O551  1  0.66121550  0.68582063  0.95312438  1
  O  O552  1  0.33682234  0.31476359  0.04734190  1
  O  O553  1  0.33535244  0.31580746  0.29780940  1
  O  O554  1  0.33727379  0.31515030  0.54780298  1
  O  O555  1  0.33662049  0.31494170  0.79656850  1
  O  O556  1  0.33741011  0.64976194  0.04753239  1
  O  O557  1  0.33947001  0.64847784  0.29728070  1
  O  O558  1  0.33685860  0.64850235  0.54659266  1
  O  O559  1  0.33822880  0.64696517  0.79817769  1
  O  O560  1  0.33665435  0.98099559  0.04742816  1
  O  O561  1  0.33777431  0.98105035  0.29728303  1
  O  O562  1  0.33795319  0.98189855  0.54739826  1
  O  O563  1  0.33712964  0.98318775  0.79751660  1
  O  O564  1  0.83867898  0.31462772  0.04709646  1
  O  O565  1  0.83933446  0.31552076  0.29820302  1
  O  O566  1  0.83652292  0.31531672  0.54724340  1
  O  O567  1  0.83728975  0.31477794  0.79693674  1
  O  O568  1  0.83645704  0.64880258  0.04866327  1
  O  O569  1  0.83634004  0.64744457  0.29771144  1
  O  O570  1  0.83719470  0.64946822  0.54674913  1
  O  O571  1  0.83642875  0.64818838  0.79734466  1
  O  O572  1  0.83692059  0.98149243  0.04829130  1
  O  O573  1  0.83832992  0.98220312  0.29665971  1
  O  O574  1  0.83744223  0.98051147  0.54729753  1
  O  O575  1  0.83582294  0.98219899  0.79711400  1
  O  O576  1  0.41350953  0.14838610  0.17283044  1
  O  O577  1  0.41316519  0.14838265  0.42411801  1
  O  O578  1  0.41268945  0.14981971  0.67323359  1
  O  O579  1  0.41393446  0.14837808  0.92212146  1
  O  O580  1  0.41083697  0.48216115  0.17292782  1
  O  O581  1  0.41212926  0.48261036  0.42244421  1
  O  O582  1  0.40989499  0.48002728  0.67235429  1
  O  O583  1  0.41156292  0.48268008  0.92091548  1
  O  O584  1  0.41186682  0.81455426  0.17305984  1
  O  O585  1  0.41233407  0.81383171  0.42320347  1
  O  O586  1  0.41208317  0.81513878  0.67241397  1
  O  O587  1  0.41132082  0.81377074  0.92331737  1
  O  O588  1  0.91309654  0.14745981  0.17345161  1
  O  O589  1  0.91264948  0.15007068  0.42212580  1
  O  O590  1  0.91354520  0.14876482  0.67297790  1
  O  O591  1  0.91338656  0.14985954  0.92131233  1
  O  O592  1  0.91450093  0.48234920  0.17384194  1
  O  O593  1  0.91431338  0.48097910  0.42273917  1
  O  O594  1  0.91454840  0.48168782  0.67294790  1
  O  O595  1  0.91195529  0.48030292  0.92196186  1
  O  O596  1  0.91471522  0.81529667  0.17228788  1
  O  O597  1  0.91371068  0.81413127  0.42353456  1
  O  O598  1  0.91318540  0.81462904  0.67273085  1
  O  O599  1  0.91281740  0.81509949  0.92194650  1
  O  O600  1  0.08839755  0.18510965  0.07899504  1
  O  O601  1  0.08873602  0.18588701  0.32748537  1
  O  O602  1  0.08976512  0.18484530  0.57781360  1
  O  O603  1  0.08708034  0.18434090  0.82657729  1
  O  O604  1  0.08918608  0.51818204  0.07745386  1
  O  O605  1  0.08962265  0.51828421  0.32850742  1
  O  O606  1  0.08929894  0.51769375  0.57721147  1
  O  O607  1  0.08855311  0.51919270  0.82782256  1
  O  O608  1  0.08592307  0.85150209  0.07754739  1
  O  O609  1  0.08781861  0.85058496  0.32802173  1
  O  O610  1  0.08775656  0.85190095  0.57790550  1
  O  O611  1  0.08748992  0.85177419  0.82749353  1
  O  O612  1  0.58753103  0.18541289  0.07784817  1
  O  O613  1  0.58819355  0.18516436  0.32904769  1
  O  O614  1  0.58738417  0.18428307  0.57779411  1
  O  O615  1  0.58879668  0.18473056  0.82652815  1
  O  O616  1  0.58563052  0.51867934  0.07767857  1
  O  O617  1  0.58608638  0.51786060  0.32700268  1
  O  O618  1  0.58764771  0.51786524  0.57785733  1
  O  O619  1  0.58592326  0.51842791  0.82592381  1
  O  O620  1  0.58753694  0.85014705  0.07747263  1
  O  O621  1  0.58771059  0.85171166  0.32834497  1
  O  O622  1  0.58831649  0.85258658  0.57792385  1
  O  O623  1  0.58957895  0.85233612  0.82712483  1
  O  O624  1  0.33636442  0.18456887  0.04753515  1
  O  O625  1  0.33589437  0.18574995  0.29789598  1
  O  O626  1  0.33725774  0.18519077  0.54856150  1
  O  O627  1  0.33649743  0.18470070  0.79716186  1
  O  O628  1  0.33801736  0.51974486  0.04811734  1
  O  O629  1  0.33950428  0.51835894  0.29707486  1
  O  O630  1  0.33733230  0.51833865  0.54609908  1
  O  O631  1  0.33741933  0.51685769  0.79729989  1
  O  O632  1  0.33711152  0.85077602  0.04691734  1
  O  O633  1  0.33710818  0.85077170  0.29732900  1
  O  O634  1  0.33790329  0.85146344  0.54727556  1
  O  O635  1  0.33735879  0.85281294  0.79768642  1
  O  O636  1  0.83841360  0.18453828  0.04696743  1
  O  O637  1  0.83937832  0.18542774  0.29819713  1
  O  O638  1  0.83639072  0.18529861  0.54724639  1
  O  O639  1  0.83686987  0.18474453  0.79739998  1
  O  O640  1  0.83722188  0.51870814  0.04820856  1
  O  O641  1  0.83590959  0.51738264  0.29784634  1
  O  O642  1  0.83783465  0.51924895  0.54722280  1
  O  O643  1  0.83633417  0.51788861  0.79695252  1
  O  O644  1  0.83638788  0.85160501  0.04899394  1
  O  O645  1  0.83864418  0.85178790  0.29670433  1
  O  O646  1  0.83709440  0.85019756  0.54654586  1
  O  O647  1  0.83616458  0.85181599  0.79705876  1
  O  O648  1  0.16174871  0.14960837  0.20266983  1
  O  O649  1  0.16381177  0.14928565  0.45362150  1
  O  O650  1  0.16244554  0.14945533  0.70248966  1
  O  O651  1  0.16017158  0.14790213  0.95187859  1
  O  O652  1  0.16249594  0.48089179  0.20235940  1
  O  O653  1  0.16293033  0.48148080  0.45211119  1
  O  O654  1  0.16340946  0.48067551  0.70133738  1
  O  O655  1  0.16219446  0.48320868  0.95347840  1
  O  O656  1  0.16351565  0.81489575  0.20185105  1
  O  O657  1  0.16250032  0.81396582  0.45204446  1
  O  O658  1  0.16131056  0.81501739  0.70202224  1
  O  O659  1  0.16171358  0.81371912  0.95194846  1
  O  O660  1  0.66422779  0.14893173  0.20308563  1
  O  O661  1  0.66102128  0.14964012  0.45265382  1
  O  O662  1  0.66241752  0.14878582  0.70225250  1
  O  O663  1  0.66153846  0.14709106  0.95156578  1
  O  O664  1  0.66363331  0.48254400  0.20303747  1
  O  O665  1  0.66063560  0.48048881  0.45157023  1
  O  O666  1  0.66416136  0.48178362  0.70246494  1
  O  O667  1  0.66240879  0.48162063  0.95240748  1
  O  O668  1  0.65975532  0.81335299  0.20244410  1
  O  O669  1  0.66344141  0.81489518  0.45104794  1
  O  O670  1  0.66393691  0.81470576  0.70266896  1
  O  O671  1  0.66171966  0.81603718  0.95409242  1
