# generated using pymatgen
data_Na2MnFe(PO4)2
_symmetry_space_group_name_H-M   'P 1'
_cell_length_a   21.07923197
_cell_length_b   18.93083011
_cell_length_c   20.03840598
_cell_angle_alpha   90.00023973
_cell_angle_beta   90.00597078
_cell_angle_gamma   89.99954752
_symmetry_Int_Tables_number   1
_chemical_formula_structural   Na2MnFe(PO4)2
_chemical_formula_sum   'Na96 Mn48 Fe48 P96 O384'
_cell_volume   7996.27294356
_cell_formula_units_Z   48
loop_
 _symmetry_equiv_pos_site_id
 _symmetry_equiv_pos_as_xyz
  1  'x, y, z'
loop_
 _atom_site_type_symbol
 _atom_site_label
 _atom_site_symmetry_multiplicity
 _atom_site_fract_x
 _atom_site_fract_y
 _atom_site_fract_z
 _atom_site_occupancy
  Na  Na0  1  -0.00172162  -0.00063761  0.00177992  1
  Na  Na1  1  -0.00048163  -0.00016129  0.25019379  1
  Na  Na2  1  0.00098235  0.00041477  0.49855497  1
  Na  Na3  1  0.00012361  0.00044562  0.74882346  1
  Na  Na4  1  -0.00384110  0.33254949  0.00003326  1
  Na  Na5  1  -0.00184165  0.33332567  0.25083753  1
  Na  Na6  1  -0.00080956  0.33321788  0.49955608  1
  Na  Na7  1  -0.00255537  0.33250536  0.74921280  1
  Na  Na8  1  -0.00098246  0.66681915  0.00039203  1
  Na  Na9  1  0.00204272  0.66732738  0.25033001  1
  Na  Na10  1  -0.00008885  0.66668154  0.49995094  1
  Na  Na11  1  -0.00125604  0.66734277  0.74973878  1
  Na  Na12  1  0.50025676  -0.00074241  0.00014896  1
  Na  Na13  1  0.50155491  0.00030807  0.25130697  1
  Na  Na14  1  0.50108540  0.00034655  0.50049857  1
  Na  Na15  1  0.50003796  -0.00071273  0.74931214  1
  Na  Na16  1  0.49972052  0.33264391  0.00076041  1
  Na  Na17  1  0.49949222  0.33307176  0.25005246  1
  Na  Na18  1  0.49928043  0.33292416  0.49992035  1
  Na  Na19  1  0.50213295  0.33434408  0.74897610  1
  Na  Na20  1  0.49977024  0.66674950  0.00050341  1
  Na  Na21  1  0.50199367  0.66768307  0.25004531  1
  Na  Na22  1  0.50137556  0.66758162  0.49916801  1
  Na  Na23  1  0.49780309  0.66561761  0.75019055  1
  Na  Na24  1  0.25161537  -0.00021400  0.12448867  1
  Na  Na25  1  0.25012248  -0.00030532  0.37470216  1
  Na  Na26  1  0.24841650  -0.00046753  0.62555559  1
  Na  Na27  1  0.25166296  0.00070169  0.87520963  1
  Na  Na28  1  0.25215239  0.33394483  0.12550235  1
  Na  Na29  1  0.25277055  0.33406946  0.37505080  1
  Na  Na30  1  0.24880751  0.33242500  0.62428624  1
  Na  Na31  1  0.24951644  0.33298619  0.87493284  1
  Na  Na32  1  0.24913846  0.66639357  0.12355664  1
  Na  Na33  1  0.24903551  0.66628518  0.37511458  1
  Na  Na34  1  0.25152952  0.66696134  0.62553738  1
  Na  Na35  1  0.25169566  0.66714185  0.87513435  1
  Na  Na36  1  0.74948856  0.00034129  0.12518736  1
  Na  Na37  1  0.74792046  -0.00002635  0.37427650  1
  Na  Na38  1  0.74833741  -0.00085108  0.62509716  1
  Na  Na39  1  0.75078009  0.00011508  0.87583028  1
  Na  Na40  1  0.75014145  0.33334621  0.12394117  1
  Na  Na41  1  0.75047057  0.33353472  0.37507209  1
  Na  Na42  1  0.75166138  0.33359379  0.62506785  1
  Na  Na43  1  0.75208841  0.33388775  0.87515473  1
  Na  Na44  1  0.74768639  0.66668543  0.12580068  1
  Na  Na45  1  0.74840420  0.66683664  0.37522915  1
  Na  Na46  1  0.75070945  0.66769627  0.62466931  1
  Na  Na47  1  0.75137614  0.66804347  0.87571354  1
  Na  Na48  1  -0.00385064  0.16758835  0.00068197  1
  Na  Na49  1  -0.00238950  0.16704838  0.25077731  1
  Na  Na50  1  -0.00032477  0.16663479  0.49896095  1
  Na  Na51  1  0.00020537  0.16617801  0.74899221  1
  Na  Na52  1  -0.00125132  0.49984909  0.00080820  1
  Na  Na53  1  -0.00055248  0.50027368  0.25041609  1
  Na  Na54  1  -0.00005154  0.49996044  0.49908179  1
  Na  Na55  1  -0.00076861  0.49941830  0.74932625  1
  Na  Na56  1  -0.00101431  0.83329498  0.00089349  1
  Na  Na57  1  0.00196880  0.83280346  0.25019661  1
  Na  Na58  1  0.00064546  0.83312607  0.49995424  1
  Na  Na59  1  -0.00295869  0.83399326  0.74951403  1
  Na  Na60  1  0.50143325  0.16647015  0.00031405  1
  Na  Na61  1  0.50083387  0.16596305  0.25028742  1
  Na  Na62  1  0.49968358  0.16707956  0.50069152  1
  Na  Na63  1  0.50178286  0.16616646  0.74871056  1
  Na  Na64  1  0.49847592  0.50036524  0.00119527  1
  Na  Na65  1  0.50097892  0.49889598  0.24985400  1
  Na  Na66  1  0.49833662  0.50000532  0.49910163  1
  Na  Na67  1  0.49828366  0.49988261  0.74980230  1
  Na  Na68  1  0.50016678  0.83404313  -0.00018731  1
  Na  Na69  1  0.50156211  0.83385014  0.25116561  1
  Na  Na70  1  0.50322646  0.83263235  0.49965877  1
  Na  Na71  1  0.50111134  0.83330530  0.75019186  1
  Na  Na72  1  0.25172570  0.16601840  0.12501892  1
  Na  Na73  1  0.25161233  0.16596050  0.37559853  1
  Na  Na74  1  0.24810709  0.16707027  0.62413391  1
  Na  Na75  1  0.24791287  0.16725590  0.87504549  1
  Na  Na76  1  0.25099641  0.49979384  0.12418671  1
  Na  Na77  1  0.25080577  0.50010971  0.37499304  1
  Na  Na78  1  0.25041924  0.50030085  0.62582144  1
  Na  Na79  1  0.25207986  0.49949076  0.87400845  1
  Na  Na80  1  0.25018308  0.83404394  0.12411264  1
  Na  Na81  1  0.24961586  0.83384229  0.37423818  1
  Na  Na82  1  0.25033767  0.83377636  0.62522564  1
  Na  Na83  1  0.25258897  0.83293615  0.87639232  1
  Na  Na84  1  0.74992618  0.16660507  0.12464870  1
  Na  Na85  1  0.74968630  0.16674308  0.37404971  1
  Na  Na86  1  0.75159818  0.16623072  0.62516900  1
  Na  Na87  1  0.75164415  0.16666476  0.87562286  1
  Na  Na88  1  0.74955913  0.49973044  0.12491940  1
  Na  Na89  1  0.74999854  0.49903138  0.37542153  1
  Na  Na90  1  0.75051452  0.49946086  0.62480185  1
  Na  Na91  1  0.75197751  0.49883971  0.87540049  1
  Na  Na92  1  0.74707590  0.83404624  0.12528979  1
  Na  Na93  1  0.74733154  0.83388751  0.37516501  1
  Na  Na94  1  0.74883218  0.83349259  0.62452205  1
  Na  Na95  1  0.75009009  0.83307318  0.87576681  1
  Mn  Mn96  1  0.89181638  0.58396973  0.37684769  1
  Mn  Mn97  1  0.60756330  0.41610526  0.37269318  1
  Mn  Mn98  1  0.14245220  0.91703062  0.99737178  1
  Mn  Mn99  1  0.10741195  0.08373132  0.12353278  1
  Mn  Mn100  1  0.89167266  0.91720682  0.62641473  1
  Mn  Mn101  1  0.64286658  0.24956106  0.49788695  1
  Mn  Mn102  1  0.10729855  0.41645233  0.62239839  1
  Mn  Mn103  1  0.39208498  0.24985784  0.87638252  1
  Mn  Mn104  1  0.64191517  0.58328715  0.49799984  1
  Mn  Mn105  1  0.64177080  0.58319134  0.74741089  1
  Mn  Mn106  1  0.89181118  0.91643050  0.12819063  1
  Mn  Mn107  1  0.89142753  0.58368459  0.87746732  1
  Mn  Mn108  1  0.89204685  0.58345272  0.12822211  1
  Mn  Mn109  1  0.60801582  0.41677907  0.87304103  1
  Mn  Mn110  1  0.85816299  0.08282000  0.75234827  1
  Mn  Mn111  1  0.39199208  0.25034194  0.62759849  1
  Mn  Mn112  1  0.10763411  0.41626804  0.12320186  1
  Mn  Mn113  1  0.10685907  0.75044739  0.87254710  1
  Mn  Mn114  1  0.10862739  0.75002363  0.37287024  1
  Mn  Mn115  1  0.64316542  0.24982524  0.99743053  1
  Mn  Mn116  1  0.89121467  0.24995719  0.37719027  1
  Mn  Mn117  1  0.39282434  0.58422101  0.12825750  1
  Mn  Mn118  1  0.60868714  0.08365394  0.87249737  1
  Mn  Mn119  1  0.14185458  0.91666108  0.74883368  1
  Mn  Mn120  1  0.14122014  0.25028892  0.99846991  1
  Mn  Mn121  1  0.39310834  0.24899472  0.12758299  1
  Mn  Mn122  1  0.35712630  0.08330248  0.75199689  1
  Mn  Mn123  1  0.64234735  0.58347781  0.99744183  1
  Mn  Mn124  1  0.85670505  0.74993516  0.25245049  1
  Mn  Mn125  1  0.35846746  0.75025567  0.50231101  1
  Mn  Mn126  1  0.89166778  0.91616682  0.37679060  1
  Mn  Mn127  1  0.60765358  0.74931433  0.87254592  1
  Mn  Mn128  1  0.35796540  0.41603178  0.75217053  1
  Mn  Mn129  1  0.14236568  0.58262586  0.99723808  1
  Mn  Mn130  1  0.89173744  0.58302097  0.62699004  1
  Mn  Mn131  1  0.39309817  0.91713447  0.37743010  1
  Mn  Mn132  1  0.35883860  0.08429678  0.00211731  1
  Mn  Mn133  1  0.39271821  0.91587104  0.62696299  1
  Mn  Mn134  1  0.14323791  0.24989272  0.24728987  1
  Mn  Mn135  1  0.10810949  0.08349264  0.37214048  1
  Mn  Mn136  1  0.10799099  0.75041604  0.62327030  1
  Mn  Mn137  1  0.60851697  0.08338740  0.62234197  1
  Mn  Mn138  1  0.10682116  0.41633796  0.87310731  1
  Mn  Mn139  1  0.10645692  0.08310358  0.87360124  1
  Mn  Mn140  1  0.14281026  0.58347847  0.74793585  1
  Mn  Mn141  1  0.10816944  0.41662342  0.37272069  1
  Mn  Mn142  1  0.35851959  0.74977796  0.00295390  1
  Mn  Mn143  1  0.39228483  0.58330217  0.37680809  1
  Fe  Fe144  1  0.35859363  0.75074601  0.75154516  1
  Fe  Fe145  1  0.64221733  0.58265755  0.24826627  1
  Fe  Fe146  1  0.60768053  0.74885656  0.62394412  1
  Fe  Fe147  1  0.35741770  0.75005091  0.25115718  1
  Fe  Fe148  1  0.39267359  0.58347831  0.62588448  1
  Fe  Fe149  1  0.60762833  0.08300966  0.12344234  1
  Fe  Fe150  1  0.85674595  0.75022289  0.00295905  1
  Fe  Fe151  1  0.39356639  0.91685940  0.87645925  1
  Fe  Fe152  1  0.89214675  0.24926214  0.87647277  1
  Fe  Fe153  1  0.85704764  0.08266705  0.00249203  1
  Fe  Fe154  1  0.10792677  0.75000691  0.12338195  1
  Fe  Fe155  1  0.89138763  0.25000330  0.12763419  1
  Fe  Fe156  1  0.10718766  0.08331863  0.62255383  1
  Fe  Fe157  1  0.14327986  0.58348956  0.24822189  1
  Fe  Fe158  1  0.14391273  0.91643672  0.24788197  1
  Fe  Fe159  1  0.39300100  0.24937537  0.37648494  1
  Fe  Fe160  1  0.85737831  0.41660898  0.50199830  1
  Fe  Fe161  1  0.89314130  0.24956169  0.62636554  1
  Fe  Fe162  1  0.60794323  0.74993056  0.37284207  1
  Fe  Fe163  1  0.35782710  0.41610602  0.00148605  1
  Fe  Fe164  1  0.14273940  0.91667127  0.49833175  1
  Fe  Fe165  1  0.85666748  0.74995509  0.75149770  1
  Fe  Fe166  1  0.60752021  0.08396209  0.37345049  1
  Fe  Fe167  1  0.64277204  0.91681869  0.74891854  1
  Fe  Fe168  1  0.60768255  0.41729159  0.62329826  1
  Fe  Fe169  1  0.35706866  0.41642003  0.50202343  1
  Fe  Fe170  1  0.89108258  0.91688307  0.87714245  1
  Fe  Fe171  1  0.39259052  0.58313821  0.87697970  1
  Fe  Fe172  1  0.14301264  0.25026691  0.49778896  1
  Fe  Fe173  1  0.64288442  0.91722186  0.49848105  1
  Fe  Fe174  1  0.85691492  0.41720902  0.75158910  1
  Fe  Fe175  1  0.60744550  0.41654664  0.12335422  1
  Fe  Fe176  1  0.85605705  0.41674677  0.25122974  1
  Fe  Fe177  1  0.64385374  0.25010440  0.74846765  1
  Fe  Fe178  1  0.14081523  0.25010082  0.74801798  1
  Fe  Fe179  1  0.85555616  0.08325330  0.25160653  1
  Fe  Fe180  1  0.35873893  0.08288963  0.25211896  1
  Fe  Fe181  1  0.85646272  0.75043098  0.50136798  1
  Fe  Fe182  1  0.64293046  0.91675620  0.99830044  1
  Fe  Fe183  1  0.60692915  0.75024850  0.12331999  1
  Fe  Fe184  1  0.35822661  0.41685881  0.25150506  1
  Fe  Fe185  1  0.14319425  0.58336918  0.49888099  1
  Fe  Fe186  1  0.39393365  0.91675005  0.12701071  1
  Fe  Fe187  1  0.64199637  0.91712559  0.24767800  1
  Fe  Fe188  1  0.85697748  0.08286636  0.50112719  1
  Fe  Fe189  1  0.35701909  0.08339630  0.50174631  1
  Fe  Fe190  1  0.64236093  0.25037703  0.24828735  1
  Fe  Fe191  1  0.85736955  0.41722008  0.00284807  1
  P  P192  1  0.05098018  0.25003738  0.11049234  1
  P  P193  1  0.05443740  0.25019451  0.36053291  1
  P  P194  1  0.05386865  0.24929925  0.60967549  1
  P  P195  1  0.05133468  0.24985439  0.85959309  1
  P  P196  1  0.05491822  0.58379694  0.11127206  1
  P  P197  1  0.05549688  0.58328335  0.36033948  1
  P  P198  1  0.05375955  0.58346947  0.60918912  1
  P  P199  1  0.05248258  0.58327322  0.85962241  1
  P  P200  1  0.05499354  0.91617440  0.11151694  1
  P  P201  1  0.05540520  0.91667213  0.35991890  1
  P  P202  1  0.05377937  0.91735602  0.60914731  1
  P  P203  1  0.05049694  0.91675482  0.86016404  1
  P  P204  1  0.55549687  0.24981670  0.11146669  1
  P  P205  1  0.55302020  0.24920229  0.35978544  1
  P  P206  1  0.55508272  0.25099464  0.61092651  1
  P  P207  1  0.55423368  0.25020029  0.85881629  1
  P  P208  1  0.55497758  0.58320413  0.11137635  1
  P  P209  1  0.55406898  0.58341997  0.35931132  1
  P  P210  1  0.55207408  0.58317019  0.60994110  1
  P  P211  1  0.55174564  0.58290042  0.86000317  1
  P  P212  1  0.55467190  0.91689795  0.11089856  1
  P  P213  1  0.55615651  0.91746600  0.36122725  1
  P  P214  1  0.55581564  0.91548761  0.61069822  1
  P  P215  1  0.55439557  0.91664675  0.86054391  1
  P  P216  1  0.44817925  0.08220172  0.14078450  1
  P  P217  1  0.44649887  0.08396797  0.38995137  1
  P  P218  1  0.44569539  0.08309121  0.63884046  1
  P  P219  1  0.44749450  0.08294114  0.88961907  1
  P  P220  1  0.44660393  0.41638503  0.13962845  1
  P  P221  1  0.44465874  0.41559259  0.38935166  1
  P  P222  1  0.44655239  0.41734731  0.63844098  1
  P  P223  1  0.44636968  0.41664757  0.89076149  1
  P  P224  1  0.44789122  0.75133332  0.14097739  1
  P  P225  1  0.44729601  0.75033276  0.38858300  1
  P  P226  1  0.44787711  0.74939697  0.64016362  1
  P  P227  1  0.44574568  0.75024134  0.88905344  1
  P  P228  1  0.94404604  0.08378378  0.14049754  1
  P  P229  1  0.94425747  0.08293646  0.38914932  1
  P  P230  1  0.94642164  0.08384555  0.63792712  1
  P  P231  1  0.94510197  0.08284733  0.89083240  1
  P  P232  1  0.94449299  0.41616261  0.14041729  1
  P  P233  1  0.94434833  0.41693803  0.38934003  1
  P  P234  1  0.94447218  0.41572630  0.63896548  1
  P  P235  1  0.94405773  0.41599157  0.88946480  1
  P  P236  1  0.94684643  0.75000213  0.14002577  1
  P  P237  1  0.94607072  0.75015510  0.39070474  1
  P  P238  1  0.94442180  0.75028804  0.63924528  1
  P  P239  1  0.94381735  0.75113392  0.88993219  1
  P  P240  1  0.19887977  0.08263625  0.23501940  1
  P  P241  1  0.19619926  0.08327536  0.48599624  1
  P  P242  1  0.19485720  0.08394565  0.73451484  1
  P  P243  1  0.19678898  0.08355509  0.98507676  1
  P  P244  1  0.19850881  0.41725124  0.23517320  1
  P  P245  1  0.19770492  0.41679166  0.48526941  1
  P  P246  1  0.19618267  0.41597458  0.73491001  1
  P  P247  1  0.19785528  0.41645877  0.98471364  1
  P  P248  1  0.19763152  0.75011709  0.23419679  1
  P  P249  1  0.19712395  0.75010911  0.48538391  1
  P  P250  1  0.19847634  0.75044308  0.73552628  1
  P  P251  1  0.19568857  0.75001117  0.98563917  1
  P  P252  1  0.69518641  0.08391960  0.23566965  1
  P  P253  1  0.69733903  0.08313284  0.48426491  1
  P  P254  1  0.69711131  0.08353349  0.73532431  1
  P  P255  1  0.69678520  0.08252457  0.98650529  1
  P  P256  1  0.69652209  0.41622377  0.23460251  1
  P  P257  1  0.69667038  0.41639201  0.48625381  1
  P  P258  1  0.69734021  0.41596008  0.73470886  1
  P  P259  1  0.69716261  0.41660002  0.98607184  1
  P  P260  1  0.69413899  0.75000960  0.23572737  1
  P  P261  1  0.69539615  0.75056589  0.48588131  1
  P  P262  1  0.69708395  0.75060132  0.73485398  1
  P  P263  1  0.69602837  0.75091804  0.98648996  1
  P  P264  1  0.30351430  0.25085264  0.01520113  1
  P  P265  1  0.30496958  0.24949655  0.26564676  1
  P  P266  1  0.30388606  0.24965855  0.51352604  1
  P  P267  1  0.30097390  0.24954186  0.76474632  1
  P  P268  1  0.30533749  0.58226901  0.01393188  1
  P  P269  1  0.30269845  0.58421398  0.26444619  1
  P  P270  1  0.30320981  0.58278222  0.51530057  1
  P  P271  1  0.30601208  0.58436901  0.76421427  1
  P  P272  1  0.30618294  0.91707571  0.01482229  1
  P  P273  1  0.30473720  0.91620020  0.26344124  1
  P  P274  1  0.30255935  0.91758822  0.51476480  1
  P  P275  1  0.30422730  0.91611291  0.76577636  1
  P  P276  1  0.80570815  0.24973058  0.01437079  1
  P  P277  1  0.80266368  0.25024875  0.26347095  1
  P  P278  1  0.80424457  0.24947831  0.51536358  1
  P  P279  1  0.80440260  0.25055141  0.76401324  1
  P  P280  1  0.80339289  0.58399901  0.01566239  1
  P  P281  1  0.80131273  0.58264901  0.26500275  1
  P  P282  1  0.80309778  0.58366813  0.51466220  1
  P  P283  1  0.80275540  0.58344568  0.76483911  1
  P  P284  1  0.80326087  0.91637440  0.01465172  1
  P  P285  1  0.80113121  0.91705420  0.26483708  1
  P  P286  1  0.80187976  0.91696821  0.51427105  1
  P  P287  1  0.80241685  0.91597805  0.76530983  1
  O  O288  1  0.05583341  0.25008729  0.18718574  1
  O  O289  1  0.05946435  0.25027171  0.43728762  1
  O  O290  1  0.05787980  0.25012170  0.68647627  1
  O  O291  1  0.05497533  0.25028289  0.93634161  1
  O  O292  1  0.05959023  0.58311366  0.18808647  1
  O  O293  1  0.06014518  0.58306241  0.43709825  1
  O  O294  1  0.05697252  0.58344674  0.68600095  1
  O  O295  1  0.05579841  0.58317413  0.93646785  1
  O  O296  1  0.05988162  0.91683153  0.18828306  1
  O  O297  1  0.05983469  0.91677222  0.43670535  1
  O  O298  1  0.05645493  0.91653103  0.68596050  1
  O  O299  1  0.05484189  0.91648219  0.93687430  1
  O  O300  1  0.55897259  0.25015285  0.18828272  1
  O  O301  1  0.55670737  0.24992703  0.43651874  1
  O  O302  1  0.55997774  0.25036133  0.68761268  1
  O  O303  1  0.55753787  0.24998057  0.93568692  1
  O  O304  1  0.55885671  0.58272873  0.18814958  1
  O  O305  1  0.55678112  0.58281999  0.43614680  1
  O  O306  1  0.55529797  0.58283102  0.68668105  1
  O  O307  1  0.55598615  0.58317535  0.93672508  1
  O  O308  1  0.55884073  0.91721490  0.18773734  1
  O  O309  1  0.55992051  0.91745450  0.43807345  1
  O  O310  1  0.55969457  0.91663729  0.68751505  1
  O  O311  1  0.55917520  0.91679109  0.93728287  1
  O  O312  1  0.44458245  0.08314113  0.06407469  1
  O  O313  1  0.44191889  0.08292105  0.31319204  1
  O  O314  1  0.44096635  0.08330195  0.56207028  1
  O  O315  1  0.44414823  0.08351784  0.81284040  1
  O  O316  1  0.44183366  0.41629753  0.06299260  1
  O  O317  1  0.44076087  0.41677573  0.31248817  1
  O  O318  1  0.44139344  0.41625592  0.56174924  1
  O  O319  1  0.44356187  0.41576566  0.81387737  1
  O  O320  1  0.44426654  0.75041671  0.06423006  1
  O  O321  1  0.44182679  0.75040634  0.31201044  1
  O  O322  1  0.44460182  0.75062226  0.56333941  1
  O  O323  1  0.44237886  0.75044247  0.81226908  1
  O  O324  1  0.94002631  0.08263208  0.06369070  1
  O  O325  1  0.93902825  0.08277276  0.31242739  1
  O  O326  1  0.94150961  0.08289064  0.56128611  1
  O  O327  1  0.94320020  0.08269622  0.81390145  1
  O  O328  1  0.94042684  0.41717778  0.06356811  1
  O  O329  1  0.93952128  0.41699322  0.31259122  1
  O  O330  1  0.94065291  0.41683362  0.56212675  1
  O  O331  1  0.94035226  0.41704225  0.81260081  1
  O  O332  1  0.94125944  0.75008904  0.06337420  1
  O  O333  1  0.94259140  0.75023481  0.31388976  1
  O  O334  1  0.93985265  0.75035472  0.56248640  1
  O  O335  1  0.93955567  0.75037277  0.81306962  1
  O  O336  1  0.19334235  0.08317694  0.06183932  1
  O  O337  1  0.19478535  0.08320247  0.31172678  1
  O  O338  1  0.19152290  0.08337392  0.56267226  1
  O  O339  1  0.19196198  0.08337274  0.81133742  1
  O  O340  1  0.19380145  0.41651249  0.06144295  1
  O  O341  1  0.19461776  0.41660207  0.31184298  1
  O  O342  1  0.19386861  0.41656516  0.56194012  1
  O  O343  1  0.19298152  0.41646992  0.81167229  1
  O  O344  1  0.19116841  0.75022185  0.06238797  1
  O  O345  1  0.19437735  0.75017123  0.31096816  1
  O  O346  1  0.19435261  0.75022434  0.56213789  1
  O  O347  1  0.19425913  0.75046244  0.81223059  1
  O  O348  1  0.69186677  0.08301517  0.06316518  1
  O  O349  1  0.69106163  0.08416891  0.31238860  1
  O  O350  1  0.69405738  0.08382734  0.56104796  1
  O  O351  1  0.69478005  0.08375580  0.81213464  1
  O  O352  1  0.69164382  0.41666113  0.06267081  1
  O  O353  1  0.69339535  0.41593813  0.31137614  1
  O  O354  1  0.69154884  0.41671816  0.56290266  1
  O  O355  1  0.69397616  0.41666100  0.81147712  1
  O  O356  1  0.69088596  0.75027612  0.06314037  1
  O  O357  1  0.69082834  0.74995592  0.31264063  1
  O  O358  1  0.69112510  0.74935496  0.56259700  1
  O  O359  1  0.69360691  0.74970748  0.81162884  1
  O  O360  1  0.30772414  0.24934038  0.18883661  1
  O  O361  1  0.30878737  0.24942615  0.43690424  1
  O  O362  1  0.30536974  0.24964911  0.68803548  1
  O  O363  1  0.30627759  0.24994270  0.93843711  1
  O  O364  1  0.30621274  0.58420073  0.18770733  1
  O  O365  1  0.30678388  0.58355431  0.43854702  1
  O  O366  1  0.30991587  0.58360823  0.68737704  1
  O  O367  1  0.30940852  0.58324600  0.93712729  1
  O  O368  1  0.30955211  0.91647057  0.18678562  1
  O  O369  1  0.30661901  0.91704191  0.43802850  1
  O  O370  1  0.30705963  0.91661929  0.68894892  1
  O  O371  1  0.31067290  0.91709511  0.93806591  1
  O  O372  1  0.80673285  0.25012369  0.18675996  1
  O  O373  1  0.80600973  0.24970044  0.43846327  1
  O  O374  1  0.80883041  0.24941439  0.68733821  1
  O  O375  1  0.80912856  0.24969640  0.93751308  1
  O  O376  1  0.80520534  0.58361561  0.18833388  1
  O  O377  1  0.80559608  0.58355745  0.43789315  1
  O  O378  1  0.80553579  0.58347318  0.68808538  1
  O  O379  1  0.80610432  0.58387328  0.93887944  1
  O  O380  1  0.80515794  0.91632807  0.18817025  1
  O  O381  1  0.80515712  0.91686191  0.43762023  1
  O  O382  1  0.80589771  0.91679469  0.68859001  1
  O  O383  1  0.80727690  0.91647525  0.93794533  1
  O  O384  1  0.23401515  0.25022015  0.04104632  1
  O  O385  1  0.23526700  0.24977301  0.29099831  1
  O  O386  1  0.23343539  0.24988021  0.53715754  1
  O  O387  1  0.23085450  0.24980866  0.78894093  1
  O  O388  1  0.23535245  0.58291092  0.03808811  1
  O  O389  1  0.23274718  0.58380342  0.28939546  1
  O  O390  1  0.23314290  0.58340490  0.53993798  1
  O  O391  1  0.23598317  0.58346028  0.78860356  1
  O  O392  1  0.23593660  0.91696146  0.03826939  1
  O  O393  1  0.23437088  0.91637694  0.28730119  1
  O  O394  1  0.23250802  0.91693281  0.53922859  1
  O  O395  1  0.23455191  0.91667166  0.79119359  1
  O  O396  1  0.73564761  0.24984299  0.03864781  1
  O  O397  1  0.73246294  0.25020722  0.28789239  1
  O  O398  1  0.73473223  0.24974668  0.54115057  1
  O  O399  1  0.73417618  0.25020101  0.78835783  1
  O  O400  1  0.73374764  0.58371806  0.04091610  1
  O  O401  1  0.73127000  0.58272252  0.28961213  1
  O  O402  1  0.73355427  0.58358782  0.54042666  1
  O  O403  1  0.73325657  0.58325466  0.79077095  1
  O  O404  1  0.73307097  0.91660490  0.03900271  1
  O  O405  1  0.73092757  0.91684353  0.28889900  1
  O  O406  1  0.73191636  0.91687076  0.53932701  1
  O  O407  1  0.73233585  0.91671966  0.79003197  1
  O  O408  1  0.26911319  0.08293330  0.21084751  1
  O  O409  1  0.26655333  0.08326283  0.46201436  1
  O  O410  1  0.26460091  0.08341058  0.70931246  1
  O  O411  1  0.26652882  0.08397868  0.96017950  1
  O  O412  1  0.26872749  0.41688332  0.21085639  1
  O  O413  1  0.26785739  0.41675917  0.46078555  1
  O  O414  1  0.26594627  0.41615037  0.70983310  1
  O  O415  1  0.26783086  0.41635528  0.96009708  1
  O  O416  1  0.26766814  0.75022072  0.20919036  1
  O  O417  1  0.26673476  0.75009067  0.45968959  1
  O  O418  1  0.26853672  0.75058235  0.71101816  1
  O  O419  1  0.26594465  0.74992170  0.96230892  1
  O  O420  1  0.76555277  0.08370164  0.21163254  1
  O  O421  1  0.76728797  0.08344876  0.45946146  1
  O  O422  1  0.76667632  0.08279028  0.70964027  1
  O  O423  1  0.76712165  0.08312023  0.96286482  1
  O  O424  1  0.76655536  0.41634618  0.20975364  1
  O  O425  1  0.76707170  0.41606693  0.46280174  1
  O  O426  1  0.76749002  0.41663261  0.71029503  1
  O  O427  1  0.76767910  0.41637256  0.96309526  1
  O  O428  1  0.76409732  0.75039058  0.21108573  1
  O  O429  1  0.76571059  0.75031170  0.46178425  1
  O  O430  1  0.76713180  0.75039218  0.71023034  1
  O  O431  1  0.76635975  0.75066841  0.96300007  1
  O  O432  1  0.01410950  0.08340256  0.16475075  1
  O  O433  1  0.01462520  0.08333408  0.41214331  1
  O  O434  1  0.01664887  0.08351067  0.66189076  1
  O  O435  1  0.01446332  0.08320497  0.91708978  1
  O  O436  1  0.01453994  0.41669811  0.16462096  1
  O  O437  1  0.01459565  0.41666077  0.41288432  1
  O  O438  1  0.01448591  0.41619486  0.66316878  1
  O  O439  1  0.01395853  0.41650551  0.91427794  1
  O  O440  1  0.01727657  0.75014106  0.16328942  1
  O  O441  1  0.01597362  0.74998835  0.41508838  1
  O  O442  1  0.01458338  0.75055491  0.66315307  1
  O  O443  1  0.01388751  0.75017128  0.91406272  1
  O  O444  1  0.51833600  0.08268679  0.16511044  1
  O  O445  1  0.51695127  0.08351217  0.41352308  1
  O  O446  1  0.51592451  0.08280634  0.66240062  1
  O  O447  1  0.51714909  0.08304354  0.91494979  1
  O  O448  1  0.51704476  0.41615843  0.16319345  1
  O  O449  1  0.51478927  0.41637176  0.41337333  1
  O  O450  1  0.51688917  0.41724834  0.66222363  1
  O  O451  1  0.51601564  0.41640901  0.91619531  1
  O  O452  1  0.51806837  0.75097419  0.16511130  1
  O  O453  1  0.51785118  0.75038348  0.41170451  1
  O  O454  1  0.51782415  0.74943521  0.66516147  1
  O  O455  1  0.51557599  0.75024656  0.91415316  1
  O  O456  1  0.48560710  0.24943092  0.08673243  1
  O  O457  1  0.48296070  0.24949755  0.33527264  1
  O  O458  1  0.48492745  0.25038641  0.58712558  1
  O  O459  1  0.48454875  0.25021748  0.83368863  1
  O  O460  1  0.48498003  0.58368808  0.08703617  1
  O  O461  1  0.48436496  0.58305654  0.33411786  1
  O  O462  1  0.48230249  0.58370867  0.58437442  1
  O  O463  1  0.48169156  0.58282983  0.83579080  1
  O  O464  1  0.48434674  0.91670788  0.08699396  1
  O  O465  1  0.48605027  0.91730597  0.33711819  1
  O  O466  1  0.48582560  0.91629162  0.58617228  1
  O  O467  1  0.48405877  0.91641205  0.83687390  1
  O  O468  1  0.98074586  0.25000332  0.08675763  1
  O  O469  1  0.98410308  0.25005449  0.33736137  1
  O  O470  1  0.98356741  0.24989463  0.58561468  1
  O  O471  1  0.98120073  0.24921351  0.83509645  1
  O  O472  1  0.98475951  0.58336314  0.08744734  1
  O  O473  1  0.98525753  0.58384639  0.33666575  1
  O  O474  1  0.98393757  0.58318396  0.58440369  1
  O  O475  1  0.98275821  0.58342180  0.83464653  1
  O  O476  1  0.98470736  0.91635290  0.08809380  1
  O  O477  1  0.98517852  0.91640224  0.33620833  1
  O  O478  1  0.98406344  0.91693713  0.58384944  1
  O  O479  1  0.98047629  0.91718297  0.83563871  1
  O  O480  1  0.08440464  0.31514918  0.07731021  1
  O  O481  1  0.08753005  0.31528486  0.32716054  1
  O  O482  1  0.08775962  0.31413623  0.57625524  1
  O  O483  1  0.08480900  0.31494295  0.82641274  1
  O  O484  1  0.08813056  0.64911611  0.07838700  1
  O  O485  1  0.08935984  0.64819455  0.32721081  1
  O  O486  1  0.08782072  0.64860901  0.57676958  1
  O  O487  1  0.08655749  0.64837110  0.82718270  1
  O  O488  1  0.08801794  0.98141462  0.07805032  1
  O  O489  1  0.08891958  0.98165125  0.32657199  1
  O  O490  1  0.08783583  0.98255434  0.57685215  1
  O  O491  1  0.08455997  0.98180210  0.82767693  1
  O  O492  1  0.58895666  0.31497585  0.07839731  1
  O  O493  1  0.58712318  0.31407499  0.32673996  1
  O  O494  1  0.58812932  0.31624279  0.57773729  1
  O  O495  1  0.58863746  0.31523830  0.82660356  1
  O  O496  1  0.58845395  0.64859393  0.07867622  1
  O  O497  1  0.58833066  0.64850280  0.32729441  1
  O  O498  1  0.58639962  0.64838836  0.57795291  1
  O  O499  1  0.58539596  0.64791411  0.82699719  1
  O  O500  1  0.58812308  0.98195842  0.07758611  1
  O  O501  1  0.58952025  0.98269552  0.32815500  1
  O  O502  1  0.59009207  0.98013804  0.57720139  1
  O  O503  1  0.58779709  0.98155070  0.82701648  1
  O  O504  1  0.41457643  0.01703432  0.17356152  1
  O  O505  1  0.41280765  0.01917613  0.42358784  1
  O  O506  1  0.41232024  0.01799673  0.67184666  1
  O  O507  1  0.41350849  0.01781378  0.92193138  1
  O  O508  1  0.41301930  0.35152437  0.17302172  1
  O  O509  1  0.41161617  0.35009034  0.42204217  1
  O  O510  1  0.41331155  0.35249490  0.67246262  1
  O  O511  1  0.41197074  0.35164852  0.92325454  1
  O  O512  1  0.41387515  0.68646962  0.17410841  1
  O  O513  1  0.41431056  0.68518411  0.42203948  1
  O  O514  1  0.41355107  0.68428371  0.67200140  1
  O  O515  1  0.41211575  0.68497209  0.92178460  1
  O  O516  1  0.91005160  0.01896179  0.17385498  1
  O  O517  1  0.91117100  0.01786817  0.42279963  1
  O  O518  1  0.91286697  0.01906162  0.67170103  1
  O  O519  1  0.91056516  0.01780283  0.92305069  1
  O  O520  1  0.91084289  0.35090083  0.17302803  1
  O  O521  1  0.91072778  0.35193877  0.42259250  1
  O  O522  1  0.91106608  0.35030864  0.67144020  1
  O  O523  1  0.91051849  0.35051381  0.92167305  1
  O  O524  1  0.91373315  0.68493950  0.17361839  1
  O  O525  1  0.91177296  0.68524597  0.42320005  1
  O  O526  1  0.91099510  0.68523859  0.67262388  1
  O  O527  1  0.90969793  0.68641906  0.92336090  1
  O  O528  1  0.16514848  0.01759089  0.20236031  1
  O  O529  1  0.16296081  0.01809711  0.45276644  1
  O  O530  1  0.16039578  0.01893398  0.70208450  1
  O  O531  1  0.16307357  0.01845719  0.95215078  1
  O  O532  1  0.16472407  0.35219258  0.20211655  1
  O  O533  1  0.16399946  0.35173948  0.45222189  1
  O  O534  1  0.16200745  0.35088192  0.70260651  1
  O  O535  1  0.16367179  0.35135943  0.95232665  1
  O  O536  1  0.16348226  0.68502515  0.20173866  1
  O  O537  1  0.16297999  0.68485890  0.45322731  1
  O  O538  1  0.16468669  0.68542573  0.70261966  1
  O  O539  1  0.16233182  0.68496295  0.95244162  1
  O  O540  1  0.66179090  0.01871536  0.20250848  1
  O  O541  1  0.66311568  0.01812961  0.45205537  1
  O  O542  1  0.66245214  0.01854245  0.70341414  1
  O  O543  1  0.66377500  0.01726983  0.95331786  1
  O  O544  1  0.66256390  0.35124181  0.20175950  1
  O  O545  1  0.66340945  0.35140669  0.45272617  1
  O  O546  1  0.66382251  0.35074987  0.70205155  1
  O  O547  1  0.66412894  0.35162438  0.95242511  1
  O  O548  1  0.66055895  0.68479744  0.20300639  1
  O  O549  1  0.66159132  0.68584155  0.45222738  1
  O  O550  1  0.66301748  0.68566772  0.70178500  1
  O  O551  1  0.66281044  0.68594300  0.95267828  1
  O  O552  1  0.33766446  0.31614139  0.04716599  1
  O  O553  1  0.33943194  0.31459646  0.29771642  1
  O  O554  1  0.33709866  0.31486106  0.54688719  1
  O  O555  1  0.33509393  0.31446072  0.79742637  1
  O  O556  1  0.33922048  0.64710294  0.04739163  1
  O  O557  1  0.33631174  0.64953203  0.29710342  1
  O  O558  1  0.33767475  0.64760117  0.54803972  1
  O  O559  1  0.33930369  0.64977650  0.79687584  1
  O  O560  1  0.33981245  0.98202169  0.04812271  1
  O  O561  1  0.33816838  0.98115982  0.29702221  1
  O  O562  1  0.33612419  0.98266464  0.54751502  1
  O  O563  1  0.33882725  0.98105018  0.79819598  1
  O  O564  1  0.83941921  0.31480508  0.04736202  1
  O  O565  1  0.83616603  0.31533335  0.29653952  1
  O  O566  1  0.83901118  0.31430193  0.54747204  1
  O  O567  1  0.83773343  0.31587695  0.79671009  1
  O  O568  1  0.83725237  0.64927842  0.04814973  1
  O  O569  1  0.83514256  0.64766735  0.29797202  1
  O  O570  1  0.83720231  0.64890638  0.54674150  1
  O  O571  1  0.83688387  0.64866758  0.79701383  1
  O  O572  1  0.83684219  0.98141909  0.04772968  1
  O  O573  1  0.83472001  0.98222700  0.29737625  1
  O  O574  1  0.83556822  0.98221387  0.54699956  1
  O  O575  1  0.83679311  0.98076366  0.79825982  1
  O  O576  1  0.41405351  0.14699421  0.17387088  1
  O  O577  1  0.41323834  0.14927220  0.42281626  1
  O  O578  1  0.41251533  0.14817141  0.67226411  1
  O  O579  1  0.41360894  0.14816372  0.92226132  1
  O  O580  1  0.41332968  0.48144765  0.17319254  1
  O  O581  1  0.41051037  0.48032405  0.42257033  1
  O  O582  1  0.41326452  0.48262605  0.67113072  1
  O  O583  1  0.41211316  0.48182298  0.92275691  1
  O  O584  1  0.41422131  0.81645276  0.17357307  1
  O  O585  1  0.41440266  0.81531702  0.42251111  1
  O  O586  1  0.41381218  0.81427122  0.67326398  1
  O  O587  1  0.41212063  0.81538314  0.92189638  1
  O  O588  1  0.91036383  0.14904332  0.17305769  1
  O  O589  1  0.91073557  0.14786807  0.42252932  1
  O  O590  1  0.91325920  0.14909612  0.67111927  1
  O  O591  1  0.91031956  0.14793355  0.92248598  1
  O  O592  1  0.91044136  0.48092325  0.17379852  1
  O  O593  1  0.91097362  0.48198224  0.42265647  1
  O  O594  1  0.91042558  0.48039348  0.67249159  1
  O  O595  1  0.90994855  0.48070234  0.92295422  1
  O  O596  1  0.91348642  0.81493687  0.17361814  1
  O  O597  1  0.91199296  0.81519561  0.42335891  1
  O  O598  1  0.91060437  0.81522701  0.67236703  1
  O  O599  1  0.91063527  0.81656650  0.92284524  1
  O  O600  1  0.08444581  0.18491000  0.07750777  1
  O  O601  1  0.08760786  0.18512410  0.32713246  1
  O  O602  1  0.08729007  0.18411275  0.57671361  1
  O  O603  1  0.08551366  0.18489318  0.82705776  1
  O  O604  1  0.08826739  0.51862671  0.07792565  1
  O  O605  1  0.08871806  0.51822926  0.32679433  1
  O  O606  1  0.08802490  0.51855899  0.57648755  1
  O  O607  1  0.08644015  0.51811603  0.82727200  1
  O  O608  1  0.08821460  0.85101346  0.07836771  1
  O  O609  1  0.08924518  0.85169186  0.32694949  1
  O  O610  1  0.08837000  0.85246821  0.57663333  1
  O  O611  1  0.08414767  0.85176204  0.82695161  1
  O  O612  1  0.58922882  0.18452829  0.07888589  1
  O  O613  1  0.58701028  0.18408353  0.32737195  1
  O  O614  1  0.58853053  0.18586943  0.57751267  1
  O  O615  1  0.58871557  0.18530500  0.82634273  1
  O  O616  1  0.58821185  0.51796293  0.07817303  1
  O  O617  1  0.58848263  0.51841891  0.32690390  1
  O  O618  1  0.58603599  0.51814370  0.57716700  1
  O  O619  1  0.58545264  0.51784690  0.82723793  1
  O  O620  1  0.58814976  0.85175495  0.07781509  1
  O  O621  1  0.58986314  0.85251918  0.32809197  1
  O  O622  1  0.58904345  0.84992394  0.57837808  1
  O  O623  1  0.58797060  0.85168912  0.82728332  1
  O  O624  1  0.33835968  0.18606983  0.04770733  1
  O  O625  1  0.33918511  0.18431298  0.29802545  1
  O  O626  1  0.33693212  0.18457694  0.54713877  1
  O  O627  1  0.33465796  0.18446979  0.79761369  1
  O  O628  1  0.33868000  0.51691859  0.04655656  1
  O  O629  1  0.33695016  0.51924924  0.29687714  1
  O  O630  1  0.33697438  0.51756936  0.54780408  1
  O  O631  1  0.34017298  0.51951168  0.79728639  1
  O  O632  1  0.33977627  0.85211942  0.04826722  1
  O  O633  1  0.33777608  0.85089485  0.29678275  1
  O  O634  1  0.33668704  0.85255178  0.54745513  1
  O  O635  1  0.33853087  0.85097545  0.79785743  1
  O  O636  1  0.83914559  0.18457884  0.04747686  1
  O  O637  1  0.83623020  0.18523889  0.29663067  1
  O  O638  1  0.83848724  0.18410912  0.54720925  1
  O  O639  1  0.83813713  0.18567765  0.79759091  1
  O  O640  1  0.83768090  0.51888115  0.04782266  1
  O  O641  1  0.83518098  0.51746464  0.29725793  1
  O  O642  1  0.83734486  0.51856492  0.54693855  1
  O  O643  1  0.83720045  0.51831843  0.79686959  1
  O  O644  1  0.83660469  0.85123028  0.04799465  1
  O  O645  1  0.83482832  0.85210829  0.29796077  1
  O  O646  1  0.83573254  0.85196277  0.54700075  1
  O  O647  1  0.83595085  0.85072847  0.79787208  1
  O  O648  1  0.16498513  0.14772732  0.20215345  1
  O  O649  1  0.16292380  0.14839972  0.45258229  1
  O  O650  1  0.16072616  0.14906850  0.70211592  1
  O  O651  1  0.16231274  0.14858004  0.95302730  1
  O  O652  1  0.16487869  0.48237131  0.20253012  1
  O  O653  1  0.16410612  0.48205502  0.45269588  1
  O  O654  1  0.16222407  0.48111325  0.70233185  1
  O  O655  1  0.16409298  0.48144031  0.95170540  1
  O  O656  1  0.16350279  0.81517937  0.20161333  1
  O  O657  1  0.16296703  0.81519885  0.45292431  1
  O  O658  1  0.16443334  0.81546709  0.70288745  1
  O  O659  1  0.16246574  0.81516334  0.95230580  1
  O  O660  1  0.66189940  0.14890543  0.20224101  1
  O  O661  1  0.66312011  0.14800995  0.45135041  1
  O  O662  1  0.66334515  0.14877055  0.70282798  1
  O  O663  1  0.66343381  0.14742098  0.95289434  1
  O  O664  1  0.66244945  0.48131168  0.20207852  1
  O  O665  1  0.66345931  0.48135766  0.45273681  1
  O  O666  1  0.66304099  0.48078984  0.70170227  1
  O  O667  1  0.66428774  0.48171993  0.95237665  1
  O  O668  1  0.66016604  0.81508064  0.20300281  1
  O  O669  1  0.66197901  0.81582405  0.45313472  1
  O  O670  1  0.66315143  0.81572284  0.70260397  1
  O  O671  1  0.66284642  0.81610087  0.95333505  1
