# generated using pymatgen
data_Na2MnFe(PO4)2
_symmetry_space_group_name_H-M   'P 1'
_cell_length_a   21.09216557
_cell_length_b   18.94551351
_cell_length_c   20.05034815
_cell_angle_alpha   89.99885005
_cell_angle_beta   89.99888040
_cell_angle_gamma   89.99908805
_symmetry_Int_Tables_number   1
_chemical_formula_structural   Na2MnFe(PO4)2
_chemical_formula_sum   'Na96 Mn48 Fe48 P96 O384'
_cell_volume   8012.15736657
_cell_formula_units_Z   48
loop_
 _symmetry_equiv_pos_site_id
 _symmetry_equiv_pos_as_xyz
  1  'x, y, z'
loop_
 _atom_site_type_symbol
 _atom_site_label
 _atom_site_symmetry_multiplicity
 _atom_site_fract_x
 _atom_site_fract_y
 _atom_site_fract_z
 _atom_site_occupancy
  Na  Na0  1  0.00337246  0.00012478  0.00035655  1
  Na  Na1  1  0.00097269  -0.00111890  0.25047093  1
  Na  Na2  1  0.00088861  -0.00055162  0.50013554  1
  Na  Na3  1  0.00156266  -0.00039514  0.74982203  1
  Na  Na4  1  -0.00185264  0.33362660  0.00026802  1
  Na  Na5  1  0.00040719  0.33421793  0.24884251  1
  Na  Na6  1  0.00115905  0.33515307  0.50002114  1
  Na  Na7  1  -0.00132029  0.33392582  0.75026989  1
  Na  Na8  1  0.00180368  0.66799609  -0.00029594  1
  Na  Na9  1  -0.00120035  0.66679659  0.25126167  1
  Na  Na10  1  -0.00300374  0.66562452  0.49906101  1
  Na  Na11  1  -0.00000759  0.66672083  0.74912748  1
  Na  Na12  1  0.50296810  0.00032304  0.00027662  1
  Na  Na13  1  0.50146116  -0.00056378  0.25023413  1
  Na  Na14  1  0.50098421  -0.00055541  0.50039121  1
  Na  Na15  1  0.50182832  -0.00029236  0.74971496  1
  Na  Na16  1  0.49997390  0.33417741  0.00037598  1
  Na  Na17  1  0.49864495  0.33317927  0.24861785  1
  Na  Na18  1  0.50016917  0.33387817  0.50072882  1
  Na  Na19  1  0.50028205  0.33403887  0.74964001  1
  Na  Na20  1  0.49889842  0.66564776  0.00036731  1
  Na  Na21  1  0.50276635  0.66762056  0.24988253  1
  Na  Na22  1  0.50222213  0.66684750  0.49979793  1
  Na  Na23  1  0.50069512  0.66619320  0.75078891  1
  Na  Na24  1  0.24762126  -0.00118283  0.12457013  1
  Na  Na25  1  0.25075488  -0.00075941  0.37514564  1
  Na  Na26  1  0.24932122  -0.00061317  0.62516434  1
  Na  Na27  1  0.24669444  -0.00120181  0.87545392  1
  Na  Na28  1  0.25204193  0.33486423  0.12543983  1
  Na  Na29  1  0.24960202  0.33380420  0.37614566  1
  Na  Na30  1  0.25000537  0.33440269  0.62389120  1
  Na  Na31  1  0.25028635  0.33420322  0.87452879  1
  Na  Na32  1  0.25088470  0.66700534  0.12427204  1
  Na  Na33  1  0.24982306  0.66607800  0.37413261  1
  Na  Na34  1  0.25047859  0.66653555  0.62624408  1
  Na  Na35  1  0.25140350  0.66669995  0.87492238  1
  Na  Na36  1  0.74763956  -0.00171181  0.12445947  1
  Na  Na37  1  0.74898347  -0.00053602  0.37502833  1
  Na  Na38  1  0.74762567  -0.00144568  0.62434790  1
  Na  Na39  1  0.74970272  -0.00039405  0.87566012  1
  Na  Na40  1  0.74978325  0.33403076  0.12453577  1
  Na  Na41  1  0.74752395  0.33275552  0.37488204  1
  Na  Na42  1  0.74998486  0.33412691  0.62523830  1
  Na  Na43  1  0.75051347  0.33376874  0.87528350  1
  Na  Na44  1  0.74848794  0.66613866  0.12572307  1
  Na  Na45  1  0.74985593  0.66701243  0.37564198  1
  Na  Na46  1  0.74944132  0.66633180  0.62446457  1
  Na  Na47  1  0.74781642  0.66576289  0.87456040  1
  Na  Na48  1  0.00089421  0.16627615  -0.00021514  1
  Na  Na49  1  0.00205402  0.16559483  0.25034972  1
  Na  Na50  1  -0.00127698  0.16754371  0.49968523  1
  Na  Na51  1  -0.00045028  0.16670498  0.75000212  1
  Na  Na52  1  0.00007075  0.49974743  -0.00043955  1
  Na  Na53  1  -0.00128767  0.50074266  0.24962288  1
  Na  Na54  1  0.00054969  0.49980613  0.49977060  1
  Na  Na55  1  0.00001966  0.49993785  0.75057703  1
  Na  Na56  1  0.00142593  0.83325510  0.00076366  1
  Na  Na57  1  -0.00002259  0.83333986  0.25092945  1
  Na  Na58  1  -0.00082730  0.83329191  0.49952374  1
  Na  Na59  1  0.00104115  0.83296035  0.74877151  1
  Na  Na60  1  0.50019349  0.16724274  -0.00005844  1
  Na  Na61  1  0.50078479  0.16573003  0.25003614  1
  Na  Na62  1  0.49815197  0.16744297  0.50062414  1
  Na  Na63  1  0.50234567  0.16553567  0.74937279  1
  Na  Na64  1  0.49908393  0.50062859  0.00034483  1
  Na  Na65  1  0.50076320  0.50025719  0.24983516  1
  Na  Na66  1  0.50129353  0.50001586  0.49968526  1
  Na  Na67  1  0.49854664  0.50109550  0.75048424  1
  Na  Na68  1  0.50147175  0.83318729  0.00034838  1
  Na  Na69  1  0.50168539  0.83326294  0.24914136  1
  Na  Na70  1  0.50305229  0.83271705  0.50063485  1
  Na  Na71  1  0.50250831  0.83280663  0.75029155  1
  Na  Na72  1  0.24858555  0.16724817  0.12470865  1
  Na  Na73  1  0.25285300  0.16546876  0.37493284  1
  Na  Na74  1  0.25000748  0.16680191  0.62530420  1
  Na  Na75  1  0.24945334  0.16606259  0.87524880  1
  Na  Na76  1  0.25335415  0.49954389  0.12492615  1
  Na  Na77  1  0.24989627  0.50049682  0.37498668  1
  Na  Na78  1  0.25032963  0.50012634  0.62569997  1
  Na  Na79  1  0.25142254  0.49984478  0.87389258  1
  Na  Na80  1  0.24734492  0.83403505  0.12512386  1
  Na  Na81  1  0.24884537  0.83364506  0.37506650  1
  Na  Na82  1  0.24833622  0.83403927  0.62481486  1
  Na  Na83  1  0.24914669  0.83272835  0.87526368  1
  Na  Na84  1  0.74798151  0.16765356  0.12382188  1
  Na  Na85  1  0.74875865  0.16616635  0.37542232  1
  Na  Na86  1  0.74812087  0.16746328  0.62481447  1
  Na  Na87  1  0.75033106  0.16642032  0.87581085  1
  Na  Na88  1  0.74860961  0.50017363  0.12585207  1
  Na  Na89  1  0.74769907  0.50116789  0.37467737  1
  Na  Na90  1  0.74949696  0.50033755  0.62491274  1
  Na  Na91  1  0.74909906  0.50037782  0.87389545  1
  Na  Na92  1  0.74912832  0.83337178  0.12491521  1
  Na  Na93  1  0.75018080  0.83266882  0.37545464  1
  Na  Na94  1  0.74799065  0.83388766  0.62467043  1
  Na  Na95  1  0.74877279  0.83361551  0.87571652  1
  Mn  Mn96  1  0.39258618  0.25018367  0.87702024  1
  Mn  Mn97  1  0.89156974  0.58412153  0.12660124  1
  Mn  Mn98  1  0.35717108  0.08268560  0.00233623  1
  Mn  Mn99  1  0.64238593  0.25063549  0.99698438  1
  Mn  Mn100  1  0.85713744  0.08293324  0.50232759  1
  Mn  Mn101  1  0.35752325  0.41712487  0.50194288  1
  Mn  Mn102  1  0.39277585  0.91630177  0.12678855  1
  Mn  Mn103  1  0.35809837  0.08314685  0.25161478  1
  Mn  Mn104  1  0.89162843  0.25014502  0.37656491  1
  Mn  Mn105  1  0.39239711  0.25034312  0.62796638  1
  Mn  Mn106  1  0.35777776  0.08324775  0.75250309  1
  Mn  Mn107  1  0.39308647  0.91572961  0.62733370  1
  Mn  Mn108  1  0.85718180  0.08328567  0.75216665  1
  Mn  Mn109  1  0.85850081  0.08323931  0.00260922  1
  Mn  Mn110  1  0.39336492  0.58404652  0.37758018  1
  Mn  Mn111  1  0.60754674  0.74936646  0.87306327  1
  Mn  Mn112  1  0.39231945  0.91651761  0.87740055  1
  Mn  Mn113  1  0.89294884  0.91657382  0.12716533  1
  Mn  Mn114  1  0.14209044  0.58361752  0.24751555  1
  Mn  Mn115  1  0.10663433  0.74921530  0.37320607  1
  Mn  Mn116  1  0.85736617  0.08292107  0.25170974  1
  Mn  Mn117  1  0.60863968  0.08425478  0.87234332  1
  Mn  Mn118  1  0.14299009  0.24982714  0.24803867  1
  Mn  Mn119  1  0.10751345  0.74867300  0.62175449  1
  Mn  Mn120  1  0.14342806  0.58331556  0.99791817  1
  Mn  Mn121  1  0.10830543  0.08386083  0.37308696  1
  Mn  Mn122  1  0.35829585  0.75034690  0.75214568  1
  Mn  Mn123  1  0.14205010  0.25070347  0.99725746  1
  Mn  Mn124  1  0.10824863  0.41707958  0.12240352  1
  Mn  Mn125  1  0.89188459  0.58395009  0.87742395  1
  Mn  Mn126  1  0.85696415  0.75017269  0.75229167  1
  Mn  Mn127  1  0.85792344  0.74913783  0.00199953  1
  Mn  Mn128  1  0.10799790  0.08415709  0.62204644  1
  Mn  Mn129  1  0.60713016  0.08368690  0.37243373  1
  Mn  Mn130  1  0.85726566  0.41698552  0.50153729  1
  Mn  Mn131  1  0.89204392  0.91651638  0.62711461  1
  Mn  Mn132  1  0.60716377  0.41677152  0.12236497  1
  Mn  Mn133  1  0.35853373  0.74996714  0.50195373  1
  Mn  Mn134  1  0.89168812  0.25071013  0.62740508  1
  Mn  Mn135  1  0.14147192  0.25009402  0.74798679  1
  Mn  Mn136  1  0.89218480  0.24931362  0.12787617  1
  Mn  Mn137  1  0.14264310  0.58343969  0.74780615  1
  Mn  Mn138  1  0.14248041  0.24994753  0.49732819  1
  Mn  Mn139  1  0.60775182  0.41686219  0.62323059  1
  Mn  Mn140  1  0.35821818  0.75041094  0.25208973  1
  Mn  Mn141  1  0.85667798  0.41670877  0.25259771  1
  Mn  Mn142  1  0.39227482  0.24951619  0.12730457  1
  Mn  Mn143  1  0.64122652  0.25030047  0.49713289  1
  Fe  Fe144  1  0.35697134  0.75020790  0.00215393  1
  Fe  Fe145  1  0.14235677  0.91587043  0.99777848  1
  Fe  Fe146  1  0.35729015  0.41638471  0.75209673  1
  Fe  Fe147  1  0.60798387  0.08292346  0.12336254  1
  Fe  Fe148  1  0.39335097  0.58335374  0.87704035  1
  Fe  Fe149  1  0.85708511  0.41690095  0.75191982  1
  Fe  Fe150  1  0.89218102  0.58279240  0.62644349  1
  Fe  Fe151  1  0.64131713  0.24968343  0.24816412  1
  Fe  Fe152  1  0.85663462  0.75019429  0.25152636  1
  Fe  Fe153  1  0.10706720  0.41686953  0.87311471  1
  Fe  Fe154  1  0.64271034  0.58350896  0.49828963  1
  Fe  Fe155  1  0.39319874  0.58381639  0.62611712  1
  Fe  Fe156  1  0.39297310  0.24979834  0.37646586  1
  Fe  Fe157  1  0.10786022  0.74985489  0.87331186  1
  Fe  Fe158  1  0.60680727  0.41658389  0.37275945  1
  Fe  Fe159  1  0.85678030  0.41747077  0.00094196  1
  Fe  Fe160  1  0.39375580  0.58408829  0.12697652  1
  Fe  Fe161  1  0.60823292  0.74994095  0.37268361  1
  Fe  Fe162  1  0.60730225  0.41687753  0.87311288  1
  Fe  Fe163  1  0.10672477  0.08361122  0.87304197  1
  Fe  Fe164  1  0.14216767  0.58396613  0.49857061  1
  Fe  Fe165  1  0.35774996  0.41687688  0.25263977  1
  Fe  Fe166  1  0.14308698  0.91615313  0.49794200  1
  Fe  Fe167  1  0.89335009  0.91674626  0.87649417  1
  Fe  Fe168  1  0.60752700  0.08292143  0.62304713  1
  Fe  Fe169  1  0.64275523  0.91660634  0.24851407  1
  Fe  Fe170  1  0.14218100  0.91636386  0.74831663  1
  Fe  Fe171  1  0.10805756  0.08306174  0.12344231  1
  Fe  Fe172  1  0.89212441  0.91664595  0.37667335  1
  Fe  Fe173  1  0.64291035  0.58357063  0.24826044  1
  Fe  Fe174  1  0.89241823  0.24963380  0.87617644  1
  Fe  Fe175  1  0.60796185  0.74985830  0.62333001  1
  Fe  Fe176  1  0.64281678  0.91687516  0.74841699  1
  Fe  Fe177  1  0.64319309  0.25009725  0.74874400  1
  Fe  Fe178  1  0.10738179  0.74969823  0.12365754  1
  Fe  Fe179  1  0.10694902  0.41724049  0.62385022  1
  Fe  Fe180  1  0.14243200  0.91637611  0.24910804  1
  Fe  Fe181  1  0.10710042  0.41715566  0.37301408  1
  Fe  Fe182  1  0.35781668  0.08251285  0.50177808  1
  Fe  Fe183  1  0.39320990  0.91659104  0.37675542  1
  Fe  Fe184  1  0.35779898  0.41691937  0.00097957  1
  Fe  Fe185  1  0.85583243  0.74992890  0.50163857  1
  Fe  Fe186  1  0.89166995  0.58326765  0.37703197  1
  Fe  Fe187  1  0.60791318  0.75019152  0.12278270  1
  Fe  Fe188  1  0.64197135  0.58315080  0.99824672  1
  Fe  Fe189  1  0.64261608  0.91606495  0.49751369  1
  Fe  Fe190  1  0.64312115  0.91605773  0.99797154  1
  Fe  Fe191  1  0.64220221  0.58302477  0.74765650  1
  P  P192  1  0.05368672  0.24961552  0.10995737  1
  P  P193  1  0.05326973  0.25129987  0.35976305  1
  P  P194  1  0.05304723  0.25148127  0.60989164  1
  P  P195  1  0.05186973  0.25062918  0.86030121  1
  P  P196  1  0.05322901  0.58443599  0.10982708  1
  P  P197  1  0.05274975  0.58278133  0.36117143  1
  P  P198  1  0.05242148  0.58242845  0.60945671  1
  P  P199  1  0.05368532  0.58344028  0.86023814  1
  P  P200  1  0.05588402  0.91595292  0.11124283  1
  P  P201  1  0.05400364  0.91623628  0.36099860  1
  P  P202  1  0.05519456  0.91621623  0.60991402  1
  P  P203  1  0.05428848  0.91610590  0.86058245  1
  P  P204  1  0.55457870  0.24927441  0.11074101  1
  P  P205  1  0.55208946  0.25087639  0.35941668  1
  P  P206  1  0.55473202  0.24950741  0.61140748  1
  P  P207  1  0.55410356  0.25150509  0.85913761  1
  P  P208  1  0.55453977  0.58415834  0.11069739  1
  P  P209  1  0.55580015  0.58347448  0.36069280  1
  P  P210  1  0.55431258  0.58386060  0.61060844  1
  P  P211  1  0.55427977  0.58239102  0.86081994  1
  P  P212  1  0.55613296  0.91641770  0.11076439  1
  P  P213  1  0.55425427  0.91581610  0.36055612  1
  P  P214  1  0.55609117  0.91639001  0.61078947  1
  P  P215  1  0.55524188  0.91644650  0.86046952  1
  P  P216  1  0.44843616  0.08252817  0.13973204  1
  P  P217  1  0.44590358  0.08274387  0.39044398  1
  P  P218  1  0.44697121  0.08248873  0.63913419  1
  P  P219  1  0.44725575  0.08315806  0.89026170  1
  P  P220  1  0.44444422  0.41789966  0.13920289  1
  P  P221  1  0.44691387  0.41634354  0.38888253  1
  P  P222  1  0.44575757  0.41818989  0.64030019  1
  P  P223  1  0.44647828  0.41741354  0.88923298  1
  P  P224  1  0.44724627  0.74970759  0.13865514  1
  P  P225  1  0.44890808  0.75097685  0.38977239  1
  P  P226  1  0.44874730  0.74920109  0.63992559  1
  P  P227  1  0.44609614  0.74939263  0.89096112  1
  P  P228  1  0.94868647  0.08266325  0.14023202  1
  P  P229  1  0.94638996  0.08221900  0.38989599  1
  P  P230  1  0.94665207  0.08311264  0.64012468  1
  P  P231  1  0.94758242  0.08254818  0.88958770  1
  P  P232  1  0.94507761  0.41742024  0.13885655  1
  P  P233  1  0.94718876  0.41746960  0.38960773  1
  P  P234  1  0.94643561  0.41806603  0.64042954  1
  P  P235  1  0.94550150  0.41640908  0.88922046  1
  P  P236  1  0.94718260  0.75014537  0.14087534  1
  P  P237  1  0.94326036  0.75029745  0.38913719  1
  P  P238  1  0.94467919  0.74899058  0.63827967  1
  P  P239  1  0.94800406  0.75108865  0.88956800  1
  P  P240  1  0.19647250  0.08231931  0.23465101  1
  P  P241  1  0.19827904  0.08260607  0.48494327  1
  P  P242  1  0.19495465  0.08268432  0.73609808  1
  P  P243  1  0.19431123  0.08254454  0.98551005  1
  P  P244  1  0.19710339  0.41708742  0.23608901  1
  P  P245  1  0.19454085  0.41841410  0.48571824  1
  P  P246  1  0.19591441  0.41675520  0.73540739  1
  P  P247  1  0.19787210  0.41742363  0.98410557  1
  P  P248  1  0.19594858  0.75037256  0.23469760  1
  P  P249  1  0.19676390  0.74925737  0.48494160  1
  P  P250  1  0.19535769  0.75043108  0.73600668  1
  P  P251  1  0.19612408  0.75006417  0.98565095  1
  P  P252  1  0.69574119  0.08306145  0.23438715  1
  P  P253  1  0.69485088  0.08237023  0.48589815  1
  P  P254  1  0.69610039  0.08350153  0.73446607  1
  P  P255  1  0.69582394  0.08248786  0.98611091  1
  P  P256  1  0.69442845  0.41661312  0.23616675  1
  P  P257  1  0.69530529  0.41782758  0.48418294  1
  P  P258  1  0.69651217  0.41656142  0.73640881  1
  P  P259  1  0.69661745  0.41779912  0.98416853  1
  P  P260  1  0.69578015  0.75007029  0.23593910  1
  P  P261  1  0.69519063  0.74962957  0.48579794  1
  P  P262  1  0.69553658  0.74972316  0.73477192  1
  P  P263  1  0.69534043  0.74945493  0.98619157  1
  P  P264  1  0.30338775  0.25077269  0.01477023  1
  P  P265  1  0.30446266  0.25084814  0.26582838  1
  P  P266  1  0.30517926  0.24930547  0.51384567  1
  P  P267  1  0.30305123  0.25082547  0.76502282  1
  P  P268  1  0.30627938  0.58346668  0.01397498  1
  P  P269  1  0.30523137  0.58325202  0.26387969  1
  P  P270  1  0.30284642  0.58367894  0.51568868  1
  P  P271  1  0.30599083  0.58276640  0.76425789  1
  P  P272  1  0.30198681  0.91558648  0.01489433  1
  P  P273  1  0.30295688  0.91629870  0.26531290  1
  P  P274  1  0.30401886  0.91666168  0.51390625  1
  P  P275  1  0.30201006  0.91653844  0.76522255  1
  P  P276  1  0.80500646  0.25110339  0.01364551  1
  P  P277  1  0.80085861  0.24958258  0.26473620  1
  P  P278  1  0.80256924  0.25034497  0.51496152  1
  P  P279  1  0.80266409  0.25065243  0.76548303  1
  P  P280  1  0.80135439  0.58264802  0.01477250  1
  P  P281  1  0.80246591  0.58428363  0.26537526  1
  P  P282  1  0.80359008  0.58384379  0.51418037  1
  P  P283  1  0.80292375  0.58291921  0.76354684  1
  P  P284  1  0.80398542  0.91612421  0.01386080  1
  P  P285  1  0.80251909  0.91587739  0.26505043  1
  P  P286  1  0.80296408  0.91561537  0.51363311  1
  P  P287  1  0.80239173  0.91651738  0.76560238  1
  O  O288  1  0.05712481  0.25037560  0.18670537  1
  O  O289  1  0.05638460  0.25067225  0.43656540  1
  O  O290  1  0.05595928  0.25050190  0.68662832  1
  O  O291  1  0.05548729  0.25093408  0.93695469  1
  O  O292  1  0.05594730  0.58370335  0.18659842  1
  O  O293  1  0.05769370  0.58363527  0.43774478  1
  O  O294  1  0.05665825  0.58355360  0.68608326  1
  O  O295  1  0.05710095  0.58341486  0.93693087  1
  O  O296  1  0.05923185  0.91595338  0.18803890  1
  O  O297  1  0.05930261  0.91620984  0.43765618  1
  O  O298  1  0.05927348  0.91616547  0.68668944  1
  O  O299  1  0.05856523  0.91564316  0.93734641  1
  O  O300  1  0.55829775  0.24979521  0.18751985  1
  O  O301  1  0.55538369  0.25046673  0.43615166  1
  O  O302  1  0.55935176  0.25018295  0.68805349  1
  O  O303  1  0.55681515  0.25106775  0.93590666  1
  O  O304  1  0.55930076  0.58364480  0.18737191  1
  O  O305  1  0.55927004  0.58346955  0.43747914  1
  O  O306  1  0.55867477  0.58308652  0.68738151  1
  O  O307  1  0.55865366  0.58276964  0.93752344  1
  O  O308  1  0.55980117  0.91624447  0.18759176  1
  O  O309  1  0.55879885  0.91608718  0.43724966  1
  O  O310  1  0.55983680  0.91649867  0.68760529  1
  O  O311  1  0.55944266  0.91644550  0.93725273  1
  O  O312  1  0.44411662  0.08257649  0.06310438  1
  O  O313  1  0.44333221  0.08233219  0.31361930  1
  O  O314  1  0.44179955  0.08237956  0.56251513  1
  O  O315  1  0.44391754  0.08267803  0.81344864  1
  O  O316  1  0.44079372  0.41699744  0.06244929  1
  O  O317  1  0.44244622  0.41698496  0.31210400  1
  O  O318  1  0.44291526  0.41742748  0.56375957  1
  O  O319  1  0.44186602  0.41660908  0.81259579  1
  O  O320  1  0.44190497  0.75053816  0.06213565  1
  O  O321  1  0.44484872  0.75058153  0.31311203  1
  O  O322  1  0.44502509  0.74989682  0.56329973  1
  O  O323  1  0.44347958  0.75045373  0.81397994  1
  O  O324  1  0.94463890  0.08261441  0.06353824  1
  O  O325  1  0.94331886  0.08237867  0.31312188  1
  O  O326  1  0.94310727  0.08283015  0.56336821  1
  O  O327  1  0.94374179  0.08239196  0.81292961  1
  O  O328  1  0.94044074  0.41777623  0.06212619  1
  O  O329  1  0.94313270  0.41703092  0.31292180  1
  O  O330  1  0.94275385  0.41755654  0.56375931  1
  O  O331  1  0.94049495  0.41725781  0.81253029  1
  O  O332  1  0.94336403  0.75008368  0.06413137  1
  O  O333  1  0.93954589  0.75038308  0.31235982  1
  O  O334  1  0.94003494  0.74986325  0.56157006  1
  O  O335  1  0.94373722  0.75039357  0.81290902  1
  O  O336  1  0.19065312  0.08362154  0.06230137  1
  O  O337  1  0.19385914  0.08308017  0.31143669  1
  O  O338  1  0.19443158  0.08341313  0.56164807  1
  O  O339  1  0.19025883  0.08365610  0.81285431  1
  O  O340  1  0.19412347  0.41759435  0.06084194  1
  O  O341  1  0.19158118  0.41748802  0.31270463  1
  O  O342  1  0.19052547  0.41771597  0.56253737  1
  O  O343  1  0.19062052  0.41676992  0.81206936  1
  O  O344  1  0.19146453  0.74931032  0.06225730  1
  O  O345  1  0.19238875  0.74923943  0.31145773  1
  O  O346  1  0.19400730  0.74910311  0.56167665  1
  O  O347  1  0.19129762  0.74944206  0.81275296  1
  O  O348  1  0.69163032  0.08314420  0.06281393  1
  O  O349  1  0.69290182  0.08312587  0.31120086  1
  O  O350  1  0.69100232  0.08314407  0.56262315  1
  O  O351  1  0.69407844  0.08346461  0.81130467  1
  O  O352  1  0.69284845  0.41714356  0.06092172  1
  O  O353  1  0.69056889  0.41628960  0.31292614  1
  O  O354  1  0.69278521  0.41709657  0.56119038  1
  O  O355  1  0.69196014  0.41685499  0.81302522  1
  O  O356  1  0.69192576  0.74942440  0.06313874  1
  O  O357  1  0.69175142  0.75024524  0.31268325  1
  O  O358  1  0.69107637  0.74961763  0.56251175  1
  O  O359  1  0.69285710  0.74941693  0.81127749  1
  O  O360  1  0.30701563  0.25013714  0.18897964  1
  O  O361  1  0.30952948  0.25008940  0.43710203  1
  O  O362  1  0.30619889  0.25044212  0.68823488  1
  O  O363  1  0.30638273  0.24992369  0.93803321  1
  O  O364  1  0.30966260  0.58424469  0.18716276  1
  O  O365  1  0.30716334  0.58377899  0.43893801  1
  O  O366  1  0.30997708  0.58386905  0.68757368  1
  O  O367  1  0.30961199  0.58340454  0.93713330  1
  O  O368  1  0.30695420  0.91608896  0.18864330  1
  O  O369  1  0.30931669  0.91578051  0.43728785  1
  O  O370  1  0.30647516  0.91636953  0.68855089  1
  O  O371  1  0.30594012  0.91614749  0.93824955  1
  O  O372  1  0.80516747  0.24978834  0.18804564  1
  O  O373  1  0.80595370  0.25014072  0.43818457  1
  O  O374  1  0.80591540  0.25023830  0.68874317  1
  O  O375  1  0.80959001  0.24972931  0.93686902  1
  O  O376  1  0.80605486  0.58359394  0.18868415  1
  O  O377  1  0.80811428  0.58287699  0.43748575  1
  O  O378  1  0.80787689  0.58318273  0.68690465  1
  O  O379  1  0.80534932  0.58364042  0.93809262  1
  O  O380  1  0.80643749  0.91630125  0.18832899  1
  O  O381  1  0.80775309  0.91656560  0.43705277  1
  O  O382  1  0.80630611  0.91639035  0.68885512  1
  O  O383  1  0.80939562  0.91641990  0.93729115  1
  O  O384  1  0.23379829  0.25114411  0.04015737  1
  O  O385  1  0.23490282  0.25004680  0.29130128  1
  O  O386  1  0.23509767  0.25030736  0.53802170  1
  O  O387  1  0.23344746  0.25048817  0.79025146  1
  O  O388  1  0.23635534  0.58351628  0.03867491  1
  O  O389  1  0.23516637  0.58332654  0.28787664  1
  O  O390  1  0.23272027  0.58358903  0.53988267  1
  O  O391  1  0.23587919  0.58323182  0.78829996  1
  O  O392  1  0.23184516  0.91606970  0.03900562  1
  O  O393  1  0.23271746  0.91632779  0.28935660  1
  O  O394  1  0.23356652  0.91637124  0.53727058  1
  O  O395  1  0.23191791  0.91607450  0.78935278  1
  O  O396  1  0.73486177  0.25107606  0.03728034  1
  O  O397  1  0.73073344  0.24951823  0.28900842  1
  O  O398  1  0.73281923  0.25080540  0.53969224  1
  O  O399  1  0.73268664  0.25008613  0.79032712  1
  O  O400  1  0.73143687  0.58296225  0.03953090  1
  O  O401  1  0.73224081  0.58419536  0.28947995  1
  O  O402  1  0.73317220  0.58366533  0.53773987  1
  O  O403  1  0.73245508  0.58326362  0.78696063  1
  O  O404  1  0.73356271  0.91574801  0.03713885  1
  O  O405  1  0.73226827  0.91622239  0.28917342  1
  O  O406  1  0.73260190  0.91561374  0.53720716  1
  O  O407  1  0.73212371  0.91665339  0.78946982  1
  O  O408  1  0.26607521  0.08288298  0.20912011  1
  O  O409  1  0.26823964  0.08234839  0.46032669  1
  O  O410  1  0.26494750  0.08313250  0.71191563  1
  O  O411  1  0.26429204  0.08254087  0.96110254  1
  O  O412  1  0.26753827  0.41714852  0.21291463  1
  O  O413  1  0.26458980  0.41755821  0.46171878  1
  O  O414  1  0.26637778  0.41721593  0.71223541  1
  O  O415  1  0.26803648  0.41723460  0.95996033  1
  O  O416  1  0.26577381  0.75032920  0.20999853  1
  O  O417  1  0.26626887  0.74956632  0.45920823  1
  O  O418  1  0.26538927  0.75028273  0.71167527  1
  O  O419  1  0.26649144  0.74954977  0.96194865  1
  O  O420  1  0.76531859  0.08290587  0.20872184  1
  O  O421  1  0.76466321  0.08265770  0.46123730  1
  O  O422  1  0.76556887  0.08317024  0.70851173  1
  O  O423  1  0.76579840  0.08287454  0.96183568  1
  O  O424  1  0.76428577  0.41704218  0.21153251  1
  O  O425  1  0.76487170  0.41709712  0.45892515  1
  O  O426  1  0.76667055  0.41698346  0.71211112  1
  O  O427  1  0.76665965  0.41723900  0.95975108  1
  O  O428  1  0.76608724  0.74985274  0.21178990  1
  O  O429  1  0.76548618  0.74960644  0.46190984  1
  O  O430  1  0.76520198  0.74985522  0.70922220  1
  O  O431  1  0.76504590  0.74960338  0.96109529  1
  O  O432  1  0.01873607  0.08224742  0.16451095  1
  O  O433  1  0.01606757  0.08306704  0.41513362  1
  O  O434  1  0.01639716  0.08326771  0.66480683  1
  O  O435  1  0.01771692  0.08293375  0.91404618  1
  O  O436  1  0.01520039  0.41751298  0.16264315  1
  O  O437  1  0.01716521  0.41750671  0.41413971  1
  O  O438  1  0.01653691  0.41736665  0.66490924  1
  O  O439  1  0.01601080  0.41702130  0.91261354  1
  O  O440  1  0.01719946  0.75009122  0.16532712  1
  O  O441  1  0.01335252  0.74981073  0.41340875  1
  O  O442  1  0.01476843  0.74930340  0.66207449  1
  O  O443  1  0.01812007  0.75057892  0.91382555  1
  O  O444  1  0.51844102  0.08239171  0.16414589  1
  O  O445  1  0.51560878  0.08329775  0.41564671  1
  O  O446  1  0.51737429  0.08227928  0.66248341  1
  O  O447  1  0.51700849  0.08389765  0.91493372  1
  O  O448  1  0.51456680  0.41719310  0.16318715  1
  O  O449  1  0.51713266  0.41710337  0.41297701  1
  O  O450  1  0.51565934  0.41756442  0.66527069  1
  O  O451  1  0.51674936  0.41734399  0.91329282  1
  O  O452  1  0.51770155  0.75019097  0.16204660  1
  O  O453  1  0.51903996  0.74999443  0.41398285  1
  O  O454  1  0.51871873  0.74953530  0.66465491  1
  O  O455  1  0.51569881  0.74934088  0.91584563  1
  O  O456  1  0.48469166  0.25023400  0.08620187  1
  O  O457  1  0.48212180  0.24958527  0.33465122  1
  O  O458  1  0.48470524  0.25057472  0.58743947  1
  O  O459  1  0.48456494  0.25000593  0.83370050  1
  O  O460  1  0.48417461  0.58353105  0.08723941  1
  O  O461  1  0.48588378  0.58392963  0.33606992  1
  O  O462  1  0.48412453  0.58329484  0.58647996  1
  O  O463  1  0.48386314  0.58336498  0.83733110  1
  O  O464  1  0.48615789  0.91632787  0.08631146  1
  O  O465  1  0.48394632  0.91662919  0.33667129  1
  O  O466  1  0.48606902  0.91605571  0.58649146  1
  O  O467  1  0.48519666  0.91608910  0.83631649  1
  O  O468  1  0.98396714  0.24985526  0.08500419  1
  O  O469  1  0.98372716  0.25038440  0.33423632  1
  O  O470  1  0.98345065  0.25146227  0.58456268  1
  O  O471  1  0.98185603  0.25029863  0.83544469  1
  O  O472  1  0.98375679  0.58418942  0.08409279  1
  O  O473  1  0.98233159  0.58358975  0.33758788  1
  O  O474  1  0.98226319  0.58275216  0.58528506  1
  O  O475  1  0.98394133  0.58342761  0.83518667  1
  O  O476  1  0.98595535  0.91631707  0.08648243  1
  O  O477  1  0.98352532  0.91591524  0.33782167  1
  O  O478  1  0.98503583  0.91608303  0.58614990  1
  O  O479  1  0.98402784  0.91628456  0.83631660  1
  O  O480  1  0.08763036  0.31467265  0.07716820  1
  O  O481  1  0.08703913  0.31663961  0.32762003  1
  O  O482  1  0.08727877  0.31676949  0.57827243  1
  O  O483  1  0.08555569  0.31575860  0.82758246  1
  O  O484  1  0.08740611  0.64977768  0.07810752  1
  O  O485  1  0.08630007  0.64763517  0.32762983  1
  O  O486  1  0.08628737  0.64707969  0.57574715  1
  O  O487  1  0.08761762  0.64852364  0.82767677  1
  O  O488  1  0.08997134  0.98073747  0.07832105  1
  O  O489  1  0.08736761  0.98114123  0.32753808  1
  O  O490  1  0.08885162  0.98121658  0.57686249  1
  O  O491  1  0.08784587  0.98134238  0.82783030  1
  O  O492  1  0.58846230  0.31426220  0.07779492  1
  O  O493  1  0.58555782  0.31605818  0.32674056  1
  O  O494  1  0.58837992  0.31451933  0.57816865  1
  O  O495  1  0.58766568  0.31702637  0.82699359  1
  O  O496  1  0.58768462  0.64924137  0.07744278  1
  O  O497  1  0.58982470  0.64843756  0.32785717  1
  O  O498  1  0.58779596  0.64894595  0.57769322  1
  O  O499  1  0.58803073  0.64706704  0.82740304  1
  O  O500  1  0.58987742  0.98143477  0.07792692  1
  O  O501  1  0.58808074  0.98066415  0.32735069  1
  O  O502  1  0.58958458  0.98139565  0.57761449  1
  O  O503  1  0.58879532  0.98147015  0.82737173  1
  O  O504  1  0.41468323  0.01757770  0.17262613  1
  O  O505  1  0.41213687  0.01746378  0.42300241  1
  O  O506  1  0.41373778  0.01754871  0.67268834  1
  O  O507  1  0.41368026  0.01798118  0.92302926  1
  O  O508  1  0.41042251  0.35321037  0.17251334  1
  O  O509  1  0.41386279  0.35112496  0.42179758  1
  O  O510  1  0.41127785  0.35354124  0.67336931  1
  O  O511  1  0.41294375  0.35258352  0.92284760  1
  O  O512  1  0.41446001  0.68446514  0.17209262  1
  O  O513  1  0.41489300  0.68612637  0.42275057  1
  O  O514  1  0.41491692  0.68409942  0.67228805  1
  O  O515  1  0.41188723  0.68415704  0.92262045  1
  O  O516  1  0.91467950  0.01774106  0.17286554  1
  O  O517  1  0.91272214  0.01683337  0.42224148  1
  O  O518  1  0.91284803  0.01801970  0.67277326  1
  O  O519  1  0.91436388  0.01730447  0.92265322  1
  O  O520  1  0.91169458  0.35230337  0.17200630  1
  O  O521  1  0.91348158  0.35240811  0.42244625  1
  O  O522  1  0.91206472  0.35336544  0.67337174  1
  O  O523  1  0.91239260  0.35118666  0.92215442  1
  O  O524  1  0.91291093  0.68524597  0.17341411  1
  O  O525  1  0.90929068  0.68532826  0.42193359  1
  O  O526  1  0.91146945  0.68365062  0.67113762  1
  O  O527  1  0.91410746  0.68607465  0.92259626  1
  O  O528  1  0.16239878  0.01700616  0.20288834  1
  O  O529  1  0.16413103  0.01769067  0.45257661  1
  O  O530  1  0.16176476  0.01727414  0.70352401  1
  O  O531  1  0.16049818  0.01724949  0.95328898  1
  O  O532  1  0.16418143  0.35186721  0.20271073  1
  O  O533  1  0.16050169  0.35370664  0.45235900  1
  O  O534  1  0.16274736  0.35181376  0.70184123  1
  O  O535  1  0.16369980  0.35259063  0.95136183  1
  O  O536  1  0.16189240  0.68561514  0.20148842  1
  O  O537  1  0.16259589  0.68404259  0.45270673  1
  O  O538  1  0.16189902  0.68540779  0.70266523  1
  O  O539  1  0.16258908  0.68535436  0.95179985  1
  O  O540  1  0.66149985  0.01779444  0.20244757  1
  O  O541  1  0.66133669  0.01715000  0.45326768  1
  O  O542  1  0.66148548  0.01849914  0.70251212  1
  O  O543  1  0.66242719  0.01729134  0.95337006  1
  O  O544  1  0.66100172  0.35159691  0.20302629  1
  O  O545  1  0.66034941  0.35328695  0.45173490  1
  O  O546  1  0.66344245  0.35125631  0.70333497  1
  O  O547  1  0.66237780  0.35309034  0.95120391  1
  O  O548  1  0.66206239  0.68505466  0.20293160  1
  O  O549  1  0.66186652  0.68456986  0.45260921  1
  O  O550  1  0.66127219  0.68470035  0.70208131  1
  O  O551  1  0.66157739  0.68433288  0.95362478  1
  O  O552  1  0.33780504  0.31591002  0.04646223  1
  O  O553  1  0.33843937  0.31605938  0.29802541  1
  O  O554  1  0.33898845  0.31419813  0.54687460  1
  O  O555  1  0.33711193  0.31608559  0.79706540  1
  O  O556  1  0.34009683  0.64857711  0.04688652  1
  O  O557  1  0.33861374  0.64828647  0.29733921  1
  O  O558  1  0.33689415  0.64867495  0.54848138  1
  O  O559  1  0.33992671  0.64743528  0.79780545  1
  O  O560  1  0.33584623  0.98044963  0.04796525  1
  O  O561  1  0.33689482  0.98128462  0.29795109  1
  O  O562  1  0.33708524  0.98176967  0.54723877  1
  O  O563  1  0.33539340  0.98161935  0.79825545  1
  O  O564  1  0.83805105  0.31661101  0.04606031  1
  O  O565  1  0.83452302  0.31461933  0.29765131  1
  O  O566  1  0.83660806  0.31550005  0.54721819  1
  O  O567  1  0.83659435  0.31574635  0.79781115  1
  O  O568  1  0.83531475  0.64759007  0.04773584  1
  O  O569  1  0.83626489  0.64931277  0.29786257  1
  O  O570  1  0.83687005  0.64897016  0.54714993  1
  O  O571  1  0.83602668  0.64795196  0.79723794  1
  O  O572  1  0.83686070  0.98114468  0.04771091  1
  O  O573  1  0.83646024  0.98072510  0.29808392  1
  O  O574  1  0.83612723  0.98041782  0.54756907  1
  O  O575  1  0.83628576  0.98144478  0.79840607  1
  O  O576  1  0.41473280  0.14762317  0.17248170  1
  O  O577  1  0.41143102  0.14768836  0.42255627  1
  O  O578  1  0.41392827  0.14763431  0.67251167  1
  O  O579  1  0.41287302  0.14813283  0.92236672  1
  O  O580  1  0.41143814  0.48328533  0.17207919  1
  O  O581  1  0.41329211  0.48122074  0.42220867  1
  O  O582  1  0.41209047  0.48349870  0.67255662  1
  O  O583  1  0.41300217  0.48256019  0.92218131  1
  O  O584  1  0.41400830  0.81455793  0.17248065  1
  O  O585  1  0.41560916  0.81612591  0.42269939  1
  O  O586  1  0.41482251  0.81410835  0.67299911  1
  O  O587  1  0.41176977  0.81419471  0.92374491  1
  O  O588  1  0.91500979  0.14771418  0.17300857  1
  O  O589  1  0.91183330  0.14718822  0.42197096  1
  O  O590  1  0.91262963  0.14824800  0.67239044  1
  O  O591  1  0.91372570  0.14764577  0.92214607  1
  O  O592  1  0.91154772  0.48238281  0.17208072  1
  O  O593  1  0.91329110  0.48250019  0.42228158  1
  O  O594  1  0.91278937  0.48328340  0.67309594  1
  O  O595  1  0.91189267  0.48125066  0.92288933  1
  O  O596  1  0.91317676  0.81512692  0.17355908  1
  O  O597  1  0.90992882  0.81550516  0.42219437  1
  O  O598  1  0.91129629  0.81388620  0.67189636  1
  O  O599  1  0.91450065  0.81612065  0.92241204  1
  O  O600  1  0.08753947  0.18431256  0.07796303  1
  O  O601  1  0.08799102  0.18633357  0.32780981  1
  O  O602  1  0.08722305  0.18657085  0.57704921  1
  O  O603  1  0.08578600  0.18553305  0.82784888  1
  O  O604  1  0.08778550  0.51965977  0.07732043  1
  O  O605  1  0.08581611  0.51766599  0.32777401  1
  O  O606  1  0.08621520  0.51718145  0.57723285  1
  O  O607  1  0.08763300  0.51823584  0.82781511  1
  O  O608  1  0.08930252  0.85061107  0.07829986  1
  O  O609  1  0.08737726  0.85129021  0.32753727  1
  O  O610  1  0.08885064  0.85130056  0.57672269  1
  O  O611  1  0.08783894  0.85120660  0.82717677  1
  O  O612  1  0.58790219  0.18404948  0.07807031  1
  O  O613  1  0.58673396  0.18612346  0.32689082  1
  O  O614  1  0.58750549  0.18413985  0.57824940  1
  O  O615  1  0.58942196  0.18704635  0.82685974  1
  O  O616  1  0.58791648  0.51927584  0.07697919  1
  O  O617  1  0.58922575  0.51831716  0.32769220  1
  O  O618  1  0.58819511  0.51906507  0.57729192  1
  O  O619  1  0.58724691  0.51725788  0.82730017  1
  O  O620  1  0.58994396  0.85136641  0.07780667  1
  O  O621  1  0.58758285  0.85076242  0.32731548  1
  O  O622  1  0.58986018  0.85127878  0.57793564  1
  O  O623  1  0.58907080  0.85158008  0.82762670  1
  O  O624  1  0.33719209  0.18558139  0.04749389  1
  O  O625  1  0.33928471  0.18594118  0.29780734  1
  O  O626  1  0.33807407  0.18379158  0.54669385  1
  O  O627  1  0.33730938  0.18588732  0.79743635  1
  O  O628  1  0.34006710  0.51841145  0.04664571  1
  O  O629  1  0.33878803  0.51819017  0.29684455  1
  O  O630  1  0.33690640  0.51882781  0.54835898  1
  O  O631  1  0.33934568  0.51740094  0.79695220  1
  O  O632  1  0.33551598  0.85040077  0.04766550  1
  O  O633  1  0.33672653  0.85140049  0.29848134  1
  O  O634  1  0.33712662  0.85160482  0.54767115  1
  O  O635  1  0.33599692  0.85158378  0.79798859  1
  O  O636  1  0.83824942  0.18612109  0.04731787  1
  O  O637  1  0.83465015  0.18450541  0.29727734  1
  O  O638  1  0.83632282  0.18530344  0.54761606  1
  O  O639  1  0.83692507  0.18572114  0.79818705  1
  O  O640  1  0.83504906  0.51747785  0.04711921  1
  O  O641  1  0.83618005  0.51936110  0.29860159  1
  O  O642  1  0.83696672  0.51899640  0.54788513  1
  O  O643  1  0.83605878  0.51799461  0.79697569  1
  O  O644  1  0.83715644  0.85107720  0.04729434  1
  O  O645  1  0.83609104  0.85080189  0.29777439  1
  O  O646  1  0.83603999  0.85038677  0.54678954  1
  O  O647  1  0.83599639  0.85151130  0.79858866  1
  O  O648  1  0.16183094  0.14710867  0.20215687  1
  O  O649  1  0.16472569  0.14781588  0.45207646  1
  O  O650  1  0.16138054  0.14764821  0.70272270  1
  O  O651  1  0.16056310  0.14740161  0.95205583  1
  O  O652  1  0.16394090  0.48190098  0.20218137  1
  O  O653  1  0.16146879  0.48386192  0.45282867  1
  O  O654  1  0.16240734  0.48166559  0.70193991  1
  O  O655  1  0.16420901  0.48241029  0.95117345  1
  O  O656  1  0.16186280  0.81561192  0.20283585  1
  O  O657  1  0.16221005  0.81421635  0.45287897  1
  O  O658  1  0.16165828  0.81544069  0.70340836  1
  O  O659  1  0.16278369  0.81528733  0.95260928  1
  O  O660  1  0.66126176  0.14799891  0.20212412  1
  O  O661  1  0.66103203  0.14726714  0.45276449  1
  O  O662  1  0.66174575  0.14870114  0.70258750  1
  O  O663  1  0.66225239  0.14749573  0.95293518  1
  O  O664  1  0.66084180  0.48198804  0.20363477  1
  O  O665  1  0.66139555  0.48319607  0.45251429  1
  O  O666  1  0.66275028  0.48136791  0.70299822  1
  O  O667  1  0.66284641  0.48293422  0.95165354  1
  O  O668  1  0.66240220  0.81507118  0.20270883  1
  O  O669  1  0.66178377  0.81456705  0.45231819  1
  O  O670  1  0.66133803  0.81486930  0.70246179  1
  O  O671  1  0.66138499  0.81444720  0.95369670  1
