# generated using pymatgen
data_Na2MnFe(PO4)2
_symmetry_space_group_name_H-M   'P 1'
_cell_length_a   21.08047877
_cell_length_b   18.93148191
_cell_length_c   20.03961991
_cell_angle_alpha   90.00046277
_cell_angle_beta   90.00099330
_cell_angle_gamma   90.00396598
_symmetry_Int_Tables_number   1
_chemical_formula_structural   Na2MnFe(PO4)2
_chemical_formula_sum   'Na96 Mn48 Fe48 P96 O384'
_cell_volume   7997.50573055
_cell_formula_units_Z   48
loop_
 _symmetry_equiv_pos_site_id
 _symmetry_equiv_pos_as_xyz
  1  'x, y, z'
loop_
 _atom_site_type_symbol
 _atom_site_label
 _atom_site_symmetry_multiplicity
 _atom_site_fract_x
 _atom_site_fract_y
 _atom_site_fract_z
 _atom_site_occupancy
  Na  Na0  1  0.00069676  0.00048026  -0.00016125  1
  Na  Na1  1  0.00186716  0.00021654  0.24943010  1
  Na  Na2  1  0.00007958  -0.00006350  0.50036044  1
  Na  Na3  1  -0.00177597  -0.00057447  0.74978522  1
  Na  Na4  1  -0.00124331  0.33324721  0.00010067  1
  Na  Na5  1  -0.00161354  0.33269735  0.25091240  1
  Na  Na6  1  -0.00178134  0.33278787  0.49968867  1
  Na  Na7  1  -0.00066223  0.33335281  0.74865739  1
  Na  Na8  1  0.00070013  0.66624961  0.00056953  1
  Na  Na9  1  0.00142479  0.66614874  0.25004749  1
  Na  Na10  1  0.00357961  0.66761709  0.49944780  1
  Na  Na11  1  0.00150117  0.66637851  0.75069438  1
  Na  Na12  1  0.49728037  -0.00119167  0.00079910  1
  Na  Na13  1  0.50158754  0.00080050  0.25059780  1
  Na  Na14  1  0.50102431  0.00013778  0.49968497  1
  Na  Na15  1  0.49932209  -0.00012941  0.74972792  1
  Na  Na16  1  0.50006892  0.33329337  0.00029300  1
  Na  Na17  1  0.49959285  0.33337064  0.25008142  1
  Na  Na18  1  0.49870823  0.33348986  0.49907078  1
  Na  Na19  1  0.49832779  0.33296232  0.75010863  1
  Na  Na20  1  0.50008985  0.66735699  -0.00066277  1
  Na  Na21  1  0.49757283  0.66553550  0.25066304  1
  Na  Na22  1  0.50048288  0.66650300  0.49992498  1
  Na  Na23  1  0.50014454  0.66665670  0.74941116  1
  Na  Na24  1  0.25042017  -0.00048203  0.12529259  1
  Na  Na25  1  0.24949339  0.00012594  0.37469384  1
  Na  Na26  1  0.25107357  0.00037919  0.62539689  1
  Na  Na27  1  0.25248800  -0.00005767  0.87419449  1
  Na  Na28  1  0.25145305  0.33367088  0.12433182  1
  Na  Na29  1  0.25162604  0.33372406  0.37503833  1
  Na  Na30  1  0.25126278  0.33365585  0.62608929  1
  Na  Na31  1  0.24971283  0.33289628  0.87479948  1
  Na  Na32  1  0.24993302  0.66638715  0.12618990  1
  Na  Na33  1  0.24919344  0.66605357  0.37560096  1
  Na  Na34  1  0.25026693  0.66647213  0.62399941  1
  Na  Na35  1  0.24996592  0.66636167  0.87387808  1
  Na  Na36  1  0.74800947  -0.00069503  0.12485977  1
  Na  Na37  1  0.74827467  -0.00032012  0.37457810  1
  Na  Na38  1  0.74952129  -0.00055232  0.62522387  1
  Na  Na39  1  0.75078107  0.00077210  0.87659373  1
  Na  Na40  1  0.75097992  0.33318021  0.12475031  1
  Na  Na41  1  0.75018957  0.33360040  0.37542957  1
  Na  Na42  1  0.75067371  0.33352733  0.62512140  1
  Na  Na43  1  0.75208810  0.33373282  0.87383813  1
  Na  Na44  1  0.74943080  0.66647247  0.12571103  1
  Na  Na45  1  0.74916547  0.66630235  0.37499917  1
  Na  Na46  1  0.74800603  0.66622705  0.62491020  1
  Na  Na47  1  0.74753722  0.66611420  0.87482582  1
  Na  Na48  1  -0.00255506  0.16792731  -0.00124634  1
  Na  Na49  1  -0.00026594  0.16660700  0.25133621  1
  Na  Na50  1  0.00010675  0.16625116  0.50066560  1
  Na  Na51  1  -0.00129697  0.16718984  0.74883574  1
  Na  Na52  1  0.00090963  0.49942236  0.00098471  1
  Na  Na53  1  -0.00078204  0.50049040  0.24996310  1
  Na  Na54  1  -0.00048873  0.50056465  0.49902275  1
  Na  Na55  1  0.00080891  0.49940968  0.74952254  1
  Na  Na56  1  0.00053914  0.83423366  0.00048337  1
  Na  Na57  1  0.00309987  0.83281488  0.24942479  1
  Na  Na58  1  0.00185499  0.83270735  0.49961170  1
  Na  Na59  1  -0.00009261  0.83349012  0.75093864  1
  Na  Na60  1  0.50069993  0.16645697  0.00106202  1
  Na  Na61  1  0.50193420  0.16617770  0.24897260  1
  Na  Na62  1  0.50126610  0.16656236  0.49905681  1
  Na  Na63  1  0.49803789  0.16789864  0.75064042  1
  Na  Na64  1  0.49760939  0.50059235  -0.00081571  1
  Na  Na65  1  0.49721832  0.50069793  0.25130049  1
  Na  Na66  1  0.49838452  0.50014913  0.50003240  1
  Na  Na67  1  0.50002940  0.49950037  0.74931554  1
  Na  Na68  1  0.49927248  0.83344170  0.00050536  1
  Na  Na69  1  0.49974280  0.83359430  0.25101732  1
  Na  Na70  1  0.50084248  0.83330151  0.49975271  1
  Na  Na71  1  0.49906685  0.83417104  0.74909419  1
  Na  Na72  1  0.25216726  0.16530313  0.12518099  1
  Na  Na73  1  0.24844183  0.16759057  0.37509625  1
  Na  Na74  1  0.24918563  0.16763337  0.62520167  1
  Na  Na75  1  0.25095512  0.16665946  0.87454607  1
  Na  Na76  1  0.24957904  0.50042643  0.12499151  1
  Na  Na77  1  0.25172257  0.49986316  0.37498500  1
  Na  Na78  1  0.25158566  0.49938245  0.62556357  1
  Na  Na79  1  0.24944731  0.50028587  0.87399083  1
  Na  Na80  1  0.25167733  0.83303213  0.12543735  1
  Na  Na81  1  0.24902450  0.83406070  0.37565553  1
  Na  Na82  1  0.25172271  0.83299988  0.62472964  1
  Na  Na83  1  0.25133566  0.83386712  0.87454223  1
  Na  Na84  1  0.74787610  0.16746844  0.12462522  1
  Na  Na85  1  0.74878566  0.16703144  0.37417668  1
  Na  Na86  1  0.75377615  0.16497239  0.62539463  1
  Na  Na87  1  0.75114735  0.16710251  0.87567400  1
  Na  Na88  1  0.75274066  0.49877664  0.12553702  1
  Na  Na89  1  0.75253331  0.49906697  0.37622714  1
  Na  Na90  1  0.74795701  0.50083801  0.62401334  1
  Na  Na91  1  0.74846888  0.50029670  0.87455063  1
  Na  Na92  1  0.74938663  0.83275367  0.12469367  1
  Na  Na93  1  0.74614743  0.83439755  0.37474837  1
  Na  Na94  1  0.74770309  0.83369336  0.62538582  1
  Na  Na95  1  0.74929041  0.83353762  0.87566408  1
  Mn  Mn96  1  0.85759187  0.75019191  0.50192320  1
  Mn  Mn97  1  0.10716373  0.08285493  0.62287596  1
  Mn  Mn98  1  0.39238389  0.58364070  0.87701852  1
  Mn  Mn99  1  0.10768596  0.41577792  0.12333407  1
  Mn  Mn100  1  0.64250966  0.24992211  0.49855388  1
  Mn  Mn101  1  0.89265869  0.58335389  0.12747125  1
  Mn  Mn102  1  0.64135246  0.58220733  0.99858127  1
  Mn  Mn103  1  0.10814248  0.41700012  0.62203120  1
  Mn  Mn104  1  0.35811593  0.08439069  0.50185286  1
  Mn  Mn105  1  0.64117430  0.91678503  0.99759427  1
  Mn  Mn106  1  0.14246844  0.25018555  0.24729145  1
  Mn  Mn107  1  0.60746185  0.41684390  0.37265018  1
  Mn  Mn108  1  0.60762806  0.41671169  0.87268114  1
  Mn  Mn109  1  0.64195546  0.58258044  0.24781314  1
  Mn  Mn110  1  0.85674796  0.08299954  0.25210186  1
  Mn  Mn111  1  0.10757952  0.08426049  0.87282426  1
  Mn  Mn112  1  0.60780750  0.41711297  0.12301879  1
  Mn  Mn113  1  0.89187711  0.58306400  0.87713057  1
  Mn  Mn114  1  0.39304288  0.91668717  0.37717150  1
  Mn  Mn115  1  0.10783485  0.41661549  0.37291050  1
  Mn  Mn116  1  0.14284589  0.58322409  0.74728439  1
  Mn  Mn117  1  0.85742433  0.75020988  0.75221891  1
  Mn  Mn118  1  0.35830760  0.08355389  0.75221687  1
  Mn  Mn119  1  0.60632307  0.74969227  0.12329534  1
  Mn  Mn120  1  0.85725578  0.41701998  0.75206130  1
  Mn  Mn121  1  0.35810331  0.74999852  0.00217601  1
  Mn  Mn122  1  0.89120789  0.91587344  0.62710016  1
  Mn  Mn123  1  0.10863910  0.08427640  0.12257778  1
  Mn  Mn124  1  0.14195295  0.24949406  0.99728701  1
  Mn  Mn125  1  0.60822162  0.08462154  0.62312351  1
  Mn  Mn126  1  0.39261704  0.24992533  0.37704445  1
  Mn  Mn127  1  0.35754450  0.74991054  0.50216808  1
  Mn  Mn128  1  0.64228811  0.24986937  0.74756576  1
  Mn  Mn129  1  0.60716090  0.74960150  0.62259946  1
  Mn  Mn130  1  0.10924181  0.75023185  0.12255961  1
  Mn  Mn131  1  0.89237811  0.58390878  0.62663690  1
  Mn  Mn132  1  0.10824262  0.75002434  0.87272941  1
  Mn  Mn133  1  0.35717805  0.41663773  0.00215120  1
  Mn  Mn134  1  0.60704232  0.08292524  0.87272563  1
  Mn  Mn135  1  0.89189784  0.24948268  0.37778666  1
  Mn  Mn136  1  0.85749917  0.08368798  0.00286217  1
  Mn  Mn137  1  0.14271879  0.91690568  0.74802021  1
  Mn  Mn138  1  0.89287515  0.91701349  0.12774635  1
  Mn  Mn139  1  0.85735336  0.74934741  0.00210819  1
  Mn  Mn140  1  0.85769852  0.74989299  0.25277620  1
  Mn  Mn141  1  0.89233478  0.91589681  0.37665326  1
  Mn  Mn142  1  0.14226517  0.91718387  0.49794700  1
  Mn  Mn143  1  0.39296112  0.25008386  0.12745784  1
  Fe  Fe144  1  0.35697988  0.74996105  0.25254228  1
  Fe  Fe145  1  0.35733070  0.41625688  0.50199269  1
  Fe  Fe146  1  0.10847287  0.75013173  0.62376774  1
  Fe  Fe147  1  0.39228460  0.24938816  0.87741520  1
  Fe  Fe148  1  0.14359171  0.58226963  0.49806363  1
  Fe  Fe149  1  0.14282996  0.25014177  0.74834102  1
  Fe  Fe150  1  0.14259854  0.25065621  0.49892276  1
  Fe  Fe151  1  0.85727298  0.08296414  0.50084077  1
  Fe  Fe152  1  0.39223479  0.91652152  0.12772109  1
  Fe  Fe153  1  0.64232811  0.91690921  0.74912715  1
  Fe  Fe154  1  0.64214263  0.58335126  0.49768785  1
  Fe  Fe155  1  0.60601100  0.41636882  0.62325234  1
  Fe  Fe156  1  0.39320729  0.91688372  0.62640135  1
  Fe  Fe157  1  0.64202305  0.91661107  0.49859722  1
  Fe  Fe158  1  0.89230459  0.91654416  0.87712500  1
  Fe  Fe159  1  0.85729312  0.08246976  0.75197421  1
  Fe  Fe160  1  0.35747650  0.41669093  0.25151777  1
  Fe  Fe161  1  0.64296691  0.25036342  0.24794769  1
  Fe  Fe162  1  0.64193886  0.91670967  0.24766503  1
  Fe  Fe163  1  0.85750126  0.41664564  0.25203230  1
  Fe  Fe164  1  0.39184093  0.25006970  0.62651482  1
  Fe  Fe165  1  0.35738348  0.41654656  0.75189489  1
  Fe  Fe166  1  0.64161118  0.58348852  0.74768589  1
  Fe  Fe167  1  0.60840554  0.08333011  0.37282328  1
  Fe  Fe168  1  0.39300071  0.91696815  0.87681541  1
  Fe  Fe169  1  0.60693800  0.74962147  0.37304161  1
  Fe  Fe170  1  0.89180049  0.24965479  0.12694599  1
  Fe  Fe171  1  0.89285095  0.25015139  0.62637848  1
  Fe  Fe172  1  0.35774633  0.08342084  0.25231562  1
  Fe  Fe173  1  0.64340406  0.25076226  0.99792648  1
  Fe  Fe174  1  0.89353978  0.58425281  0.37696404  1
  Fe  Fe175  1  0.14399109  0.91654257  0.99789980  1
  Fe  Fe176  1  0.10701908  0.41604759  0.87356104  1
  Fe  Fe177  1  0.14271582  0.58354027  0.99827680  1
  Fe  Fe178  1  0.35761675  0.08332378  0.00190911  1
  Fe  Fe179  1  0.10753190  0.08281252  0.37353791  1
  Fe  Fe180  1  0.60624577  0.08320341  0.12326367  1
  Fe  Fe181  1  0.35791076  0.74964239  0.75131296  1
  Fe  Fe182  1  0.85683657  0.41671169  0.50209055  1
  Fe  Fe183  1  0.85785145  0.41695256  0.00135597  1
  Fe  Fe184  1  0.10809901  0.75040480  0.37285040  1
  Fe  Fe185  1  0.39294066  0.58337738  0.62652545  1
  Fe  Fe186  1  0.89291998  0.25023023  0.87639244  1
  Fe  Fe187  1  0.60691775  0.75037571  0.87305564  1
  Fe  Fe188  1  0.14373678  0.58316404  0.24896735  1
  Fe  Fe189  1  0.14384944  0.91675667  0.24832899  1
  Fe  Fe190  1  0.39210794  0.58373487  0.37728415  1
  Fe  Fe191  1  0.39098670  0.58366744  0.12692354  1
  P  P192  1  0.05162547  0.24991156  0.10975626  1
  P  P193  1  0.05472666  0.24941498  0.36151842  1
  P  P194  1  0.05385161  0.25011306  0.61036270  1
  P  P195  1  0.05261912  0.25088956  0.85895757  1
  P  P196  1  0.05590876  0.58298772  0.11090329  1
  P  P197  1  0.05491978  0.58355519  0.36053877  1
  P  P198  1  0.05462383  0.58392798  0.60900679  1
  P  P199  1  0.05469383  0.58211200  0.86115020  1
  P  P200  1  0.05624141  0.91722433  0.11012795  1
  P  P201  1  0.05457383  0.91692030  0.35927965  1
  P  P202  1  0.05311561  0.91582247  0.61023856  1
  P  P203  1  0.05341995  0.91726175  0.86113129  1
  P  P204  1  0.55565420  0.24983910  0.11056818  1
  P  P205  1  0.55458117  0.24964584  0.35919035  1
  P  P206  1  0.55143958  0.25114775  0.61006913  1
  P  P207  1  0.55298026  0.25000215  0.86115732  1
  P  P208  1  0.55053825  0.58302950  0.11029387  1
  P  P209  1  0.55296068  0.58368624  0.36126818  1
  P  P210  1  0.55362811  0.58220834  0.61026909  1
  P  P211  1  0.55373193  0.58392070  0.85920934  1
  P  P212  1  0.55252665  0.91712292  0.11149987  1
  P  P213  1  0.55580248  0.91653283  0.36087146  1
  P  P214  1  0.55397865  0.91710147  0.61071871  1
  P  P215  1  0.55223771  0.91625775  0.85952497  1
  P  P216  1  0.44563807  0.08261337  0.13978739  1
  P  P217  1  0.44760906  0.08336119  0.38867890  1
  P  P218  1  0.44690032  0.08379884  0.63963021  1
  P  P219  1  0.44578567  0.08336257  0.89089349  1
  P  P220  1  0.44585356  0.41747162  0.14068420  1
  P  P221  1  0.44429096  0.41740606  0.38957598  1
  P  P222  1  0.44513878  0.41663944  0.63901184  1
  P  P223  1  0.44515895  0.41584397  0.88881398  1
  P  P224  1  0.44497924  0.75003050  0.14108036  1
  P  P225  1  0.44635785  0.74956758  0.38910570  1
  P  P226  1  0.44583246  0.74983750  0.63980932  1
  P  P227  1  0.44675075  0.75089364  0.88847258  1
  P  P228  1  0.94680710  0.08430998  0.14035648  1
  P  P229  1  0.94729019  0.08259202  0.39041599  1
  P  P230  1  0.94402186  0.08361672  0.63914842  1
  P  P231  1  0.94494771  0.08337387  0.88849008  1
  P  P232  1  0.94479430  0.41563005  0.13987558  1
  P  P233  1  0.94460779  0.41760957  0.38949716  1
  P  P234  1  0.94534917  0.41664222  0.63838986  1
  P  P235  1  0.94712181  0.41606113  0.89010255  1
  P  P236  1  0.94736114  0.75007456  0.14041241  1
  P  P237  1  0.94848763  0.74945634  0.38972488  1
  P  P238  1  0.94838516  0.74959615  0.64019799  1
  P  P239  1  0.94677381  0.75039172  0.89037228  1
  P  P240  1  0.19715475  0.08276756  0.23620315  1
  P  P241  1  0.19612136  0.08437287  0.48469609  1
  P  P242  1  0.19666223  0.08426066  0.73514162  1
  P  P243  1  0.19843600  0.08224025  0.98468306  1
  P  P244  1  0.19815689  0.41730235  0.23530514  1
  P  P245  1  0.19811002  0.41657424  0.48525599  1
  P  P246  1  0.19648497  0.41559984  0.73627740  1
  P  P247  1  0.19577466  0.41721400  0.98431986  1
  P  P248  1  0.19685810  0.75003260  0.23684328  1
  P  P249  1  0.19499373  0.74924450  0.48567068  1
  P  P250  1  0.19801037  0.75025972  0.73420703  1
  P  P251  1  0.19733431  0.75021758  0.98490511  1
  P  P252  1  0.69415615  0.08338661  0.23515273  1
  P  P253  1  0.69722518  0.08310042  0.48474480  1
  P  P254  1  0.69778089  0.08267952  0.73570301  1
  P  P255  1  0.69475575  0.08440867  0.98639554  1
  P  P256  1  0.69799266  0.41625359  0.23526034  1
  P  P257  1  0.69595382  0.41698438  0.48646630  1
  P  P258  1  0.69530642  0.41711448  0.73387892  1
  P  P259  1  0.69805462  0.41566953  0.98494325  1
  P  P260  1  0.69496417  0.75014722  0.23602162  1
  P  P261  1  0.69522518  0.74973872  0.48443010  1
  P  P262  1  0.69468492  0.75051864  0.73631340  1
  P  P263  1  0.69498057  0.74962140  0.98454153  1
  P  P264  1  0.30436920  0.24901023  0.01397262  1
  P  P265  1  0.30383510  0.24978066  0.26486423  1
  P  P266  1  0.30267555  0.25070535  0.51544114  1
  P  P267  1  0.30439101  0.25070751  0.76457959  1
  P  P268  1  0.30243252  0.58352444  0.01530880  1
  P  P269  1  0.30432106  0.58356559  0.26478484  1
  P  P270  1  0.30430738  0.58255302  0.51442533  1
  P  P271  1  0.30528301  0.58335950  0.76312765  1
  P  P272  1  0.30481288  0.91736020  0.01457944  1
  P  P273  1  0.30411293  0.91667037  0.26427714  1
  P  P274  1  0.30430103  0.91722591  0.51544772  1
  P  P275  1  0.30591869  0.91576595  0.76404767  1
  P  P276  1  0.80445950  0.25105704  0.01426138  1
  P  P277  1  0.80324212  0.25027049  0.26393416  1
  P  P278  1  0.80407445  0.24976126  0.51538200  1
  P  P279  1  0.80530234  0.24913422  0.76418241  1
  P  P280  1  0.80297330  0.58251911  0.01514603  1
  P  P281  1  0.80419649  0.58266018  0.26615711  1
  P  P282  1  0.80311793  0.58350141  0.51377362  1
  P  P283  1  0.80141057  0.58354149  0.76456859  1
  P  P284  1  0.80403835  0.91645462  0.01460426  1
  P  P285  1  0.80144084  0.91660532  0.26492488  1
  P  P286  1  0.80155640  0.91681335  0.51443389  1
  P  P287  1  0.80238076  0.91704210  0.76596348  1
  O  O288  1  0.05604899  0.24981352  0.18649746  1
  O  O289  1  0.05900809  0.25050626  0.43825798  1
  O  O290  1  0.05875857  0.25044160  0.68702175  1
  O  O291  1  0.05627949  0.25000066  0.93572658  1
  O  O292  1  0.06052850  0.58298219  0.18769016  1
  O  O293  1  0.05976688  0.58240292  0.43722601  1
  O  O294  1  0.05757699  0.58260109  0.68587892  1
  O  O295  1  0.05868374  0.58305697  0.93793020  1
  O  O296  1  0.06103244  0.91692508  0.18691110  1
  O  O297  1  0.05703730  0.91697883  0.43611853  1
  O  O298  1  0.05635849  0.91667246  0.68700001  1
  O  O299  1  0.05898106  0.91738365  0.93775854  1
  O  O300  1  0.55959111  0.25103989  0.18735441  1
  O  O301  1  0.55743972  0.25043435  0.43601709  1
  O  O302  1  0.55544513  0.25042234  0.68676398  1
  O  O303  1  0.55836328  0.25046684  0.93777542  1
  O  O304  1  0.55478456  0.58248096  0.18698656  1
  O  O305  1  0.55802867  0.58282105  0.43795820  1
  O  O306  1  0.55815298  0.58295084  0.68697414  1
  O  O307  1  0.55628594  0.58295874  0.93606347  1
  O  O308  1  0.55735780  0.91673587  0.18816894  1
  O  O309  1  0.55931252  0.91686111  0.43776494  1
  O  O310  1  0.55864929  0.91730478  0.68738097  1
  O  O311  1  0.55545386  0.91674036  0.93631450  1
  O  O312  1  0.44111310  0.08314801  0.06308905  1
  O  O313  1  0.44226880  0.08349403  0.31202389  1
  O  O314  1  0.44446869  0.08385415  0.56282903  1
  O  O315  1  0.44333985  0.08380542  0.81404976  1
  O  O316  1  0.44285831  0.41673522  0.06385235  1
  O  O317  1  0.44013539  0.41663934  0.31280730  1
  O  O318  1  0.44099605  0.41637017  0.56221408  1
  O  O319  1  0.44133228  0.41632015  0.81201953  1
  O  O320  1  0.44283467  0.75001151  0.06417907  1
  O  O321  1  0.44130924  0.75001563  0.31245502  1
  O  O322  1  0.44339427  0.74970815  0.56299753  1
  O  O323  1  0.44235434  0.75005301  0.81183012  1
  O  O324  1  0.94341314  0.08364189  0.06354167  1
  O  O325  1  0.94303163  0.08275105  0.31372773  1
  O  O326  1  0.94005878  0.08255742  0.56234680  1
  O  O327  1  0.94143137  0.08279255  0.81168735  1
  O  O328  1  0.94112248  0.41658225  0.06307698  1
  O  O329  1  0.94084578  0.41666161  0.31267041  1
  O  O330  1  0.94079324  0.41736227  0.56162453  1
  O  O331  1  0.94347015  0.41714275  0.81333689  1
  O  O332  1  0.94353731  0.75011427  0.06367119  1
  O  O333  1  0.94432481  0.74992305  0.31307054  1
  O  O334  1  0.94420687  0.74970511  0.56348802  1
  O  O335  1  0.94354767  0.74967877  0.81353838  1
  O  O336  1  0.19491605  0.08325726  0.06142701  1
  O  O337  1  0.19195669  0.08349232  0.31280583  1
  O  O338  1  0.19304243  0.08341356  0.56149108  1
  O  O339  1  0.19359199  0.08342609  0.81190166  1
  O  O340  1  0.19317577  0.41600530  0.06115201  1
  O  O341  1  0.19437200  0.41666570  0.31197608  1
  O  O342  1  0.19469801  0.41669710  0.56198385  1
  O  O343  1  0.19146333  0.41600759  0.81286529  1
  O  O344  1  0.19505762  0.75025277  0.06174188  1
  O  O345  1  0.19241700  0.75021434  0.31358298  1
  O  O346  1  0.19151174  0.75024006  0.56245645  1
  O  O347  1  0.19396109  0.75038836  0.81094869  1
  O  O348  1  0.69022384  0.08313858  0.06311796  1
  O  O349  1  0.69111823  0.08339080  0.31206017  1
  O  O350  1  0.69391325  0.08377202  0.56153344  1
  O  O351  1  0.69389638  0.08379386  0.81239884  1
  O  O352  1  0.69431941  0.41636364  0.06164305  1
  O  O353  1  0.69397923  0.41697063  0.31196133  1
  O  O354  1  0.69060278  0.41651300  0.56304396  1
  O  O355  1  0.69256392  0.41613829  0.81072199  1
  O  O356  1  0.69172863  0.74982967  0.06139108  1
  O  O357  1  0.69068755  0.74937102  0.31276049  1
  O  O358  1  0.69240851  0.74949365  0.56133607  1
  O  O359  1  0.69087841  0.75046311  0.81304441  1
  O  O360  1  0.30686571  0.24951552  0.18807316  1
  O  O361  1  0.30666879  0.24978143  0.43877104  1
  O  O362  1  0.30885839  0.25000541  0.68782813  1
  O  O363  1  0.30822160  0.24959553  0.93718836  1
  O  O364  1  0.30804183  0.58359673  0.18800450  1
  O  O365  1  0.30853748  0.58371007  0.43765217  1
  O  O366  1  0.30909826  0.58338103  0.68636403  1
  O  O367  1  0.30649732  0.58361301  0.93857381  1
  O  O368  1  0.30827661  0.91671844  0.18752051  1
  O  O369  1  0.30741742  0.91706100  0.43862870  1
  O  O370  1  0.30996350  0.91683251  0.68727991  1
  O  O371  1  0.30938352  0.91657480  0.93782307  1
  O  O372  1  0.80755294  0.24943454  0.18724616  1
  O  O373  1  0.80607021  0.24991127  0.43847052  1
  O  O374  1  0.80929398  0.25008925  0.68742658  1
  O  O375  1  0.80913103  0.25039314  0.93753765  1
  O  O376  1  0.80722229  0.58381135  0.18933737  1
  O  O377  1  0.80871004  0.58433132  0.43722643  1
  O  O378  1  0.80572867  0.58366660  0.68788780  1
  O  O379  1  0.80570569  0.58333280  0.93834788  1
  O  O380  1  0.80586656  0.91640905  0.18824434  1
  O  O381  1  0.80551023  0.91607424  0.43779391  1
  O  O382  1  0.80572615  0.91607448  0.68915129  1
  O  O383  1  0.80878926  0.91662521  0.93785267  1
  O  O384  1  0.23446805  0.24952018  0.03861236  1
  O  O385  1  0.23418246  0.25024032  0.29009709  1
  O  O386  1  0.23253884  0.25057926  0.53982175  1
  O  O387  1  0.23401471  0.24994150  0.78833609  1
  O  O388  1  0.23236333  0.58341153  0.03960441  1
  O  O389  1  0.23401971  0.58349595  0.28902657  1
  O  O390  1  0.23399206  0.58284703  0.53828259  1
  O  O391  1  0.23531834  0.58330285  0.78759279  1
  O  O392  1  0.23455320  0.91641648  0.03852760  1
  O  O393  1  0.23390569  0.91680833  0.28850963  1
  O  O394  1  0.23449477  0.91698961  0.54023258  1
  O  O395  1  0.23585587  0.91682622  0.78825267  1
  O  O396  1  0.73412539  0.25027193  0.03801302  1
  O  O397  1  0.73301606  0.25014097  0.28809116  1
  O  O398  1  0.73453728  0.24950847  0.54125825  1
  O  O399  1  0.73521349  0.25029557  0.78839412  1
  O  O400  1  0.73344335  0.58239669  0.04095578  1
  O  O401  1  0.73436659  0.58270415  0.29104786  1
  O  O402  1  0.73254562  0.58366413  0.53697144  1
  O  O403  1  0.73119369  0.58323120  0.78854067  1
  O  O404  1  0.73380030  0.91621237  0.03810883  1
  O  O405  1  0.73122245  0.91715468  0.28874454  1
  O  O406  1  0.73144121  0.91638315  0.53907305  1
  O  O407  1  0.73234824  0.91705672  0.79078054  1
  O  O408  1  0.26756504  0.08273023  0.21260758  1
  O  O409  1  0.26591307  0.08385693  0.45965667  1
  O  O410  1  0.26640384  0.08417393  0.71009484  1
  O  O411  1  0.26834747  0.08291515  0.95979814  1
  O  O412  1  0.26818679  0.41710664  0.21063237  1
  O  O413  1  0.26810521  0.41656964  0.46046483  1
  O  O414  1  0.26687626  0.41636152  0.71266054  1
  O  O415  1  0.26546870  0.41670060  0.95906272  1
  O  O416  1  0.26709063  0.74968578  0.21272061  1
  O  O417  1  0.26502814  0.74999640  0.46125488  1
  O  O418  1  0.26811985  0.74972989  0.70998876  1
  O  O419  1  0.26682288  0.75007009  0.95904724  1
  O  O420  1  0.76403252  0.08323506  0.21024770  1
  O  O421  1  0.76724634  0.08368855  0.45979055  1
  O  O422  1  0.76776545  0.08235553  0.71107131  1
  O  O423  1  0.76487509  0.08440252  0.96260056  1
  O  O424  1  0.76806397  0.41644945  0.21090919  1
  O  O425  1  0.76646090  0.41638260  0.46312362  1
  O  O426  1  0.76511754  0.41703043  0.70901570  1
  O  O427  1  0.76793633  0.41652337  0.95989303  1
  O  O428  1  0.76494427  0.74971420  0.21169138  1
  O  O429  1  0.76493196  0.75011109  0.45918360  1
  O  O430  1  0.76448595  0.75019061  0.71121838  1
  O  O431  1  0.76476836  0.74969047  0.95974651  1
  O  O432  1  0.01653223  0.08396266  0.16528113  1
  O  O433  1  0.01746195  0.08282306  0.41457535  1
  O  O434  1  0.01412485  0.08308168  0.66331220  1
  O  O435  1  0.01478803  0.08411080  0.91348466  1
  O  O436  1  0.01477270  0.41631215  0.16452600  1
  O  O437  1  0.01472367  0.41677868  0.41362948  1
  O  O438  1  0.01546776  0.41680517  0.66227333  1
  O  O439  1  0.01713510  0.41605431  0.91482086  1
  O  O440  1  0.01732689  0.74969710  0.16470505  1
  O  O441  1  0.01874985  0.75013404  0.41365499  1
  O  O442  1  0.01842098  0.74969855  0.66480492  1
  O  O443  1  0.01650140  0.75036006  0.91547954  1
  O  O444  1  0.51609408  0.08341163  0.16324966  1
  O  O445  1  0.51805058  0.08315557  0.41200219  1
  O  O446  1  0.51633098  0.08406716  0.66572435  1
  O  O447  1  0.51535595  0.08283726  0.91642505  1
  O  O448  1  0.51553291  0.41692427  0.16596441  1
  O  O449  1  0.51444662  0.41686385  0.41339802  1
  O  O450  1  0.51542821  0.41665757  0.66315268  1
  O  O451  1  0.51503978  0.41667988  0.91349252  1
  O  O452  1  0.51451487  0.74987951  0.16676985  1
  O  O453  1  0.51663820  0.74993401  0.41288021  1
  O  O454  1  0.51556862  0.74998321  0.66499711  1
  O  O455  1  0.51683369  0.75060476  0.91298939  1
  O  O456  1  0.48546412  0.25021134  0.08670491  1
  O  O457  1  0.48481783  0.24983560  0.33416183  1
  O  O458  1  0.48144630  0.25058870  0.58531892  1
  O  O459  1  0.48254146  0.24977584  0.83780509  1
  O  O460  1  0.48051426  0.58371692  0.08570823  1
  O  O461  1  0.48248564  0.58332045  0.33800045  1
  O  O462  1  0.48314057  0.58312660  0.58680228  1
  O  O463  1  0.48403703  0.58312603  0.83401859  1
  O  O464  1  0.48215078  0.91634434  0.08787342  1
  O  O465  1  0.48575670  0.91686803  0.33651797  1
  O  O466  1  0.48360917  0.91658656  0.58690493  1
  O  O467  1  0.48220947  0.91716764  0.83490954  1
  O  O468  1  0.98160242  0.25014363  0.08548085  1
  O  O469  1  0.98455882  0.24970380  0.33756417  1
  O  O470  1  0.98340623  0.24976343  0.58692628  1
  O  O471  1  0.98250731  0.25038765  0.83458177  1
  O  O472  1  0.98568826  0.58314009  0.08733458  1
  O  O473  1  0.98450121  0.58329635  0.33697850  1
  O  O474  1  0.98493060  0.58374455  0.58389182  1
  O  O475  1  0.98480572  0.58261116  0.83638865  1
  O  O476  1  0.98597488  0.91733614  0.08676661  1
  O  O477  1  0.98494318  0.91648759  0.33368939  1
  O  O478  1  0.98346225  0.91613386  0.58494184  1
  O  O479  1  0.98297356  0.91673669  0.83772861  1
  O  O480  1  0.08555757  0.31493173  0.07711169  1
  O  O481  1  0.08806553  0.31438669  0.32784853  1
  O  O482  1  0.08705717  0.31508854  0.57655853  1
  O  O483  1  0.08642927  0.31612471  0.82648529  1
  O  O484  1  0.08960294  0.64787364  0.07751261  1
  O  O485  1  0.08841389  0.64877389  0.32765981  1
  O  O486  1  0.08903656  0.64914344  0.57747189  1
  O  O487  1  0.08878756  0.64697711  0.82799294  1
  O  O488  1  0.08974265  0.98222605  0.07683992  1
  O  O489  1  0.08874711  0.98219159  0.32708467  1
  O  O490  1  0.08730917  0.98081298  0.57753311  1
  O  O491  1  0.08626583  0.98242925  0.82742213  1
  O  O492  1  0.58942097  0.31460112  0.07693189  1
  O  O493  1  0.58879751  0.31466332  0.32650912  1
  O  O494  1  0.58503234  0.31628651  0.57730475  1
  O  O495  1  0.58610767  0.31488771  0.82731584  1
  O  O496  1  0.58468193  0.64799857  0.07787176  1
  O  O497  1  0.58592079  0.64883851  0.32798677  1
  O  O498  1  0.58743908  0.64702535  0.57682191  1
  O  O499  1  0.58742949  0.64937261  0.82711835  1
  O  O500  1  0.58541929  0.98233914  0.07805219  1
  O  O501  1  0.58966960  0.98142844  0.32784102  1
  O  O502  1  0.58731624  0.98211526  0.57730555  1
  O  O503  1  0.58663132  0.98108120  0.82671660  1
  O  O504  1  0.41263230  0.01746275  0.17323722  1
  O  O505  1  0.41423878  0.01850854  0.42215401  1
  O  O506  1  0.41275724  0.01853847  0.67172029  1
  O  O507  1  0.41122407  0.01818937  0.92272953  1
  O  O508  1  0.41139525  0.35252248  0.17326882  1
  O  O509  1  0.41051171  0.35249044  0.42294466  1
  O  O510  1  0.41152626  0.35170403  0.67232974  1
  O  O511  1  0.41181090  0.35064633  0.92174225  1
  O  O512  1  0.41041165  0.68500521  0.17311614  1
  O  O513  1  0.41305023  0.68449295  0.42235164  1
  O  O514  1  0.41180615  0.68467852  0.67222253  1
  O  O515  1  0.41317550  0.68596289  0.92199403  1
  O  O516  1  0.91269962  0.01929367  0.17306433  1
  O  O517  1  0.91345562  0.01750576  0.42322351  1
  O  O518  1  0.91003902  0.01887143  0.67263656  1
  O  O519  1  0.91143895  0.01840145  0.92181738  1
  O  O520  1  0.91130297  0.35022787  0.17248681  1
  O  O521  1  0.91036170  0.35290203  0.42270532  1
  O  O522  1  0.91202434  0.35132482  0.67113557  1
  O  O523  1  0.91308870  0.35076932  0.92223462  1
  O  O524  1  0.91338492  0.68504199  0.17303833  1
  O  O525  1  0.91522852  0.68422981  0.42277401  1
  O  O526  1  0.91460264  0.68453144  0.67304866  1
  O  O527  1  0.91288788  0.68509234  0.92281441  1
  O  O528  1  0.16392643  0.01767745  0.20300489  1
  O  O529  1  0.16173684  0.01949120  0.45187282  1
  O  O530  1  0.16268432  0.01922965  0.70243402  1
  O  O531  1  0.16489805  0.01688382  0.95229263  1
  O  O532  1  0.16430162  0.35231763  0.20221301  1
  O  O533  1  0.16409185  0.35155338  0.45269118  1
  O  O534  1  0.16362681  0.35031420  0.70284716  1
  O  O535  1  0.16116415  0.35244030  0.95155467  1
  O  O536  1  0.16335740  0.68491214  0.20388207  1
  O  O537  1  0.16178192  0.68375237  0.45309561  1
  O  O538  1  0.16375407  0.68540397  0.70149546  1
  O  O539  1  0.16295316  0.68507018  0.95292785  1
  O  O540  1  0.65999315  0.01834326  0.20247816  1
  O  O541  1  0.66326222  0.01795227  0.45243073  1
  O  O542  1  0.66363632  0.01760204  0.70349645  1
  O  O543  1  0.66144527  0.01937213  0.95285131  1
  O  O544  1  0.66430315  0.35119838  0.20256937  1
  O  O545  1  0.66274322  0.35194033  0.45290780  1
  O  O546  1  0.66104441  0.35211078  0.70118770  1
  O  O547  1  0.66454372  0.35037207  0.95217837  1
  O  O548  1  0.66124165  0.68508929  0.20291589  1
  O  O549  1  0.66094589  0.68465786  0.45198708  1
  O  O550  1  0.66067068  0.68553141  0.70331974  1
  O  O551  1  0.66072264  0.68456283  0.95230483  1
  O  O552  1  0.33837056  0.31392404  0.04691310  1
  O  O553  1  0.33807388  0.31494789  0.29691861  1
  O  O554  1  0.33655706  0.31579157  0.54807450  1
  O  O555  1  0.33759475  0.31591292  0.79764441  1
  O  O556  1  0.33626271  0.64850162  0.04828880  1
  O  O557  1  0.33778957  0.64862574  0.29820258  1
  O  O558  1  0.33803016  0.64737919  0.54786522  1
  O  O559  1  0.33869333  0.64861514  0.79614634  1
  O  O560  1  0.33785862  0.98269824  0.04772975  1
  O  O561  1  0.33777319  0.98167001  0.29736900  1
  O  O562  1  0.33845973  0.98226928  0.54780162  1
  O  O563  1  0.34010997  0.98043554  0.79745707  1
  O  O564  1  0.83760702  0.31636955  0.04721609  1
  O  O565  1  0.83682090  0.31530170  0.29690948  1
  O  O566  1  0.83848759  0.31483400  0.54756004  1
  O  O567  1  0.83962283  0.31383692  0.79740989  1
  O  O568  1  0.83711997  0.64749853  0.04785112  1
  O  O569  1  0.83852607  0.64753270  0.29914131  1
  O  O570  1  0.83607786  0.64856211  0.54769520  1
  O  O571  1  0.83501926  0.64849286  0.79766711  1
  O  O572  1  0.83713096  0.98172440  0.04787732  1
  O  O573  1  0.83525847  0.98158140  0.29777858  1
  O  O574  1  0.83508097  0.98210863  0.54686211  1
  O  O575  1  0.83659564  0.98212244  0.79823052  1
  O  O576  1  0.41212449  0.14756570  0.17330190  1
  O  O577  1  0.41453988  0.14846867  0.42220291  1
  O  O578  1  0.41232063  0.14876869  0.67179886  1
  O  O579  1  0.41162007  0.14839851  0.92343638  1
  O  O580  1  0.41166239  0.48260336  0.17282360  1
  O  O581  1  0.41084478  0.48251473  0.42258172  1
  O  O582  1  0.41171640  0.48188760  0.67195968  1
  O  O583  1  0.41110118  0.48082274  0.92161496  1
  O  O584  1  0.41067052  0.81516675  0.17331089  1
  O  O585  1  0.41304524  0.81460060  0.42250503  1
  O  O586  1  0.41160391  0.81486046  0.67207080  1
  O  O587  1  0.41334979  0.81610752  0.92143151  1
  O  O588  1  0.91276862  0.14952100  0.17255326  1
  O  O589  1  0.91326910  0.14752437  0.42337234  1
  O  O590  1  0.91078700  0.14906420  0.67174809  1
  O  O591  1  0.91097125  0.14875743  0.92067927  1
  O  O592  1  0.91068151  0.48040143  0.17309520  1
  O  O593  1  0.91134221  0.48306552  0.42214277  1
  O  O594  1  0.91200449  0.48160473  0.67197802  1
  O  O595  1  0.91308402  0.48081876  0.92341336  1
  O  O596  1  0.91380829  0.81523970  0.17330809  1
  O  O597  1  0.91454976  0.81438100  0.42274365  1
  O  O598  1  0.91423585  0.81459539  0.67283556  1
  O  O599  1  0.91259543  0.81554025  0.92243145  1
  O  O600  1  0.08535848  0.18495145  0.07658985  1
  O  O601  1  0.08796621  0.18402941  0.32875071  1
  O  O602  1  0.08742037  0.18516066  0.57718123  1
  O  O603  1  0.08681808  0.18606500  0.82594970  1
  O  O604  1  0.08917560  0.51790033  0.07766613  1
  O  O605  1  0.08835670  0.51866857  0.32670888  1
  O  O606  1  0.08898516  0.51907699  0.57599549  1
  O  O607  1  0.08809616  0.51672812  0.82844974  1
  O  O608  1  0.08976648  0.85219757  0.07680258  1
  O  O609  1  0.08935239  0.85197321  0.32715118  1
  O  O610  1  0.08732640  0.85070604  0.57818069  1
  O  O611  1  0.08702731  0.85233289  0.82773183  1
  O  O612  1  0.58884379  0.18439265  0.07800329  1
  O  O613  1  0.58879876  0.18455962  0.32713333  1
  O  O614  1  0.58574002  0.18623469  0.57739343  1
  O  O615  1  0.58610375  0.18485372  0.82766121  1
  O  O616  1  0.58413522  0.51792177  0.07718738  1
  O  O617  1  0.58611004  0.51871727  0.32746633  1
  O  O618  1  0.58651740  0.51695363  0.57696260  1
  O  O619  1  0.58841243  0.51923306  0.82654320  1
  O  O620  1  0.58602803  0.85221993  0.07808121  1
  O  O621  1  0.58904399  0.85116154  0.32803647  1
  O  O622  1  0.58754586  0.85209136  0.57742645  1
  O  O623  1  0.58596241  0.85119468  0.82683997  1
  O  O624  1  0.33797161  0.18380432  0.04669171  1
  O  O625  1  0.33768748  0.18459694  0.29756226  1
  O  O626  1  0.33662109  0.18581315  0.54859742  1
  O  O627  1  0.33829938  0.18587693  0.79796754  1
  O  O628  1  0.33640067  0.51858863  0.04817865  1
  O  O629  1  0.33794025  0.51850690  0.29772137  1
  O  O630  1  0.33775913  0.51736714  0.54720252  1
  O  O631  1  0.33873362  0.51819683  0.79611616  1
  O  O632  1  0.33875773  0.85260589  0.04803549  1
  O  O633  1  0.33732917  0.85143720  0.29743568  1
  O  O634  1  0.33864684  0.85228029  0.54782356  1
  O  O635  1  0.33892638  0.85024880  0.79683984  1
  O  O636  1  0.83814521  0.18631945  0.04812324  1
  O  O637  1  0.83659487  0.18523555  0.29747240  1
  O  O638  1  0.83871373  0.18466754  0.54701516  1
  O  O639  1  0.83828740  0.18369114  0.79705421  1
  O  O640  1  0.83753790  0.51731492  0.04675673  1
  O  O641  1  0.83842490  0.51742802  0.29799721  1
  O  O642  1  0.83609083  0.51827016  0.54710829  1
  O  O643  1  0.83518269  0.51847177  0.79743470  1
  O  O644  1  0.83753662  0.85145530  0.04774123  1
  O  O645  1  0.83481084  0.85154063  0.29821291  1
  O  O646  1  0.83536511  0.85186570  0.54768549  1
  O  O647  1  0.83651536  0.85208497  0.79875022  1
  O  O648  1  0.16412711  0.14785825  0.20227928  1
  O  O649  1  0.16214699  0.14964547  0.45263563  1
  O  O650  1  0.16254594  0.14949471  0.70316894  1
  O  O651  1  0.16398413  0.14709700  0.95198615  1
  O  O652  1  0.16437866  0.48245551  0.20297140  1
  O  O653  1  0.16435488  0.48168043  0.45246432  1
  O  O654  1  0.16302920  0.48043083  0.70255019  1
  O  O655  1  0.16193916  0.48264444  0.95240900  1
  O  O656  1  0.16382135  0.81517498  0.20340329  1
  O  O657  1  0.16088492  0.81397216  0.45236302  1
  O  O658  1  0.16432541  0.81537236  0.70138403  1
  O  O659  1  0.16328994  0.81552477  0.95272063  1
  O  O660  1  0.66033140  0.14859070  0.20265852  1
  O  O661  1  0.66284447  0.14797030  0.45204460  1
  O  O662  1  0.66432671  0.14780784  0.70234361  1
  O  O663  1  0.66149699  0.14972173  0.95355609  1
  O  O664  1  0.66425996  0.48129487  0.20210345  1
  O  O665  1  0.66309637  0.48211558  0.45274709  1
  O  O666  1  0.66099349  0.48222089  0.70185274  1
  O  O667  1  0.66341066  0.48046082  0.95246113  1
  O  O668  1  0.66153703  0.81550853  0.20327970  1
  O  O669  1  0.66062317  0.81476754  0.45256839  1
  O  O670  1  0.66118016  0.81595143  0.70371486  1
  O  O671  1  0.66067463  0.81458168  0.95190922  1
