# generated using pymatgen
data_Na2MnFe(PO4)2
_symmetry_space_group_name_H-M   'P 1'
_cell_length_a   21.08683990
_cell_length_b   18.93965141
_cell_length_c   20.04592117
_cell_angle_alpha   89.99944505
_cell_angle_beta   89.99903395
_cell_angle_gamma   89.99982949
_symmetry_Int_Tables_number   1
_chemical_formula_structural   Na2MnFe(PO4)2
_chemical_formula_sum   'Na96 Mn48 Fe48 P96 O384'
_cell_volume   8005.88781765
_cell_formula_units_Z   48
loop_
 _symmetry_equiv_pos_site_id
 _symmetry_equiv_pos_as_xyz
  1  'x, y, z'
loop_
 _atom_site_type_symbol
 _atom_site_label
 _atom_site_symmetry_multiplicity
 _atom_site_fract_x
 _atom_site_fract_y
 _atom_site_fract_z
 _atom_site_occupancy
  Na  Na0  1  -0.00152254  -0.00089886  0.00061508  1
  Na  Na1  1  -0.00180000  -0.00107418  0.25038624  1
  Na  Na2  1  0.00009676  -0.00013140  0.49892090  1
  Na  Na3  1  -0.00061470  -0.00096105  0.74985204  1
  Na  Na4  1  0.00010007  0.33435957  0.00035258  1
  Na  Na5  1  -0.00122617  0.33364421  0.25028838  1
  Na  Na6  1  -0.00266138  0.33313845  0.49973223  1
  Na  Na7  1  -0.00047518  0.33408785  0.74907762  1
  Na  Na8  1  -0.00066076  0.66593224  0.00041126  1
  Na  Na9  1  -0.00272235  0.66540710  0.25004337  1
  Na  Na10  1  -0.00085671  0.66699571  0.49864733  1
  Na  Na11  1  -0.00130389  0.66545009  0.75025406  1
  Na  Na12  1  0.50197752  -0.00008631  0.00071049  1
  Na  Na13  1  0.50282693  0.00047347  0.25082934  1
  Na  Na14  1  0.50041526  -0.00024358  0.49944203  1
  Na  Na15  1  0.49947283  -0.00059513  0.74978882  1
  Na  Na16  1  0.49778861  0.33247387  0.00107888  1
  Na  Na17  1  0.50025020  0.33353973  0.24898790  1
  Na  Na18  1  0.49901672  0.33309326  0.49958181  1
  Na  Na19  1  0.49943923  0.33387980  0.74955179  1
  Na  Na20  1  0.50162243  0.66715379  0.00114064  1
  Na  Na21  1  0.50035794  0.66607161  0.25059773  1
  Na  Na22  1  0.50115749  0.66654975  0.49897272  1
  Na  Na23  1  0.49909803  0.66546559  0.75037078  1
  Na  Na24  1  0.24892936  -0.00094439  0.12459328  1
  Na  Na25  1  0.24981900  0.00022167  0.37523075  1
  Na  Na26  1  0.24830197  -0.00053509  0.62507227  1
  Na  Na27  1  0.24966486  -0.00035187  0.87590152  1
  Na  Na28  1  0.25025158  0.33376286  0.12433655  1
  Na  Na29  1  0.25056457  0.33325814  0.37418294  1
  Na  Na30  1  0.25075288  0.33394826  0.62482431  1
  Na  Na31  1  0.25006495  0.33387760  0.87612920  1
  Na  Na32  1  0.25142550  0.66615399  0.12498161  1
  Na  Na33  1  0.25210453  0.66658013  0.37489942  1
  Na  Na34  1  0.25285364  0.66725141  0.62464902  1
  Na  Na35  1  0.25049204  0.66563341  0.87493919  1
  Na  Na36  1  0.74891597  -0.00090084  0.12456331  1
  Na  Na37  1  0.75001847  -0.00070869  0.37437617  1
  Na  Na38  1  0.75132178  -0.00068551  0.62507153  1
  Na  Na39  1  0.75218793  0.00041165  0.87535143  1
  Na  Na40  1  0.74929309  0.33327405  0.12495912  1
  Na  Na41  1  0.75152883  0.33422017  0.37502251  1
  Na  Na42  1  0.75060829  0.33395660  0.62428403  1
  Na  Na43  1  0.75042376  0.33422684  0.87599982  1
  Na  Na44  1  0.74940923  0.66680563  0.12484098  1
  Na  Na45  1  0.74747266  0.66537404  0.37404004  1
  Na  Na46  1  0.74998883  0.66668756  0.62657586  1
  Na  Na47  1  0.74957564  0.66599667  0.87550683  1
  Na  Na48  1  -0.00163462  0.16748057  0.00040772  1
  Na  Na49  1  -0.00211339  0.16762569  0.24991413  1
  Na  Na50  1  -0.00023821  0.16631358  0.49869292  1
  Na  Na51  1  0.00106742  0.16589574  0.75036369  1
  Na  Na52  1  0.00062675  0.49983458  -0.00045495  1
  Na  Na53  1  -0.00068118  0.49967821  0.25059959  1
  Na  Na54  1  -0.00276687  0.50032045  0.49914904  1
  Na  Na55  1  -0.00182120  0.50039651  0.74993711  1
  Na  Na56  1  -0.00199324  0.83387821  0.00127016  1
  Na  Na57  1  -0.00225709  0.83377710  0.25058043  1
  Na  Na58  1  -0.00025780  0.83376354  0.49926597  1
  Na  Na59  1  -0.00037023  0.83382809  0.74920001  1
  Na  Na60  1  0.49923387  0.16716612  0.00065459  1
  Na  Na61  1  0.49998716  0.16699626  0.25015411  1
  Na  Na62  1  0.49850513  0.16713397  0.50036857  1
  Na  Na63  1  0.49800763  0.16705967  0.74923475  1
  Na  Na64  1  0.49902968  0.50104653  0.00084128  1
  Na  Na65  1  0.50025475  0.50012665  0.24988922  1
  Na  Na66  1  0.49942777  0.50050403  0.49911963  1
  Na  Na67  1  0.49940693  0.50041827  0.75071331  1
  Na  Na68  1  0.50191464  0.83349613  0.00122558  1
  Na  Na69  1  0.50317643  0.83295444  0.25024161  1
  Na  Na70  1  0.50312426  0.83232564  0.49871992  1
  Na  Na71  1  0.50096295  0.83327794  0.74985675  1
  Na  Na72  1  0.25029585  0.16755978  0.12473254  1
  Na  Na73  1  0.25084211  0.16663643  0.37519573  1
  Na  Na74  1  0.24958277  0.16680477  0.62426533  1
  Na  Na75  1  0.25080818  0.16622848  0.87558639  1
  Na  Na76  1  0.24975348  0.50049035  0.12510267  1
  Na  Na77  1  0.25289179  0.49964732  0.37391423  1
  Na  Na78  1  0.25190810  0.50038680  0.62558920  1
  Na  Na79  1  0.25119494  0.49975924  0.87504333  1
  Na  Na80  1  0.25047933  0.83301250  0.12418657  1
  Na  Na81  1  0.24906094  0.83390372  0.37511658  1
  Na  Na82  1  0.24815738  0.83463694  0.62509601  1
  Na  Na83  1  0.24989412  0.83320671  0.87602137  1
  Na  Na84  1  0.75082939  0.16637127  0.12509689  1
  Na  Na85  1  0.75088160  0.16676763  0.37450025  1
  Na  Na86  1  0.75111117  0.16676421  0.62406111  1
  Na  Na87  1  0.75160727  0.16612889  0.87625457  1
  Na  Na88  1  0.74829808  0.50082428  0.12432439  1
  Na  Na89  1  0.74970147  0.49989064  0.37442245  1
  Na  Na90  1  0.75071488  0.49982289  0.62585977  1
  Na  Na91  1  0.75107494  0.49951720  0.87538083  1
  Na  Na92  1  0.74852240  0.83355257  0.12493014  1
  Na  Na93  1  0.74903608  0.83380884  0.37453238  1
  Na  Na94  1  0.75048152  0.83337125  0.62589767  1
  Na  Na95  1  0.74958145  0.83377127  0.87519303  1
  Mn  Mn96  1  0.35801763  0.08248678  0.25184477  1
  Mn  Mn97  1  0.10715944  0.41684676  0.62208706  1
  Mn  Mn98  1  0.64216365  0.24982843  0.74851264  1
  Mn  Mn99  1  0.89048099  0.58330385  0.37732480  1
  Mn  Mn100  1  0.35833155  0.41661158  0.75258609  1
  Mn  Mn101  1  0.64234533  0.58264392  0.74836207  1
  Mn  Mn102  1  0.85680174  0.74916707  0.50204013  1
  Mn  Mn103  1  0.60761991  0.08348163  0.87197807  1
  Mn  Mn104  1  0.89231941  0.25033907  0.87711542  1
  Mn  Mn105  1  0.60786749  0.41619680  0.37263153  1
  Mn  Mn106  1  0.60842697  0.08372999  0.62284692  1
  Mn  Mn107  1  0.10743812  0.74961312  0.62252583  1
  Mn  Mn108  1  0.89202158  0.24965425  0.62786643  1
  Mn  Mn109  1  0.35832369  0.75106142  0.75256825  1
  Mn  Mn110  1  0.14280974  0.58334899  0.49808169  1
  Mn  Mn111  1  0.14223423  0.25055878  0.99825097  1
  Mn  Mn112  1  0.39206497  0.91584648  0.62681447  1
  Mn  Mn113  1  0.39375471  0.91656123  0.12797260  1
  Mn  Mn114  1  0.85696641  0.74977829  0.00220408  1
  Mn  Mn115  1  0.85787054  0.41697500  0.00276374  1
  Mn  Mn116  1  0.14281270  0.58357613  0.24765621  1
  Mn  Mn117  1  0.10704982  0.74905281  0.12376052  1
  Mn  Mn118  1  0.10765534  0.74965555  0.37199046  1
  Mn  Mn119  1  0.10731769  0.41675063  0.37329315  1
  Mn  Mn120  1  0.85806521  0.08317686  0.50244081  1
  Mn  Mn121  1  0.10729913  0.08332694  0.87301362  1
  Mn  Mn122  1  0.85823937  0.74988517  0.75306232  1
  Mn  Mn123  1  0.39291593  0.91678765  0.37707351  1
  Mn  Mn124  1  0.10743122  0.08379589  0.37201182  1
  Mn  Mn125  1  0.60793589  0.08378140  0.37301549  1
  Mn  Mn126  1  0.60672317  0.41662670  0.87303757  1
  Mn  Mn127  1  0.60848202  0.74934362  0.62265777  1
  Mn  Mn128  1  0.64236215  0.25001778  0.49725206  1
  Mn  Mn129  1  0.10647911  0.08373482  0.12335229  1
  Mn  Mn130  1  0.64171876  0.24995659  0.99759224  1
  Mn  Mn131  1  0.35871660  0.74934191  0.00255337  1
  Mn  Mn132  1  0.35850366  0.08345686  0.00280720  1
  Mn  Mn133  1  0.35853143  0.75073259  0.50205815  1
  Mn  Mn134  1  0.35796333  0.41696221  0.25164292  1
  Mn  Mn135  1  0.64275714  0.91760307  0.74818095  1
  Mn  Mn136  1  0.14212102  0.24952615  0.74773577  1
  Mn  Mn137  1  0.14230058  0.58384305  0.74733738  1
  Mn  Mn138  1  0.39207322  0.25054797  0.62730446  1
  Mn  Mn139  1  0.35720827  0.08277665  0.75202009  1
  Mn  Mn140  1  0.14161758  0.91582168  0.99813226  1
  Mn  Mn141  1  0.10758092  0.74962067  0.87289394  1
  Mn  Mn142  1  0.85760170  0.08324146  0.00291000  1
  Mn  Mn143  1  0.14243005  0.25055508  0.49736342  1
  Fe  Fe144  1  0.89311479  0.91646302  0.62640277  1
  Fe  Fe145  1  0.89203069  0.24972806  0.37592667  1
  Fe  Fe146  1  0.14222135  0.91655711  0.24851517  1
  Fe  Fe147  1  0.64283859  0.25001254  0.24829253  1
  Fe  Fe148  1  0.64240354  0.58275947  0.24775615  1
  Fe  Fe149  1  0.35678537  0.08312994  0.50177862  1
  Fe  Fe150  1  0.89130416  0.91623520  0.12759493  1
  Fe  Fe151  1  0.39373800  0.58346035  0.62613931  1
  Fe  Fe152  1  0.64241836  0.58365038  0.99811441  1
  Fe  Fe153  1  0.39328684  0.24995007  0.12738196  1
  Fe  Fe154  1  0.60770023  0.41688141  0.62323236  1
  Fe  Fe155  1  0.39231903  0.25031251  0.37592760  1
  Fe  Fe156  1  0.60685835  0.75006053  0.87374628  1
  Fe  Fe157  1  0.89206678  0.91686900  0.37680672  1
  Fe  Fe158  1  0.89210327  0.25077075  0.12768226  1
  Fe  Fe159  1  0.60832128  0.08382992  0.12374695  1
  Fe  Fe160  1  0.14209604  0.91668820  0.49801417  1
  Fe  Fe161  1  0.10728444  0.41712826  0.87320979  1
  Fe  Fe162  1  0.39192594  0.24989089  0.87697819  1
  Fe  Fe163  1  0.64243623  0.58334516  0.49874372  1
  Fe  Fe164  1  0.14197827  0.91649692  0.74850742  1
  Fe  Fe165  1  0.10667893  0.41697734  0.12375226  1
  Fe  Fe166  1  0.35825795  0.41640925  0.50173775  1
  Fe  Fe167  1  0.35701983  0.41694758  0.00195763  1
  Fe  Fe168  1  0.64324667  0.91633728  0.49861362  1
  Fe  Fe169  1  0.39366289  0.58362002  0.12660010  1
  Fe  Fe170  1  0.85642454  0.41738263  0.50194784  1
  Fe  Fe171  1  0.64304646  0.91635502  0.99763756  1
  Fe  Fe172  1  0.39268551  0.91653080  0.87689124  1
  Fe  Fe173  1  0.89276966  0.91593341  0.87675535  1
  Fe  Fe174  1  0.10702632  0.08319100  0.62333068  1
  Fe  Fe175  1  0.89205720  0.58300042  0.12658711  1
  Fe  Fe176  1  0.60785065  0.74978032  0.12343205  1
  Fe  Fe177  1  0.60797458  0.74963922  0.37277251  1
  Fe  Fe178  1  0.60712483  0.41660442  0.12323183  1
  Fe  Fe179  1  0.39287481  0.58361431  0.87765280  1
  Fe  Fe180  1  0.85721679  0.41617377  0.75182764  1
  Fe  Fe181  1  0.85658118  0.08346322  0.25112172  1
  Fe  Fe182  1  0.85659373  0.41682565  0.25075507  1
  Fe  Fe183  1  0.89297086  0.58360094  0.87737593  1
  Fe  Fe184  1  0.64367941  0.91715127  0.24826981  1
  Fe  Fe185  1  0.85578554  0.74981919  0.25151732  1
  Fe  Fe186  1  0.35841826  0.75090359  0.25141469  1
  Fe  Fe187  1  0.14277595  0.58308995  0.99872617  1
  Fe  Fe188  1  0.85861806  0.08393684  0.75150242  1
  Fe  Fe189  1  0.89154652  0.58390864  0.62658886  1
  Fe  Fe190  1  0.14227049  0.24987677  0.24790150  1
  Fe  Fe191  1  0.39395374  0.58319430  0.37675208  1
  P  P192  1  0.05267599  0.25104727  0.11162160  1
  P  P193  1  0.05236531  0.25040657  0.35927055  1
  P  P194  1  0.05307911  0.24924234  0.60953657  1
  P  P195  1  0.05337261  0.25134199  0.86020327  1
  P  P196  1  0.05249489  0.58245082  0.11001206  1
  P  P197  1  0.05275753  0.58309323  0.35980609  1
  P  P198  1  0.05124140  0.58322059  0.60941244  1
  P  P199  1  0.05352360  0.58252788  0.86118833  1
  P  P200  1  0.05252884  0.91622562  0.11191002  1
  P  P201  1  0.05356286  0.91664459  0.36022131  1
  P  P202  1  0.05376944  0.91733402  0.61019440  1
  P  P203  1  0.05235969  0.91619861  0.85977898  1
  P  P204  1  0.55410313  0.25004225  0.11160026  1
  P  P205  1  0.55255906  0.25011924  0.35917537  1
  P  P206  1  0.55368757  0.25108134  0.60995769  1
  P  P207  1  0.55110028  0.25017620  0.86000156  1
  P  P208  1  0.55482759  0.58324778  0.11121699  1
  P  P209  1  0.55489307  0.58347932  0.36042233  1
  P  P210  1  0.55335623  0.58222552  0.60949851  1
  P  P211  1  0.55319180  0.58400125  0.86179695  1
  P  P212  1  0.55677088  0.91681480  0.11132961  1
  P  P213  1  0.55615250  0.91612291  0.36054520  1
  P  P214  1  0.55424079  0.91668683  0.60909825  1
  P  P215  1  0.55342997  0.91589028  0.86121623  1
  P  P216  1  0.44875323  0.08346621  0.14036041  1
  P  P217  1  0.44589246  0.08412609  0.39042479  1
  P  P218  1  0.44553990  0.08277591  0.63876286  1
  P  P219  1  0.44651242  0.08285658  0.89005335  1
  P  P220  1  0.44660372  0.41711802  0.13855990  1
  P  P221  1  0.44613037  0.41652418  0.38972459  1
  P  P222  1  0.44705661  0.41784167  0.63878907  1
  P  P223  1  0.44560124  0.41679240  0.89115931  1
  P  P224  1  0.44828615  0.74946739  0.14082042  1
  P  P225  1  0.44742696  0.74964282  0.38828950  1
  P  P226  1  0.44736087  0.74917127  0.63973161  1
  P  P227  1  0.44793237  0.75022400  0.89047705  1
  P  P228  1  0.94504142  0.08324329  0.14090929  1
  P  P229  1  0.94445827  0.08324704  0.38799041  1
  P  P230  1  0.94743287  0.08237813  0.64010199  1
  P  P231  1  0.94534540  0.08244617  0.88925557  1
  P  P232  1  0.94665609  0.41735910  0.14052923  1
  P  P233  1  0.94350329  0.41585980  0.38908280  1
  P  P234  1  0.94409620  0.41784095  0.63918753  1
  P  P235  1  0.94635093  0.41742325  0.88904277  1
  P  P236  1  0.94486471  0.74936673  0.14077828  1
  P  P237  1  0.94435713  0.75078027  0.38842557  1
  P  P238  1  0.94612122  0.74999529  0.63952497  1
  P  P239  1  0.94647156  0.74991388  0.89039764  1
  P  P240  1  0.19644508  0.08345326  0.23480890  1
  P  P241  1  0.19587948  0.08292367  0.48593716  1
  P  P242  1  0.19547878  0.08231615  0.73452615  1
  P  P243  1  0.19640184  0.08351467  0.98553190  1
  P  P244  1  0.19583534  0.41598259  0.23433326  1
  P  P245  1  0.19867157  0.41725773  0.48465851  1
  P  P246  1  0.19570240  0.41691069  0.73575336  1
  P  P247  1  0.19552291  0.41791520  0.98607759  1
  P  P248  1  0.19841789  0.75049800  0.23482284  1
  P  P249  1  0.19667010  0.75033745  0.48479189  1
  P  P250  1  0.19678987  0.75064068  0.73497583  1
  P  P251  1  0.19662567  0.74830099  0.98546025  1
  P  P252  1  0.69732134  0.08374320  0.23488878  1
  P  P253  1  0.69720818  0.08244473  0.48471654  1
  P  P254  1  0.69895294  0.08367828  0.73500084  1
  P  P255  1  0.69529828  0.08259498  0.98607073  1
  P  P256  1  0.69665022  0.41635176  0.23450903  1
  P  P257  1  0.69646912  0.41776771  0.48601826  1
  P  P258  1  0.69709151  0.41645628  0.73483353  1
  P  P259  1  0.69501855  0.41760574  0.98623350  1
  P  P260  1  0.69558442  0.74982588  0.23568043  1
  P  P261  1  0.69585065  0.74963428  0.48447682  1
  P  P262  1  0.69563953  0.75000195  0.73683935  1
  P  P263  1  0.69429337  0.74979385  0.98574701  1
  P  P264  1  0.30550223  0.25110223  0.01486841  1
  P  P265  1  0.30395594  0.24994310  0.26401458  1
  P  P266  1  0.30496361  0.25012454  0.51339538  1
  P  P267  1  0.30360026  0.24994991  0.76594725  1
  P  P268  1  0.30458411  0.58231609  0.01478623  1
  P  P269  1  0.30638448  0.58449240  0.26401449  1
  P  P270  1  0.30609602  0.58258491  0.51417973  1
  P  P271  1  0.30566518  0.58369552  0.76469318  1
  P  P272  1  0.30492820  0.91634310  0.01460957  1
  P  P273  1  0.30240700  0.91589266  0.26481427  1
  P  P274  1  0.30205229  0.91745016  0.51476334  1
  P  P275  1  0.30228206  0.91677423  0.76597307  1
  P  P276  1  0.80397173  0.25043021  0.01611826  1
  P  P277  1  0.80367281  0.25048150  0.26386456  1
  P  P278  1  0.80465410  0.25080099  0.51350643  1
  P  P279  1  0.80335099  0.25026823  0.76524637  1
  P  P280  1  0.80354328  0.58351431  0.01463989  1
  P  P281  1  0.80272613  0.58301181  0.26302281  1
  P  P282  1  0.80173548  0.58303634  0.51561954  1
  P  P283  1  0.80515789  0.58239817  0.76515491  1
  P  P284  1  0.80374179  0.91608350  0.01459504  1
  P  P285  1  0.80379138  0.91645445  0.26395742  1
  P  P286  1  0.80385702  0.91608450  0.51440953  1
  P  P287  1  0.80579004  0.91750423  0.76464782  1
  O  O288  1  0.05771373  0.25025119  0.18823565  1
  O  O289  1  0.05650348  0.25036170  0.43598113  1
  O  O290  1  0.05628023  0.25003000  0.68630170  1
  O  O291  1  0.05614821  0.25086734  0.93703668  1
  O  O292  1  0.05644724  0.58316532  0.18668454  1
  O  O293  1  0.05662310  0.58330486  0.43649592  1
  O  O294  1  0.05558170  0.58301196  0.68611528  1
  O  O295  1  0.05846665  0.58308900  0.93780201  1
  O  O296  1  0.05814131  0.91604645  0.18851545  1
  O  O297  1  0.05870457  0.91659981  0.43691452  1
  O  O298  1  0.05827990  0.91656408  0.68687193  1
  O  O299  1  0.05592360  0.91623009  0.93657976  1
  O  O300  1  0.55907765  0.25002181  0.18825659  1
  O  O301  1  0.55658312  0.25015885  0.43586793  1
  O  O302  1  0.55668901  0.25038041  0.68673643  1
  O  O303  1  0.55520816  0.25003985  0.93670167  1
  O  O304  1  0.55917092  0.58290853  0.18799227  1
  O  O305  1  0.55932591  0.58295447  0.43708460  1
  O  O306  1  0.55674152  0.58261486  0.68625711  1
  O  O307  1  0.55790467  0.58340320  0.93845399  1
  O  O308  1  0.56079683  0.91710134  0.18819328  1
  O  O309  1  0.56009139  0.91676056  0.43726704  1
  O  O310  1  0.55729763  0.91702687  0.68593815  1
  O  O311  1  0.55828729  0.91670308  0.93787978  1
  O  O312  1  0.44476306  0.08272257  0.06372229  1
  O  O313  1  0.44322654  0.08301121  0.31360375  1
  O  O314  1  0.44095532  0.08249446  0.56203178  1
  O  O315  1  0.44343761  0.08263843  0.81326193  1
  O  O316  1  0.44192073  0.41723173  0.06199808  1
  O  O317  1  0.44350190  0.41640385  0.31283509  1
  O  O318  1  0.44263226  0.41693985  0.56212149  1
  O  O319  1  0.44354211  0.41680567  0.81421725  1
  O  O320  1  0.44441659  0.75022126  0.06414848  1
  O  O321  1  0.44266102  0.75089396  0.31168318  1
  O  O322  1  0.44447167  0.75029928  0.56293176  1
  O  O323  1  0.44465229  0.75022574  0.81376610  1
  O  O324  1  0.94292250  0.08311067  0.06404849  1
  O  O325  1  0.93997668  0.08315299  0.31131234  1
  O  O326  1  0.94388355  0.08310395  0.56332848  1
  O  O327  1  0.94200080  0.08337117  0.81247805  1
  O  O328  1  0.94354038  0.41730238  0.06377968  1
  O  O329  1  0.93940731  0.41696695  0.31232867  1
  O  O330  1  0.93983649  0.41727156  0.56238900  1
  O  O331  1  0.94162485  0.41662278  0.81241226  1
  O  O332  1  0.94230408  0.74960399  0.06399323  1
  O  O333  1  0.93940655  0.74979139  0.31175323  1
  O  O334  1  0.94328049  0.75007027  0.56275566  1
  O  O335  1  0.94416568  0.74980538  0.81361383  1
  O  O336  1  0.19264238  0.08368482  0.06228033  1
  O  O337  1  0.19378283  0.08384147  0.31163217  1
  O  O338  1  0.19100243  0.08342548  0.56257532  1
  O  O339  1  0.19275614  0.08318574  0.81134401  1
  O  O340  1  0.19048343  0.41730745  0.06274829  1
  O  O341  1  0.19289444  0.41660081  0.31108456  1
  O  O342  1  0.19430413  0.41745518  0.56136507  1
  O  O343  1  0.19131185  0.41719316  0.81251958  1
  O  O344  1  0.19309643  0.74883776  0.06218858  1
  O  O345  1  0.19446766  0.74971299  0.31151617  1
  O  O346  1  0.19334661  0.74963754  0.56156637  1
  O  O347  1  0.19366677  0.74940980  0.81174551  1
  O  O348  1  0.69123123  0.08354167  0.06282160  1
  O  O349  1  0.69393641  0.08398071  0.31156182  1
  O  O350  1  0.69432557  0.08309984  0.56148116  1
  O  O351  1  0.69463431  0.08356230  0.81174046  1
  O  O352  1  0.69052596  0.41692276  0.06294498  1
  O  O353  1  0.69349947  0.41633681  0.31126822  1
  O  O354  1  0.69199865  0.41710124  0.56265659  1
  O  O355  1  0.69283535  0.41673198  0.81157052  1
  O  O356  1  0.69090095  0.74959167  0.06258598  1
  O  O357  1  0.69150385  0.74952470  0.31240779  1
  O  O358  1  0.69390912  0.74968540  0.56135926  1
  O  O359  1  0.69105348  0.74980201  0.81356100  1
  O  O360  1  0.30945044  0.25006882  0.18732369  1
  O  O361  1  0.30864799  0.25026940  0.43662327  1
  O  O362  1  0.30672842  0.25026340  0.68911107  1
  O  O363  1  0.30937251  0.25008145  0.93808997  1
  O  O364  1  0.31059674  0.58353734  0.18721894  1
  O  O365  1  0.31018683  0.58332153  0.43735820  1
  O  O366  1  0.31032313  0.58360089  0.68796717  1
  O  O367  1  0.30931278  0.58332891  0.93806339  1
  O  O368  1  0.30673285  0.91634182  0.18814507  1
  O  O369  1  0.30647107  0.91680816  0.43812662  1
  O  O370  1  0.30632337  0.91655732  0.68926590  1
  O  O371  1  0.30960024  0.91634816  0.93789365  1
  O  O372  1  0.80811576  0.25055599  0.18714413  1
  O  O373  1  0.80835512  0.24994526  0.43674793  1
  O  O374  1  0.80586404  0.25019194  0.68843225  1
  O  O375  1  0.80756087  0.25072674  0.93937297  1
  O  O376  1  0.80738666  0.58309448  0.18640385  1
  O  O377  1  0.80487459  0.58364348  0.43881995  1
  O  O378  1  0.80872594  0.58372492  0.68837931  1
  O  O379  1  0.80885163  0.58321125  0.93800850  1
  O  O380  1  0.80776235  0.91630024  0.18718808  1
  O  O381  1  0.80825248  0.91639992  0.43767503  1
  O  O382  1  0.80988382  0.91645769  0.68785294  1
  O  O383  1  0.80879070  0.91605214  0.93795541  1
  O  O384  1  0.23534511  0.25083446  0.03878610  1
  O  O385  1  0.23347169  0.25009981  0.28720469  1
  O  O386  1  0.23511208  0.25044143  0.53825780  1
  O  O387  1  0.23394617  0.24982337  0.79101317  1
  O  O388  1  0.23423434  0.58293036  0.03846005  1
  O  O389  1  0.23624223  0.58331582  0.28793511  1
  O  O390  1  0.23612827  0.58366394  0.53868936  1
  O  O391  1  0.23547480  0.58314172  0.78833115  1
  O  O392  1  0.23471368  0.91611143  0.03819759  1
  O  O393  1  0.23230231  0.91660496  0.28918556  1
  O  O394  1  0.23188866  0.91697266  0.53890650  1
  O  O395  1  0.23215260  0.91654231  0.79027733  1
  O  O396  1  0.73405106  0.25005169  0.04034154  1
  O  O397  1  0.73328459  0.25041355  0.28785141  1
  O  O398  1  0.73480719  0.25034445  0.53817038  1
  O  O399  1  0.73403626  0.25022133  0.79157141  1
  O  O400  1  0.73303374  0.58397026  0.03764378  1
  O  O401  1  0.73232152  0.58267312  0.28687254  1
  O  O402  1  0.73186649  0.58355415  0.54065253  1
  O  O403  1  0.73513883  0.58271322  0.78952179  1
  O  O404  1  0.73329618  0.91595306  0.03778091  1
  O  O405  1  0.73329502  0.91661063  0.28760933  1
  O  O406  1  0.73357405  0.91606755  0.53828739  1
  O  O407  1  0.73573486  0.91706610  0.78885889  1
  O  O408  1  0.26601238  0.08321256  0.20915488  1
  O  O409  1  0.26618610  0.08331179  0.46207426  1
  O  O410  1  0.26510059  0.08319937  0.70919348  1
  O  O411  1  0.26621700  0.08322924  0.96097919  1
  O  O412  1  0.26575960  0.41671181  0.20956302  1
  O  O413  1  0.26871827  0.41655253  0.46030068  1
  O  O414  1  0.26586234  0.41696282  0.71189154  1
  O  O415  1  0.26602004  0.41703407  0.96276745  1
  O  O416  1  0.26843448  0.75011106  0.21011720  1
  O  O417  1  0.26648257  0.75026648  0.45995832  1
  O  O418  1  0.26640667  0.75102451  0.70969006  1
  O  O419  1  0.26638904  0.74880785  0.96061223  1
  O  O420  1  0.76747187  0.08319860  0.21030684  1
  O  O421  1  0.76677692  0.08279974  0.45936051  1
  O  O422  1  0.76895417  0.08335338  0.71051058  1
  O  O423  1  0.76538120  0.08300200  0.96214020  1
  O  O424  1  0.76672554  0.41676082  0.20973648  1
  O  O425  1  0.76662304  0.41742770  0.46175132  1
  O  O426  1  0.76727309  0.41681314  0.71091080  1
  O  O427  1  0.76513515  0.41717262  0.96240216  1
  O  O428  1  0.76592723  0.75010650  0.21161678  1
  O  O429  1  0.76526063  0.74941999  0.45846774  1
  O  O430  1  0.76571754  0.75008214  0.71292715  1
  O  O431  1  0.76423167  0.74970535  0.96120447  1
  O  O432  1  0.01456542  0.08314130  0.16661571  1
  O  O433  1  0.01449603  0.08322139  0.41215529  1
  O  O434  1  0.01741432  0.08261917  0.66472433  1
  O  O435  1  0.01502434  0.08297284  0.91453597  1
  O  O436  1  0.01665355  0.41723053  0.16534555  1
  O  O437  1  0.01357691  0.41675337  0.41332837  1
  O  O438  1  0.01418570  0.41703973  0.66314007  1
  O  O439  1  0.01653174  0.41731922  0.91314750  1
  O  O440  1  0.01452458  0.74941055  0.16627372  1
  O  O441  1  0.01444022  0.75052924  0.41224877  1
  O  O442  1  0.01562864  0.74964693  0.66522529  1
  O  O443  1  0.01578323  0.74997450  0.91651756  1
  O  O444  1  0.51885478  0.08360856  0.16477915  1
  O  O445  1  0.51564657  0.08361505  0.41545183  1
  O  O446  1  0.51554290  0.08335127  0.66297905  1
  O  O447  1  0.51616229  0.08333433  0.91542571  1
  O  O448  1  0.51691231  0.41702826  0.16265138  1
  O  O449  1  0.51587164  0.41657625  0.41479256  1
  O  O450  1  0.51710707  0.41731799  0.66335430  1
  O  O451  1  0.51513128  0.41690609  0.91685699  1
  O  O452  1  0.51858238  0.74944025  0.16473612  1
  O  O453  1  0.51780468  0.74944231  0.41193448  1
  O  O454  1  0.51690115  0.74914559  0.66518429  1
  O  O455  1  0.51774931  0.75013365  0.91577901  1
  O  O456  1  0.48363579  0.24998219  0.08811246  1
  O  O457  1  0.48238950  0.25037635  0.33507922  1
  O  O458  1  0.48398803  0.25055262  0.58495360  1
  O  O459  1  0.48108080  0.25035502  0.83556821  1
  O  O460  1  0.48435608  0.58379525  0.08761325  1
  O  O461  1  0.48447661  0.58292909  0.33684646  1
  O  O462  1  0.48348196  0.58340506  0.58456090  1
  O  O463  1  0.48287928  0.58322958  0.83803716  1
  O  O464  1  0.48663642  0.91649638  0.08735559  1
  O  O465  1  0.48606318  0.91686703  0.33636907  1
  O  O466  1  0.48456432  0.91600007  0.58393880  1
  O  O467  1  0.48320817  0.91617455  0.83715403  1
  O  O468  1  0.98224080  0.25090633  0.08805882  1
  O  O469  1  0.98209102  0.25033522  0.33545616  1
  O  O470  1  0.98332596  0.24950089  0.58458075  1
  O  O471  1  0.98386126  0.25065252  0.83462233  1
  O  O472  1  0.98224628  0.58283310  0.08585357  1
  O  O473  1  0.98274932  0.58272369  0.33562678  1
  O  O474  1  0.98109833  0.58357225  0.58520184  1
  O  O475  1  0.98314812  0.58302083  0.83757036  1
  O  O476  1  0.98188829  0.91628300  0.08909543  1
  O  O477  1  0.98297312  0.91668765  0.33730923  1
  O  O478  1  0.98336272  0.91681319  0.58633566  1
  O  O479  1  0.98232238  0.91615993  0.83536737  1
  O  O480  1  0.08594917  0.31626134  0.07859324  1
  O  O481  1  0.08616950  0.31538469  0.32650820  1
  O  O482  1  0.08707215  0.31430353  0.57678732  1
  O  O483  1  0.08725833  0.31655152  0.82801582  1
  O  O484  1  0.08652825  0.64732273  0.07696869  1
  O  O485  1  0.08629636  0.64815683  0.32674423  1
  O  O486  1  0.08516072  0.64825621  0.57679323  1
  O  O487  1  0.08676675  0.64755435  0.82754870  1
  O  O488  1  0.08549105  0.98125654  0.07826709  1
  O  O489  1  0.08676999  0.98162025  0.32671189  1
  O  O490  1  0.08690943  0.98260502  0.57705235  1
  O  O491  1  0.08632658  0.98112794  0.82699638  1
  O  O492  1  0.58698781  0.31523375  0.07809627  1
  O  O493  1  0.58666922  0.31494443  0.32629508  1
  O  O494  1  0.58740080  0.31645931  0.57771867  1
  O  O495  1  0.58494273  0.31530986  0.82753114  1
  O  O496  1  0.58837682  0.64830398  0.07823026  1
  O  O497  1  0.58823910  0.64847304  0.32710061  1
  O  O498  1  0.58800657  0.64688396  0.57676595  1
  O  O499  1  0.58622031  0.64916235  0.82856499  1
  O  O500  1  0.59016220  0.98184443  0.07813025  1
  O  O501  1  0.59019604  0.98092491  0.32730498  1
  O  O502  1  0.58838723  0.98167358  0.57656084  1
  O  O503  1  0.58690396  0.98080079  0.82751391  1
  O  O504  1  0.41532369  0.01833142  0.17349346  1
  O  O505  1  0.41131143  0.01935119  0.42309407  1
  O  O506  1  0.41235408  0.01760273  0.67202513  1
  O  O507  1  0.41283382  0.01758023  0.92264353  1
  O  O508  1  0.41319074  0.35210227  0.17186993  1
  O  O509  1  0.41192961  0.35150299  0.42205421  1
  O  O510  1  0.41306912  0.35311415  0.67217828  1
  O  O511  1  0.41110982  0.35178267  0.92313858  1
  O  O512  1  0.41432241  0.68448871  0.17322622  1
  O  O513  1  0.41414653  0.68440292  0.42110328  1
  O  O514  1  0.41318368  0.68398642  0.67156541  1
  O  O515  1  0.41407564  0.68499944  0.92307104  1
  O  O516  1  0.91038631  0.01832474  0.17301487  1
  O  O517  1  0.91116843  0.01805057  0.42123590  1
  O  O518  1  0.91340522  0.01731117  0.67235486  1
  O  O519  1  0.91171517  0.01702509  0.92157180  1
  O  O520  1  0.91238356  0.35250295  0.17320595  1
  O  O521  1  0.91040305  0.35036706  0.42158988  1
  O  O522  1  0.91018033  0.35300387  0.67258755  1
  O  O523  1  0.91292842  0.35252888  0.92268592  1
  O  O524  1  0.91058480  0.68406353  0.17270874  1
  O  O525  1  0.91087572  0.68574841  0.42185491  1
  O  O526  1  0.91158450  0.68508298  0.67179978  1
  O  O527  1  0.91200869  0.68480576  0.92244501  1
  O  O528  1  0.16207131  0.01823389  0.20302413  1
  O  O529  1  0.16259712  0.01778653  0.45278084  1
  O  O530  1  0.16168151  0.01675660  0.70265563  1
  O  O531  1  0.16224660  0.01847666  0.95317890  1
  O  O532  1  0.16208123  0.35076040  0.20191042  1
  O  O533  1  0.16441132  0.35237399  0.45199232  1
  O  O534  1  0.16239314  0.35173545  0.70269260  1
  O  O535  1  0.16173231  0.35319905  0.95248490  1
  O  O536  1  0.16446860  0.68539816  0.20207973  1
  O  O537  1  0.16276917  0.68531859  0.45196958  1
  O  O538  1  0.16300442  0.68561684  0.70194670  1
  O  O539  1  0.16292871  0.68298708  0.95306853  1
  O  O540  1  0.66326772  0.01880537  0.20229805  1
  O  O541  1  0.66326349  0.01724996  0.45263886  1
  O  O542  1  0.66491348  0.01875177  0.70230995  1
  O  O543  1  0.66227123  0.01716245  0.95323097  1
  O  O544  1  0.66280053  0.35121349  0.20196319  1
  O  O545  1  0.66303375  0.35288569  0.45234811  1
  O  O546  1  0.66346257  0.35143445  0.70191705  1
  O  O547  1  0.66156424  0.35261168  0.95291757  1
  O  O548  1  0.66225675  0.68482691  0.20227419  1
  O  O549  1  0.66121807  0.68456688  0.45252188  1
  O  O550  1  0.66239335  0.68482255  0.70367752  1
  O  O551  1  0.66039785  0.68479817  0.95288438  1
  O  O552  1  0.33889389  0.31641591  0.04760156  1
  O  O553  1  0.33739994  0.31498954  0.29735504  1
  O  O554  1  0.33881410  0.31521550  0.54631941  1
  O  O555  1  0.33781271  0.31492254  0.79847923  1
  O  O556  1  0.33863355  0.64693061  0.04835390  1
  O  O557  1  0.33955170  0.64980779  0.29684177  1
  O  O558  1  0.34050441  0.64723667  0.54726401  1
  O  O559  1  0.33890568  0.64884000  0.79806962  1
  O  O560  1  0.33819689  0.98137326  0.04802856  1
  O  O561  1  0.33639121  0.98084639  0.29764752  1
  O  O562  1  0.33546190  0.98255573  0.54761348  1
  O  O563  1  0.33607350  0.98187239  0.79868223  1
  O  O564  1  0.83780407  0.31548529  0.04892860  1
  O  O565  1  0.83699243  0.31562952  0.29690299  1
  O  O566  1  0.83805144  0.31608429  0.54606667  1
  O  O567  1  0.83754147  0.31562498  0.79722264  1
  O  O568  1  0.83696677  0.64834728  0.04810530  1
  O  O569  1  0.83557031  0.64812669  0.29671185  1
  O  O570  1  0.83601967  0.64787230  0.54838970  1
  O  O571  1  0.83912336  0.64713540  0.79864551  1
  O  O572  1  0.83702152  0.98099027  0.04821561  1
  O  O573  1  0.83710477  0.98150473  0.29714194  1
  O  O574  1  0.83759163  0.98090104  0.54774021  1
  O  O575  1  0.83922779  0.98277512  0.79723305  1
  O  O576  1  0.41457861  0.14841514  0.17267064  1
  O  O577  1  0.41193330  0.14953662  0.42211309  1
  O  O578  1  0.41162466  0.14774298  0.67157810  1
  O  O579  1  0.41225054  0.14803735  0.92221066  1
  O  O580  1  0.41349265  0.48223257  0.17192913  1
  O  O581  1  0.41206078  0.48169321  0.42192783  1
  O  O582  1  0.41376839  0.48314567  0.67161102  1
  O  O583  1  0.41114100  0.48187445  0.92322785  1
  O  O584  1  0.41470880  0.81447442  0.17413914  1
  O  O585  1  0.41436990  0.81456436  0.42226282  1
  O  O586  1  0.41324248  0.81416427  0.67245625  1
  O  O587  1  0.41399303  0.81522009  0.92309812  1
  O  O588  1  0.91070301  0.14846345  0.17284544  1
  O  O589  1  0.91117062  0.14852651  0.42091677  1
  O  O590  1  0.91335043  0.14724526  0.67316515  1
  O  O591  1  0.91118689  0.14728315  0.92218858  1
  O  O592  1  0.91249554  0.48242297  0.17300088  1
  O  O593  1  0.90919762  0.48048681  0.42250017  1
  O  O594  1  0.91078626  0.48305135  0.67206311  1
  O  O595  1  0.91285812  0.48251204  0.92221544  1
  O  O596  1  0.91035229  0.81425342  0.17314664  1
  O  O597  1  0.91111355  0.81604844  0.42130203  1
  O  O598  1  0.91221848  0.81527677  0.67180349  1
  O  O599  1  0.91195894  0.81502695  0.92231540  1
  O  O600  1  0.08584840  0.18611738  0.07783134  1
  O  O601  1  0.08609454  0.18542697  0.32625901  1
  O  O602  1  0.08688911  0.18390245  0.57744735  1
  O  O603  1  0.08773266  0.18621871  0.82813116  1
  O  O604  1  0.08625360  0.51733075  0.07731425  1
  O  O605  1  0.08678367  0.51812531  0.32729617  1
  O  O606  1  0.08485490  0.51820152  0.57634992  1
  O  O607  1  0.08656944  0.51742522  0.82774453  1
  O  O608  1  0.08547732  0.85114435  0.07824290  1
  O  O609  1  0.08679102  0.85174308  0.32653103  1
  O  O610  1  0.08736793  0.85248771  0.57656428  1
  O  O611  1  0.08627104  0.85123473  0.82700254  1
  O  O612  1  0.58723749  0.18499296  0.07815242  1
  O  O613  1  0.58646076  0.18510428  0.32644355  1
  O  O614  1  0.58796881  0.18618654  0.57731723  1
  O  O615  1  0.58490863  0.18522343  0.82705050  1
  O  O616  1  0.58786830  0.51822901  0.07766330  1
  O  O617  1  0.58837256  0.51856659  0.32682281  1
  O  O618  1  0.58686410  0.51697487  0.57679810  1
  O  O619  1  0.58667932  0.51910748  0.82824157  1
  O  O620  1  0.59027189  0.85151672  0.07857083  1
  O  O621  1  0.58958643  0.85091885  0.32769367  1
  O  O622  1  0.58893271  0.85175180  0.57702969  1
  O  O623  1  0.58682897  0.85068671  0.82840619  1
  O  O624  1  0.33939935  0.18636390  0.04840088  1
  O  O625  1  0.33731171  0.18503186  0.29748089  1
  O  O626  1  0.33831731  0.18475860  0.54615849  1
  O  O627  1  0.33791179  0.18491304  0.79815474  1
  O  O628  1  0.33772775  0.51705500  0.04788542  1
  O  O629  1  0.34053309  0.51973012  0.29722951  1
  O  O630  1  0.33923940  0.51709285  0.54694508  1
  O  O631  1  0.33947958  0.51888570  0.79805210  1
  O  O632  1  0.33846309  0.85128881  0.04770870  1
  O  O633  1  0.33607469  0.85077344  0.29760540  1
  O  O634  1  0.33581587  0.85239204  0.54779335  1
  O  O635  1  0.33655147  0.85201092  0.79895102  1
  O  O636  1  0.83828315  0.18557222  0.04858499  1
  O  O637  1  0.83711525  0.18538634  0.29703566  1
  O  O638  1  0.83855377  0.18597148  0.54674048  1
  O  O639  1  0.83789317  0.18515859  0.79707702  1
  O  O640  1  0.83663688  0.51858402  0.04847755  1
  O  O641  1  0.83599060  0.51797284  0.29632462  1
  O  O642  1  0.83588979  0.51804438  0.54785248  1
  O  O643  1  0.83864926  0.51700221  0.79754148  1
  O  O644  1  0.83697525  0.85114607  0.04819444  1
  O  O645  1  0.83686576  0.85137096  0.29732736  1
  O  O646  1  0.83723919  0.85106206  0.54760155  1
  O  O647  1  0.83950010  0.85263754  0.79826759  1
  O  O648  1  0.16233689  0.14869672  0.20257574  1
  O  O649  1  0.16250242  0.14789221  0.45231912  1
  O  O650  1  0.16066333  0.14686103  0.70171323  1
  O  O651  1  0.16275506  0.14874626  0.95295950  1
  O  O652  1  0.16151147  0.48084091  0.20162221  1
  O  O653  1  0.16527691  0.48239858  0.45166026  1
  O  O654  1  0.16227592  0.48184104  0.70231036  1
  O  O655  1  0.16277349  0.48327074  0.95264427  1
  O  O656  1  0.16440110  0.81554441  0.20241372  1
  O  O657  1  0.16254167  0.81554523  0.45272028  1
  O  O658  1  0.16229070  0.81590916  0.70344083  1
  O  O659  1  0.16238031  0.81328398  0.95295140  1
  O  O660  1  0.66373045  0.14887725  0.20197171  1
  O  O661  1  0.66297144  0.14745595  0.45213406  1
  O  O662  1  0.66523542  0.14880234  0.70234091  1
  O  O663  1  0.66180507  0.14755277  0.95270712  1
  O  O664  1  0.66228317  0.48116987  0.20190633  1
  O  O665  1  0.66327268  0.48301544  0.45303873  1
  O  O666  1  0.66311687  0.48137906  0.70185736  1
  O  O667  1  0.66194052  0.48297740  0.95332509  1
  O  O668  1  0.66217932  0.81494596  0.20271285  1
  O  O669  1  0.66153286  0.81472914  0.45234112  1
  O  O670  1  0.66227994  0.81497527  0.70365710  1
  O  O671  1  0.66065831  0.81498961  0.95296398  1
