# generated using pymatgen
data_Na2MnFe(PO4)2
_symmetry_space_group_name_H-M   'P 1'
_cell_length_a   21.08753732
_cell_length_b   18.94042127
_cell_length_c   20.04604868
_cell_angle_alpha   90.00058531
_cell_angle_beta   90.00634620
_cell_angle_gamma   90.00295840
_symmetry_Int_Tables_number   1
_chemical_formula_structural   Na2MnFe(PO4)2
_chemical_formula_sum   'Na96 Mn48 Fe48 P96 O384'
_cell_volume   8006.52890465
_cell_formula_units_Z   48
loop_
 _symmetry_equiv_pos_site_id
 _symmetry_equiv_pos_as_xyz
  1  'x, y, z'
loop_
 _atom_site_type_symbol
 _atom_site_label
 _atom_site_symmetry_multiplicity
 _atom_site_fract_x
 _atom_site_fract_y
 _atom_site_fract_z
 _atom_site_occupancy
  Na  Na0  1  -0.00060264  -0.00013559  0.00081890  1
  Na  Na1  1  -0.00070511  0.00005343  0.25067328  1
  Na  Na2  1  0.00268437  0.00102630  0.49930189  1
  Na  Na3  1  0.00184793  0.00059763  0.74951660  1
  Na  Na4  1  0.00043884  0.33367807  0.00017638  1
  Na  Na5  1  -0.00135747  0.33316595  0.25023833  1
  Na  Na6  1  -0.00036859  0.33263329  0.49993937  1
  Na  Na7  1  0.00081196  0.33267704  0.75091744  1
  Na  Na8  1  -0.00224346  0.66556189  0.00092728  1
  Na  Na9  1  -0.00076198  0.66635099  0.24929059  1
  Na  Na10  1  0.00155047  0.66708634  0.49848011  1
  Na  Na11  1  0.00138201  0.66743029  0.75038996  1
  Na  Na12  1  0.49966372  0.00101486  -0.00070336  1
  Na  Na13  1  0.49972991  0.00125590  0.24947575  1
  Na  Na14  1  0.49914046  0.00045785  0.50093495  1
  Na  Na15  1  0.49964587  0.00062947  0.74982741  1
  Na  Na16  1  0.50074740  0.33412998  0.00012137  1
  Na  Na17  1  0.50076529  0.33402555  0.24957768  1
  Na  Na18  1  0.49989896  0.33386052  0.49979040  1
  Na  Na19  1  0.49839780  0.33313026  0.75009393  1
  Na  Na20  1  0.49853005  0.66577430  0.00044785  1
  Na  Na21  1  0.50038456  0.66667743  0.25020377  1
  Na  Na22  1  0.50005693  0.66734848  0.49890548  1
  Na  Na23  1  0.49863906  0.66633935  0.75082700  1
  Na  Na24  1  0.25141062  0.00078898  0.12575459  1
  Na  Na25  1  0.25010870  0.00043500  0.37550785  1
  Na  Na26  1  0.24912084  0.00052550  0.62465449  1
  Na  Na27  1  0.25081417  0.00091574  0.87485542  1
  Na  Na28  1  0.24917810  0.33285610  0.12419665  1
  Na  Na29  1  0.25144115  0.33420494  0.37400092  1
  Na  Na30  1  0.25055050  0.33304064  0.62520199  1
  Na  Na31  1  0.25095517  0.33389205  0.87608643  1
  Na  Na32  1  0.25314533  0.66686416  0.12428649  1
  Na  Na33  1  0.25097867  0.66657600  0.37472098  1
  Na  Na34  1  0.25094017  0.66683705  0.62482413  1
  Na  Na35  1  0.25305938  0.66730773  0.87546919  1
  Na  Na36  1  0.75001845  0.00047401  0.12471791  1
  Na  Na37  1  0.75048495  0.00091748  0.37580697  1
  Na  Na38  1  0.74772213  -0.00078680  0.62375903  1
  Na  Na39  1  0.74886100  0.00012223  0.87545500  1
  Na  Na40  1  0.74914416  0.33361787  0.12560792  1
  Na  Na41  1  0.75124406  0.33365631  0.37529445  1
  Na  Na42  1  0.75103338  0.33333850  0.62550156  1
  Na  Na43  1  0.74929413  0.33347634  0.87433064  1
  Na  Na44  1  0.75108406  0.66630965  0.12547938  1
  Na  Na45  1  0.74830106  0.66581182  0.37497129  1
  Na  Na46  1  0.74690861  0.66611480  0.62470502  1
  Na  Na47  1  0.75061371  0.66702011  0.87463828  1
  Na  Na48  1  0.00274495  0.16614426  -0.00003320  1
  Na  Na49  1  -0.00144481  0.16765719  0.25064391  1
  Na  Na50  1  0.00170117  0.16682100  0.49980470  1
  Na  Na51  1  0.00326566  0.16668918  0.75050006  1
  Na  Na52  1  -0.00151141  0.50005542  0.00110436  1
  Na  Na53  1  0.00005130  0.49963112  0.24926979  1
  Na  Na54  1  0.00103562  0.49945104  0.49895922  1
  Na  Na55  1  -0.00064466  0.50022856  0.75025108  1
  Na  Na56  1  -0.00276716  0.83369389  0.00099510  1
  Na  Na57  1  -0.00264064  0.83395561  0.25015946  1
  Na  Na58  1  0.00126372  0.83295056  0.49897130  1
  Na  Na59  1  0.00028722  0.83344111  0.75004255  1
  Na  Na60  1  0.49991131  0.16646309  -0.00033438  1
  Na  Na61  1  0.50038055  0.16607776  0.24964257  1
  Na  Na62  1  0.49976631  0.16557166  0.49977898  1
  Na  Na63  1  0.49822215  0.16669466  0.75079311  1
  Na  Na64  1  0.49928065  0.50021397  0.00042595  1
  Na  Na65  1  0.50161835  0.49954120  0.24988320  1
  Na  Na66  1  0.50071581  0.49925085  0.49936785  1
  Na  Na67  1  0.49844703  0.49985357  0.75032062  1
  Na  Na68  1  0.49926314  0.83328556  -0.00019729  1
  Na  Na69  1  0.49684669  0.83441794  0.24961918  1
  Na  Na70  1  0.49867066  0.83358791  0.50044239  1
  Na  Na71  1  0.50054536  0.83259423  0.74971756  1
  Na  Na72  1  0.25098831  0.16585595  0.12492609  1
  Na  Na73  1  0.24929333  0.16650462  0.37490028  1
  Na  Na74  1  0.24873237  0.16676061  0.62541005  1
  Na  Na75  1  0.24922065  0.16694755  0.87517062  1
  Na  Na76  1  0.25142473  0.49988105  0.12394220  1
  Na  Na77  1  0.25038872  0.50004532  0.37397103  1
  Na  Na78  1  0.25265371  0.49898103  0.62524406  1
  Na  Na79  1  0.25282544  0.49923365  0.87644246  1
  Na  Na80  1  0.25207580  0.83277348  0.12529832  1
  Na  Na81  1  0.25281032  0.83207327  0.37538981  1
  Na  Na82  1  0.24962102  0.83357937  0.62404407  1
  Na  Na83  1  0.25206109  0.83226776  0.87489229  1
  Na  Na84  1  0.74933593  0.16678957  0.12559820  1
  Na  Na85  1  0.75027504  0.16632798  0.37577812  1
  Na  Na86  1  0.74940626  0.16676651  0.62415860  1
  Na  Na87  1  0.74943001  0.16666461  0.87431875  1
  Na  Na88  1  0.74983488  0.49890916  0.12537949  1
  Na  Na89  1  0.74749220  0.50057195  0.37420265  1
  Na  Na90  1  0.74791929  0.49976905  0.62565585  1
  Na  Na91  1  0.74809187  0.50004500  0.87518567  1
  Na  Na92  1  0.75202655  0.83292732  0.12458754  1
  Na  Na93  1  0.75262411  0.83240498  0.37623646  1
  Na  Na94  1  0.74843547  0.83442215  0.62404692  1
  Na  Na95  1  0.75092889  0.83302685  0.87504444  1
  Mn  Mn96  1  0.10817833  0.75015528  0.37184006  1
  Mn  Mn97  1  0.64235650  0.91616339  0.24849616  1
  Mn  Mn98  1  0.89143642  0.58368078  0.87748418  1
  Mn  Mn99  1  0.85753678  0.41727531  0.50215480  1
  Mn  Mn100  1  0.10757101  0.74949074  0.12289964  1
  Mn  Mn101  1  0.14241177  0.25077119  0.24744838  1
  Mn  Mn102  1  0.64137249  0.91645821  0.49691152  1
  Mn  Mn103  1  0.60766101  0.74958621  0.87294767  1
  Mn  Mn104  1  0.64210610  0.25051496  0.49784700  1
  Mn  Mn105  1  0.64075636  0.58427994  0.74783256  1
  Mn  Mn106  1  0.10800923  0.08374316  0.12356678  1
  Mn  Mn107  1  0.10839063  0.41641780  0.37218004  1
  Mn  Mn108  1  0.89291109  0.24952237  0.87749424  1
  Mn  Mn109  1  0.60705490  0.08388223  0.87231723  1
  Mn  Mn110  1  0.85763846  0.41674863  0.75233681  1
  Mn  Mn111  1  0.60703869  0.75107613  0.37213037  1
  Mn  Mn112  1  0.89190255  0.58314530  0.37722974  1
  Mn  Mn113  1  0.85826934  0.08278002  0.75147585  1
  Mn  Mn114  1  0.60695436  0.41640245  0.62278260  1
  Mn  Mn115  1  0.89208146  0.58321940  0.62685154  1
  Mn  Mn116  1  0.39225272  0.91666033  0.12731523  1
  Mn  Mn117  1  0.39215011  0.24963597  0.37730883  1
  Mn  Mn118  1  0.64136460  0.24887268  0.74752697  1
  Mn  Mn119  1  0.64267995  0.24985781  0.24817967  1
  Mn  Mn120  1  0.39283879  0.58353582  0.37680140  1
  Mn  Mn121  1  0.85762221  0.74915393  0.50288179  1
  Mn  Mn122  1  0.64243622  0.91618015  0.99748523  1
  Mn  Mn123  1  0.85781071  0.75030676  0.75099929  1
  Mn  Mn124  1  0.14283713  0.58285430  0.49759939  1
  Mn  Mn125  1  0.14222909  0.91636038  0.74799391  1
  Mn  Mn126  1  0.39227741  0.58346293  0.62688688  1
  Mn  Mn127  1  0.14321293  0.58299276  0.74824566  1
  Mn  Mn128  1  0.89185044  0.25032938  0.12652050  1
  Mn  Mn129  1  0.60787328  0.75032997  0.12282953  1
  Mn  Mn130  1  0.85782194  0.08442408  0.00192606  1
  Mn  Mn131  1  0.85811553  0.08344945  0.50275602  1
  Mn  Mn132  1  0.39109239  0.24963803  0.62708992  1
  Mn  Mn133  1  0.14311109  0.91559838  0.24795620  1
  Mn  Mn134  1  0.89141581  0.91678187  0.12807087  1
  Mn  Mn135  1  0.10794865  0.75029168  0.87372090  1
  Mn  Mn136  1  0.10883433  0.41717320  0.62296201  1
  Mn  Mn137  1  0.39190302  0.91678770  0.87707928  1
  Mn  Mn138  1  0.14318509  0.58351479  0.99820571  1
  Mn  Mn139  1  0.39177488  0.91662672  0.62749877  1
  Mn  Mn140  1  0.10826923  0.41700409  0.87333169  1
  Mn  Mn141  1  0.89338442  0.91721007  0.62727321  1
  Mn  Mn142  1  0.14233563  0.91650774  0.99784909  1
  Mn  Mn143  1  0.39279464  0.25060151  0.12708986  1
  Fe  Fe144  1  0.35650805  0.08364710  0.75166132  1
  Fe  Fe145  1  0.89228255  0.91727323  0.87577522  1
  Fe  Fe146  1  0.10816559  0.08258824  0.87382339  1
  Fe  Fe147  1  0.35781413  0.41629277  0.50092208  1
  Fe  Fe148  1  0.60599048  0.41642018  0.87390781  1
  Fe  Fe149  1  0.14352254  0.58321664  0.24762105  1
  Fe  Fe150  1  0.89300410  0.24943946  0.37715999  1
  Fe  Fe151  1  0.35807111  0.08341080  0.25242117  1
  Fe  Fe152  1  0.10842919  0.08320634  0.62288988  1
  Fe  Fe153  1  0.35770973  0.74950609  0.25190173  1
  Fe  Fe154  1  0.85711606  0.08337853  0.25255664  1
  Fe  Fe155  1  0.85717415  0.74900547  0.00167853  1
  Fe  Fe156  1  0.89188386  0.58242625  0.12713103  1
  Fe  Fe157  1  0.10693933  0.41705549  0.12342517  1
  Fe  Fe158  1  0.39369104  0.58280109  0.12727311  1
  Fe  Fe159  1  0.64282246  0.58294778  0.99874458  1
  Fe  Fe160  1  0.60717796  0.41579469  0.37300679  1
  Fe  Fe161  1  0.89416204  0.24972960  0.62681806  1
  Fe  Fe162  1  0.64309555  0.58356361  0.24772695  1
  Fe  Fe163  1  0.39278124  0.58276049  0.87723198  1
  Fe  Fe164  1  0.85706012  0.74976564  0.25213420  1
  Fe  Fe165  1  0.39204862  0.91743015  0.37694981  1
  Fe  Fe166  1  0.10715820  0.08337438  0.37289881  1
  Fe  Fe167  1  0.60659241  0.75038203  0.62310907  1
  Fe  Fe168  1  0.14349496  0.25005817  0.99860921  1
  Fe  Fe169  1  0.35760700  0.41667064  0.25104352  1
  Fe  Fe170  1  0.10879154  0.75007838  0.62328042  1
  Fe  Fe171  1  0.39180047  0.25036155  0.87730418  1
  Fe  Fe172  1  0.85672300  0.41640589  0.25187274  1
  Fe  Fe173  1  0.60750163  0.08377589  0.12343269  1
  Fe  Fe174  1  0.64207487  0.25064450  0.99800043  1
  Fe  Fe175  1  0.35692657  0.08342929  0.00165146  1
  Fe  Fe176  1  0.35827082  0.75043205  0.00219453  1
  Fe  Fe177  1  0.14370640  0.25076578  0.74873755  1
  Fe  Fe178  1  0.35779441  0.41633998  0.75259609  1
  Fe  Fe179  1  0.64225629  0.91683768  0.74851772  1
  Fe  Fe180  1  0.14285237  0.25018760  0.49823263  1
  Fe  Fe181  1  0.35785046  0.41627231  0.00271210  1
  Fe  Fe182  1  0.60651698  0.08335801  0.37335068  1
  Fe  Fe183  1  0.35706177  0.75004024  0.50212858  1
  Fe  Fe184  1  0.60630099  0.08321807  0.62341748  1
  Fe  Fe185  1  0.85619952  0.41684875  0.00168825  1
  Fe  Fe186  1  0.35627428  0.08366939  0.50174417  1
  Fe  Fe187  1  0.60761484  0.41646986  0.12277976  1
  Fe  Fe188  1  0.14339918  0.91680468  0.49769794  1
  Fe  Fe189  1  0.89316813  0.91749064  0.37691120  1
  Fe  Fe190  1  0.64160112  0.58312419  0.49806260  1
  Fe  Fe191  1  0.35775835  0.74996424  0.75164713  1
  P  P192  1  0.05415637  0.25126320  0.10968368  1
  P  P193  1  0.05390698  0.24937561  0.36106193  1
  P  P194  1  0.05542811  0.24984628  0.61077270  1
  P  P195  1  0.05638161  0.24938740  0.86114158  1
  P  P196  1  0.05340323  0.58245342  0.11127867  1
  P  P197  1  0.05440498  0.58321325  0.35826744  1
  P  P198  1  0.05370149  0.58394340  0.60966232  1
  P  P199  1  0.05326031  0.58338624  0.86045311  1
  P  P200  1  0.05313852  0.91643337  0.11050911  1
  P  P201  1  0.05399477  0.91742460  0.36085230  1
  P  P202  1  0.05513823  0.91658752  0.60905139  1
  P  P203  1  0.05222242  0.91708566  0.86041622  1
  P  P204  1  0.55438058  0.25007840  0.10962073  1
  P  P205  1  0.55322643  0.24963609  0.36005502  1
  P  P206  1  0.55232817  0.24891555  0.60989020  1
  P  P207  1  0.55246860  0.25113541  0.86124442  1
  P  P208  1  0.55467500  0.58280953  0.11081378  1
  P  P209  1  0.55531870  0.58265262  0.36008134  1
  P  P210  1  0.55329196  0.58420312  0.60919585  1
  P  P211  1  0.55295369  0.58222293  0.86191637  1
  P  P212  1  0.55339040  0.91755190  0.10990006  1
  P  P213  1  0.55114654  0.91776777  0.35978577  1
  P  P214  1  0.55413916  0.91688261  0.61131345  1
  P  P215  1  0.55356094  0.91667541  0.85919299  1
  P  P216  1  0.44609042  0.08384232  0.13914998  1
  P  P217  1  0.44545854  0.08271666  0.38977542  1
  P  P218  1  0.44509342  0.08333855  0.63960014  1
  P  P219  1  0.44401629  0.08434358  0.88925363  1
  P  P220  1  0.44664725  0.41733652  0.13937919  1
  P  P221  1  0.44632971  0.41673042  0.38885585  1
  P  P222  1  0.44437758  0.41639693  0.63956829  1
  P  P223  1  0.44520844  0.41622797  0.88991605  1
  P  P224  1  0.44521106  0.74895282  0.13961234  1
  P  P225  1  0.44436683  0.75098777  0.38936532  1
  P  P226  1  0.44591954  0.74999457  0.63939359  1
  P  P227  1  0.44499942  0.74942881  0.88959006  1
  P  P228  1  0.94594258  0.08402613  0.14107072  1
  P  P229  1  0.94643073  0.08353002  0.38913219  1
  P  P230  1  0.94914886  0.08436797  0.63967190  1
  P  P231  1  0.94827642  0.08282929  0.88979578  1
  P  P232  1  0.94520898  0.41706574  0.13943077  1
  P  P233  1  0.94552181  0.41599796  0.38867584  1
  P  P234  1  0.94723889  0.41571101  0.64001807  1
  P  P235  1  0.94594847  0.41643277  0.89123828  1
  P  P236  1  0.94408385  0.74853382  0.13971637  1
  P  P237  1  0.94515869  0.75049593  0.38870292  1
  P  P238  1  0.94892210  0.74998585  0.63955982  1
  P  P239  1  0.94577562  0.75111011  0.89054790  1
  P  P240  1  0.19731304  0.08320248  0.23645921  1
  P  P241  1  0.19544565  0.08351682  0.48563562  1
  P  P242  1  0.19594161  0.08408977  0.73599587  1
  P  P243  1  0.19714900  0.08377560  0.98508467  1
  P  P244  1  0.19750763  0.41762023  0.23378119  1
  P  P245  1  0.19836324  0.41571987  0.48476054  1
  P  P246  1  0.19874790  0.41620346  0.73586855  1
  P  P247  1  0.19709238  0.41648693  0.98678655  1
  P  P248  1  0.19852328  0.74891154  0.23482110  1
  P  P249  1  0.19686843  0.75057928  0.48575838  1
  P  P250  1  0.19801158  0.74971265  0.73488167  1
  P  P251  1  0.19875495  0.74975166  0.98540441  1
  P  P252  1  0.69609023  0.08301545  0.23613060  1
  P  P253  1  0.69441995  0.08358716  0.48533422  1
  P  P254  1  0.69588234  0.08236468  0.73389401  1
  P  P255  1  0.69503166  0.08457871  0.98601761  1
  P  P256  1  0.69553580  0.41682583  0.23577236  1
  P  P257  1  0.69545146  0.41705861  0.48433794  1
  P  P258  1  0.69450364  0.41627203  0.73630905  1
  P  P259  1  0.69509107  0.41677985  0.98581510  1
  P  P260  1  0.69787835  0.75001068  0.23521595  1
  P  P261  1  0.69468139  0.74934027  0.48575951  1
  P  P262  1  0.69559253  0.75130672  0.73417132  1
  P  P263  1  0.69780245  0.74857054  0.98534775  1
  P  P264  1  0.30384948  0.24977123  0.01394367  1
  P  P265  1  0.30390008  0.25039042  0.26445085  1
  P  P266  1  0.30211593  0.24948571  0.51445771  1
  P  P267  1  0.30306384  0.24981237  0.76573744  1
  P  P268  1  0.30658856  0.58315166  0.01459178  1
  P  P269  1  0.30425142  0.58259471  0.26323540  1
  P  P270  1  0.30401795  0.58303139  0.51443206  1
  P  P271  1  0.30477116  0.58328298  0.76574074  1
  P  P272  1  0.30360538  0.91719211  0.01499673  1
  P  P273  1  0.30457005  0.91673579  0.26584408  1
  P  P274  1  0.30361414  0.91735316  0.51363209  1
  P  P275  1  0.30320973  0.91683135  0.76459346  1
  P  P276  1  0.80149659  0.25119866  0.01467724  1
  P  P277  1  0.80429164  0.24999604  0.26562237  1
  P  P278  1  0.80541087  0.25011159  0.51492155  1
  P  P279  1  0.80455583  0.24925417  0.76386267  1
  P  P280  1  0.80262293  0.58244884  0.01547951  1
  P  P281  1  0.80328067  0.58272123  0.26378346  1
  P  P282  1  0.80117212  0.58294139  0.51515964  1
  P  P283  1  0.80246363  0.58354980  0.76488082  1
  P  P284  1  0.80479352  0.91646523  0.01355407  1
  P  P285  1  0.80395439  0.91702803  0.26615923  1
  P  P286  1  0.80460977  0.91689008  0.51414184  1
  P  P287  1  0.80246125  0.91698186  0.76497241  1
  O  O288  1  0.05678404  0.25070268  0.18652335  1
  O  O289  1  0.05901229  0.25032217  0.43771960  1
  O  O290  1  0.06021159  0.25073205  0.68750207  1
  O  O291  1  0.06065398  0.25042539  0.93792825  1
  O  O292  1  0.05893983  0.58330238  0.18786114  1
  O  O293  1  0.05818774  0.58317845  0.43505737  1
  O  O294  1  0.05690003  0.58320821  0.68643629  1
  O  O295  1  0.05679306  0.58307188  0.93723690  1
  O  O296  1  0.05680205  0.91610667  0.18726950  1
  O  O297  1  0.05930147  0.91652979  0.43747427  1
  O  O298  1  0.05755081  0.91645316  0.68588883  1
  O  O299  1  0.05573728  0.91639658  0.93713711  1
  O  O300  1  0.55726144  0.24994669  0.18639215  1
  O  O301  1  0.55585001  0.24992647  0.43676954  1
  O  O302  1  0.55506153  0.24941709  0.68669110  1
  O  O303  1  0.55751109  0.25046888  0.93786579  1
  O  O304  1  0.55964776  0.58366831  0.18754106  1
  O  O305  1  0.55859210  0.58333427  0.43687100  1
  O  O306  1  0.55538919  0.58351976  0.68608924  1
  O  O307  1  0.55797117  0.58320443  0.93853271  1
  O  O308  1  0.55629833  0.91684701  0.18665264  1
  O  O309  1  0.55487951  0.91682625  0.43649614  1
  O  O310  1  0.55792644  0.91681528  0.68799963  1
  O  O311  1  0.55682926  0.91670092  0.93601200  1
  O  O312  1  0.44095524  0.08379685  0.06250542  1
  O  O313  1  0.44109513  0.08359259  0.31299591  1
  O  O314  1  0.44003814  0.08351667  0.56291248  1
  O  O315  1  0.43965352  0.08362761  0.81247919  1
  O  O316  1  0.44167710  0.41644355  0.06270642  1
  O  O317  1  0.44153525  0.41676255  0.31219129  1
  O  O318  1  0.44024283  0.41613859  0.56274243  1
  O  O319  1  0.44107476  0.41604211  0.81313437  1
  O  O320  1  0.44154162  0.74990504  0.06280707  1
  O  O321  1  0.44038861  0.74976602  0.31252439  1
  O  O322  1  0.44076172  0.75023234  0.56267716  1
  O  O323  1  0.44108553  0.75023170  0.81277342  1
  O  O324  1  0.94288363  0.08409109  0.06426359  1
  O  O325  1  0.94157863  0.08346525  0.31249846  1
  O  O326  1  0.94507444  0.08388777  0.56302527  1
  O  O327  1  0.94467977  0.08368179  0.81312802  1
  O  O328  1  0.94021535  0.41656234  0.06279428  1
  O  O329  1  0.94092463  0.41687740  0.31194668  1
  O  O330  1  0.94412399  0.41654436  0.56322385  1
  O  O331  1  0.94284054  0.41631376  0.81444697  1
  O  O332  1  0.93982546  0.74889394  0.06293533  1
  O  O333  1  0.94043461  0.74955969  0.31193622  1
  O  O334  1  0.94471654  0.74960447  0.56285315  1
  O  O335  1  0.94323689  0.75012569  0.81374208  1
  O  O336  1  0.19368868  0.08310527  0.06183324  1
  O  O337  1  0.19188030  0.08334114  0.31307246  1
  O  O338  1  0.19147564  0.08351888  0.56244091  1
  O  O339  1  0.19162482  0.08281940  0.81266498  1
  O  O340  1  0.19175413  0.41715740  0.06332450  1
  O  O341  1  0.19397891  0.41702761  0.31052775  1
  O  O342  1  0.19484628  0.41622568  0.56144994  1
  O  O343  1  0.19492824  0.41699566  0.81251831  1
  O  O344  1  0.19429570  0.74957339  0.06204680  1
  O  O345  1  0.19461605  0.74949939  0.31152287  1
  O  O346  1  0.19222491  0.75006238  0.56243298  1
  O  O347  1  0.19407487  0.74983777  0.81156297  1
  O  O348  1  0.69112704  0.08391900  0.06280308  1
  O  O349  1  0.69082512  0.08312104  0.31277984  1
  O  O350  1  0.68966648  0.08344970  0.56200532  1
  O  O351  1  0.69275026  0.08356182  0.81072809  1
  O  O352  1  0.69108295  0.41650947  0.06261153  1
  O  O353  1  0.69084600  0.41601195  0.31241488  1
  O  O354  1  0.69250954  0.41584752  0.56115310  1
  O  O355  1  0.68991529  0.41613148  0.81304840  1
  O  O356  1  0.69415033  0.74938879  0.06201294  1
  O  O357  1  0.69371325  0.75071426  0.31187215  1
  O  O358  1  0.69023210  0.75051230  0.56245296  1
  O  O359  1  0.69300656  0.75028555  0.81101199  1
  O  O360  1  0.30679503  0.24998049  0.18769700  1
  O  O361  1  0.30575356  0.24937040  0.43779199  1
  O  O362  1  0.30596716  0.24956812  0.68898881  1
  O  O363  1  0.30790241  0.25033795  0.93727924  1
  O  O364  1  0.30892201  0.58262752  0.18658915  1
  O  O365  1  0.30672559  0.58312094  0.43764930  1
  O  O366  1  0.30702278  0.58343451  0.68893445  1
  O  O367  1  0.31021044  0.58284084  0.93777540  1
  O  O368  1  0.30721310  0.91716774  0.18899814  1
  O  O369  1  0.30799312  0.91730389  0.43700024  1
  O  O370  1  0.30554756  0.91705423  0.68777690  1
  O  O371  1  0.30614387  0.91699062  0.93827686  1
  O  O372  1  0.80654639  0.25008036  0.18882645  1
  O  O373  1  0.80979427  0.24954288  0.43814325  1
  O  O374  1  0.80959477  0.24913954  0.68717447  1
  O  O375  1  0.80560295  0.25026824  0.93801256  1
  O  O376  1  0.80779463  0.58234430  0.18712447  1
  O  O377  1  0.80545852  0.58309585  0.43846029  1
  O  O378  1  0.80584812  0.58325361  0.68812784  1
  O  O379  1  0.80570683  0.58255368  0.93874524  1
  O  O380  1  0.80610315  0.91735126  0.18924410  1
  O  O381  1  0.80978940  0.91742562  0.43747208  1
  O  O382  1  0.80663326  0.91736484  0.68823730  1
  O  O383  1  0.80868639  0.91745436  0.93681522  1
  O  O384  1  0.23366358  0.24950946  0.03832271  1
  O  O385  1  0.23428478  0.25063003  0.28981856  1
  O  O386  1  0.23225603  0.24948471  0.53951156  1
  O  O387  1  0.23310597  0.25021841  0.79067288  1
  O  O388  1  0.23651680  0.58322812  0.03876681  1
  O  O389  1  0.23405709  0.58291448  0.28742507  1
  O  O390  1  0.23455763  0.58294791  0.54018357  1
  O  O391  1  0.23531962  0.58325826  0.79175597  1
  O  O392  1  0.23421401  0.91692964  0.04108235  1
  O  O393  1  0.23493548  0.91627258  0.29122171  1
  O  O394  1  0.23340005  0.91748233  0.53775281  1
  O  O395  1  0.23378410  0.91648563  0.79053928  1
  O  O396  1  0.73156525  0.25096740  0.03945242  1
  O  O397  1  0.73464375  0.24992551  0.29109484  1
  O  O398  1  0.73519063  0.25017147  0.53846430  1
  O  O399  1  0.73434373  0.24938895  0.78743834  1
  O  O400  1  0.73262335  0.58238021  0.04040106  1
  O  O401  1  0.73287555  0.58299378  0.28752370  1
  O  O402  1  0.73107258  0.58280121  0.53928456  1
  O  O403  1  0.73271876  0.58380033  0.78981924  1
  O  O404  1  0.73488259  0.91666515  0.03824165  1
  O  O405  1  0.73443008  0.91669674  0.29197775  1
  O  O406  1  0.73426988  0.91690619  0.53704226  1
  O  O407  1  0.73239693  0.91680528  0.78936227  1
  O  O408  1  0.26779355  0.08328272  0.21320145  1
  O  O409  1  0.26581707  0.08343315  0.46175494  1
  O  O410  1  0.26628177  0.08368773  0.71199852  1
  O  O411  1  0.26718554  0.08381735  0.96051478  1
  O  O412  1  0.26761780  0.41656373  0.20935555  1
  O  O413  1  0.26834849  0.41647413  0.45985750  1
  O  O414  1  0.26883094  0.41602089  0.71141271  1
  O  O415  1  0.26764397  0.41672328  0.96365616  1
  O  O416  1  0.26872558  0.74943260  0.21071805  1
  O  O417  1  0.26729139  0.74992401  0.46218435  1
  O  O418  1  0.26820783  0.74995135  0.71059923  1
  O  O419  1  0.26899031  0.74975181  0.96159208  1
  O  O420  1  0.76662739  0.08354263  0.21299926  1
  O  O421  1  0.76477030  0.08362055  0.46221143  1
  O  O422  1  0.76556548  0.08291108  0.70870765  1
  O  O423  1  0.76494170  0.08398912  0.96142269  1
  O  O424  1  0.76602991  0.41619387  0.21239497  1
  O  O425  1  0.76512645  0.41705008  0.45922278  1
  O  O426  1  0.76452131  0.41646229  0.71225891  1
  O  O427  1  0.76532326  0.41704212  0.96163478  1
  O  O428  1  0.76799868  0.74992877  0.21099419  1
  O  O429  1  0.76472466  0.74936760  0.46173037  1
  O  O430  1  0.76515003  0.75041345  0.70854821  1
  O  O431  1  0.76780844  0.74896935  0.96068988  1
  O  O432  1  0.01573307  0.08408714  0.16597876  1
  O  O433  1  0.01679305  0.08367855  0.41290591  1
  O  O434  1  0.01932901  0.08372903  0.66389131  1
  O  O435  1  0.01824953  0.08299137  0.91470165  1
  O  O436  1  0.01565832  0.41659805  0.16299407  1
  O  O437  1  0.01562964  0.41616872  0.41263655  1
  O  O438  1  0.01687688  0.41612464  0.66541092  1
  O  O439  1  0.01578982  0.41665022  0.91593932  1
  O  O440  1  0.01421328  0.74980890  0.16372050  1
  O  O441  1  0.01541481  0.75010106  0.41212693  1
  O  O442  1  0.01897526  0.75060802  0.66402764  1
  O  O443  1  0.01531577  0.74984199  0.91640518  1
  O  O444  1  0.51661213  0.08400575  0.16235807  1
  O  O445  1  0.51575771  0.08311886  0.41352933  1
  O  O446  1  0.51545050  0.08330198  0.66308214  1
  O  O447  1  0.51422274  0.08375410  0.91284990  1
  O  O448  1  0.51717396  0.41679358  0.16250108  1
  O  O449  1  0.51670254  0.41643591  0.41237126  1
  O  O450  1  0.51436866  0.41653507  0.66366077  1
  O  O451  1  0.51546441  0.41663678  0.91403470  1
  O  O452  1  0.51514812  0.75011455  0.16411932  1
  O  O453  1  0.51445037  0.75043932  0.41326802  1
  O  O454  1  0.51626972  0.74991064  0.66281906  1
  O  O455  1  0.51500992  0.74997718  0.91398879  1
  O  O456  1  0.48461335  0.25028148  0.08459751  1
  O  O457  1  0.48374678  0.24980456  0.33425106  1
  O  O458  1  0.48279183  0.24941782  0.58433030  1
  O  O459  1  0.48212671  0.25034424  0.83756340  1
  O  O460  1  0.48420079  0.58282388  0.08758976  1
  O  O461  1  0.48530412  0.58329257  0.33562381  1
  O  O462  1  0.48382003  0.58348878  0.58339757  1
  O  O463  1  0.48263058  0.58241457  0.83807139  1
  O  O464  1  0.48374519  0.91731582  0.08451893  1
  O  O465  1  0.48120914  0.91779366  0.33512354  1
  O  O466  1  0.48418923  0.91696779  0.58669030  1
  O  O467  1  0.48377296  0.91676578  0.83448215  1
  O  O468  1  0.98449821  0.25019142  0.08441511  1
  O  O469  1  0.98355776  0.24968824  0.33749417  1
  O  O470  1  0.98512231  0.24983937  0.58694064  1
  O  O471  1  0.98625607  0.24983330  0.83723723  1
  O  O472  1  0.98289800  0.58244024  0.08810923  1
  O  O473  1  0.98440350  0.58314015  0.33420640  1
  O  O474  1  0.98419696  0.58340023  0.58386792  1
  O  O475  1  0.98351505  0.58368752  0.83562202  1
  O  O476  1  0.98323679  0.91664848  0.08616670  1
  O  O477  1  0.98357938  0.91726179  0.33745051  1
  O  O478  1  0.98553536  0.91693861  0.58344884  1
  O  O479  1  0.98244773  0.91724041  0.83504100  1
  O  O480  1  0.08797790  0.31665218  0.07761384  1
  O  O481  1  0.08717619  0.31423412  0.32727483  1
  O  O482  1  0.08883714  0.31471183  0.57694627  1
  O  O483  1  0.09015849  0.31420070  0.82755480  1
  O  O484  1  0.08646213  0.64743638  0.07741091  1
  O  O485  1  0.08846253  0.64819526  0.32556839  1
  O  O486  1  0.08777790  0.64919381  0.57758253  1
  O  O487  1  0.08755249  0.64837354  0.82823203  1
  O  O488  1  0.08697056  0.98169298  0.07825911  1
  O  O489  1  0.08712520  0.98270590  0.32790554  1
  O  O490  1  0.08966613  0.98174981  0.57713505  1
  O  O491  1  0.08662919  0.98204625  0.82816731  1
  O  O492  1  0.58848843  0.31527012  0.07731267  1
  O  O493  1  0.58760189  0.31457223  0.32765590  1
  O  O494  1  0.58672021  0.31392422  0.57759394  1
  O  O495  1  0.58535970  0.31640698  0.82812255  1
  O  O496  1  0.58786715  0.64770444  0.07697272  1
  O  O497  1  0.58932113  0.64749595  0.32686052  1
  O  O498  1  0.58738019  0.64945812  0.57732950  1
  O  O499  1  0.58607891  0.64722442  0.82817897  1
  O  O500  1  0.58742664  0.98270752  0.07785013  1
  O  O501  1  0.58530584  0.98278862  0.32758944  1
  O  O502  1  0.58763569  0.98204895  0.57833215  1
  O  O503  1  0.58772133  0.98161669  0.82664963  1
  O  O504  1  0.41286617  0.01888213  0.17275231  1
  O  O505  1  0.41201536  0.01771595  0.42291136  1
  O  O506  1  0.41166617  0.01841936  0.67297671  1
  O  O507  1  0.41038217  0.01947201  0.92268416  1
  O  O508  1  0.41310828  0.35257292  0.17299913  1
  O  O509  1  0.41272425  0.35192707  0.42243280  1
  O  O510  1  0.41072824  0.35146841  0.67280243  1
  O  O511  1  0.41186436  0.35112088  0.92324589  1
  O  O512  1  0.41222206  0.68340118  0.17232154  1
  O  O513  1  0.41060072  0.68609938  0.42268610  1
  O  O514  1  0.41258244  0.68502343  0.67271476  1
  O  O515  1  0.41168586  0.68420130  0.92234639  1
  O  O516  1  0.91170285  0.01906689  0.17359226  1
  O  O517  1  0.91336908  0.01842484  0.42264489  1
  O  O518  1  0.91532039  0.01930175  0.67249775  1
  O  O519  1  0.91413811  0.01781857  0.92202286  1
  O  O520  1  0.91167685  0.35213474  0.17288704  1
  O  O521  1  0.91213870  0.35080466  0.42144860  1
  O  O522  1  0.91341190  0.35029987  0.67210492  1
  O  O523  1  0.91185720  0.35139852  0.92383747  1
  O  O524  1  0.91112285  0.68305912  0.17262877  1
  O  O525  1  0.91187412  0.68540149  0.42218792  1
  O  O526  1  0.91518949  0.68500246  0.67246219  1
  O  O527  1  0.91056886  0.68657759  0.92319077  1
  O  O528  1  0.16425667  0.01815957  0.20301143  1
  O  O529  1  0.16195886  0.01846996  0.45246831  1
  O  O530  1  0.16224816  0.01942584  0.70222162  1
  O  O531  1  0.16332396  0.01878755  0.95197505  1
  O  O532  1  0.16285191  0.35292533  0.20120827  1
  O  O533  1  0.16485220  0.35044886  0.45213080  1
  O  O534  1  0.16489828  0.35113923  0.70334991  1
  O  O535  1  0.16418598  0.35129907  0.95350864  1
  O  O536  1  0.16503878  0.68384165  0.20193555  1
  O  O537  1  0.16339156  0.68575167  0.45224169  1
  O  O538  1  0.16436975  0.68464987  0.70198039  1
  O  O539  1  0.16530546  0.68474063  0.95233555  1
  O  O540  1  0.66305203  0.01795786  0.20255381  1
  O  O541  1  0.66090218  0.01875824  0.45164866  1
  O  O542  1  0.66182493  0.01701049  0.70207779  1
  O  O543  1  0.66103973  0.01974056  0.95295272  1
  O  O544  1  0.66196021  0.35205328  0.20211946  1
  O  O545  1  0.66130978  0.35211138  0.45140186  1
  O  O546  1  0.66114951  0.35126419  0.70292805  1
  O  O547  1  0.66146190  0.35184175  0.95247045  1
  O  O548  1  0.66401427  0.68504090  0.20254763  1
  O  O549  1  0.66111417  0.68413071  0.45319485  1
  O  O550  1  0.66039381  0.68670743  0.70189007  1
  O  O551  1  0.66414185  0.68324395  0.95295336  1
  O  O552  1  0.33728641  0.31473350  0.04737607  1
  O  O553  1  0.33805199  0.31574121  0.29630411  1
  O  O554  1  0.33619117  0.31455202  0.54680187  1
  O  O555  1  0.33748502  0.31465807  0.79829146  1
  O  O556  1  0.34037958  0.64822421  0.04731005  1
  O  O557  1  0.33788065  0.64747592  0.29656838  1
  O  O558  1  0.33812847  0.64818357  0.54675176  1
  O  O559  1  0.33935443  0.64832594  0.79771016  1
  O  O560  1  0.33766578  0.98257142  0.04701581  1
  O  O561  1  0.33861348  0.98188908  0.29830819  1
  O  O562  1  0.33693974  0.98246694  0.54683087  1
  O  O563  1  0.33725990  0.98199878  0.79675479  1
  O  O564  1  0.83518237  0.31642062  0.04723977  1
  O  O565  1  0.83855220  0.31513991  0.29774342  1
  O  O566  1  0.83891535  0.31520614  0.54784282  1
  O  O567  1  0.83795154  0.31421345  0.79724998  1
  O  O568  1  0.83688980  0.64733014  0.04803254  1
  O  O569  1  0.83649054  0.64781730  0.29704560  1
  O  O570  1  0.83489891  0.64790398  0.54818032  1
  O  O571  1  0.83657535  0.64877522  0.79693202  1
  O  O572  1  0.83843787  0.98135044  0.04697129  1
  O  O573  1  0.83829224  0.98218775  0.29834728  1
  O  O574  1  0.83772920  0.98184862  0.54786485  1
  O  O575  1  0.83636216  0.98191554  0.79807385  1
  O  O576  1  0.41281682  0.14875651  0.17274685  1
  O  O577  1  0.41177639  0.14759233  0.42322520  1
  O  O578  1  0.41162672  0.14822374  0.67307204  1
  O  O579  1  0.41088497  0.14953253  0.92240521  1
  O  O580  1  0.41364333  0.48244041  0.17279055  1
  O  O581  1  0.41318770  0.48177704  0.42230711  1
  O  O582  1  0.41079042  0.48137699  0.67262403  1
  O  O583  1  0.41162943  0.48117413  0.92304348  1
  O  O584  1  0.41059974  0.81348727  0.17256046  1
  O  O585  1  0.41106946  0.81626463  0.42213208  1
  O  O586  1  0.41255390  0.81486350  0.67295901  1
  O  O587  1  0.41104018  0.81431237  0.92276449  1
  O  O588  1  0.91166988  0.14901881  0.17333432  1
  O  O589  1  0.91322091  0.14864073  0.42247051  1
  O  O590  1  0.91572546  0.14941064  0.67260820  1
  O  O591  1  0.91449898  0.14785438  0.92297831  1
  O  O592  1  0.91186513  0.48209533  0.17287358  1
  O  O593  1  0.91220854  0.48108685  0.42213555  1
  O  O594  1  0.91278889  0.48063940  0.67242043  1
  O  O595  1  0.91151413  0.48132020  0.92365359  1
  O  O596  1  0.90976862  0.81323195  0.17278994  1
  O  O597  1  0.91205167  0.81576524  0.42156510  1
  O  O598  1  0.91485793  0.81505891  0.67203145  1
  O  O599  1  0.91204162  0.81674130  0.92212905  1
  O  O600  1  0.08919824  0.18656614  0.07750194  1
  O  O601  1  0.08705296  0.18414606  0.32799426  1
  O  O602  1  0.08888506  0.18468719  0.57778844  1
  O  O603  1  0.08976605  0.18408659  0.82850259  1
  O  O604  1  0.08657589  0.51725967  0.07807213  1
  O  O605  1  0.08850446  0.51821558  0.32568882  1
  O  O606  1  0.08812274  0.51888059  0.57724645  1
  O  O607  1  0.08709589  0.51826066  0.82776557  1
  O  O608  1  0.08682653  0.85141368  0.07761863  1
  O  O609  1  0.08707868  0.85246830  0.32700326  1
  O  O610  1  0.08948818  0.85155617  0.57674161  1
  O  O611  1  0.08619286  0.85200236  0.82774845  1
  O  O612  1  0.58844440  0.18512210  0.07703414  1
  O  O613  1  0.58727480  0.18431326  0.32798151  1
  O  O614  1  0.58641908  0.18379376  0.57783139  1
  O  O615  1  0.58609235  0.18634818  0.82760557  1
  O  O616  1  0.58789965  0.51766117  0.07768996  1
  O  O617  1  0.58874621  0.51734828  0.32749738  1
  O  O618  1  0.58802464  0.51934512  0.57695088  1
  O  O619  1  0.58599571  0.51707113  0.82875866  1
  O  O620  1  0.58740926  0.85237663  0.07740858  1
  O  O621  1  0.58483991  0.85271165  0.32668400  1
  O  O622  1  0.58754080  0.85173454  0.57811906  1
  O  O623  1  0.58772343  0.85165353  0.82689531  1
  O  O624  1  0.33738515  0.18461986  0.04669126  1
  O  O625  1  0.33790141  0.18541422  0.29713802  1
  O  O626  1  0.33578262  0.18433803  0.54732189  1
  O  O627  1  0.33682304  0.18466671  0.79832208  1
  O  O628  1  0.34028243  0.51813374  0.04774008  1
  O  O629  1  0.33745757  0.51729079  0.29630579  1
  O  O630  1  0.33827116  0.51786962  0.54637662  1
  O  O631  1  0.33921722  0.51815375  0.79784984  1
  O  O632  1  0.33828092  0.85226299  0.04710367  1
  O  O633  1  0.33907341  0.85166343  0.29771935  1
  O  O634  1  0.33702852  0.85225550  0.54682579  1
  O  O635  1  0.33784343  0.85184431  0.79642288  1
  O  O636  1  0.83555000  0.18635064  0.04766997  1
  O  O637  1  0.83861404  0.18497683  0.29801162  1
  O  O638  1  0.83904507  0.18525560  0.54838973  1
  O  O639  1  0.83776310  0.18410690  0.79725627  1
  O  O640  1  0.83661005  0.51732333  0.04813527  1
  O  O641  1  0.83624908  0.51756257  0.29724699  1
  O  O642  1  0.83491953  0.51791000  0.54791195  1
  O  O643  1  0.83631769  0.51861298  0.79771816  1
  O  O644  1  0.83818212  0.85101300  0.04598390  1
  O  O645  1  0.83866914  0.85200823  0.29788171  1
  O  O646  1  0.83769021  0.85173137  0.54737102  1
  O  O647  1  0.83657823  0.85193562  0.79737856  1
  O  O648  1  0.16420777  0.14823931  0.20293973  1
  O  O649  1  0.16201360  0.14859491  0.45251876  1
  O  O650  1  0.16292693  0.14957601  0.70331416  1
  O  O651  1  0.16308584  0.14874090  0.95268866  1
  O  O652  1  0.16394929  0.48283275  0.20111602  1
  O  O653  1  0.16413429  0.48051012  0.45197234  1
  O  O654  1  0.16527675  0.48122323  0.70264456  1
  O  O655  1  0.16415635  0.48142342  0.95282148  1
  O  O656  1  0.16474550  0.81394414  0.20203155  1
  O  O657  1  0.16411408  0.81592065  0.45242492  1
  O  O658  1  0.16403005  0.81463694  0.70200419  1
  O  O659  1  0.16522471  0.81485237  0.95247140  1
  O  O660  1  0.66254723  0.14789397  0.20259613  1
  O  O661  1  0.66106718  0.14859581  0.45196692  1
  O  O662  1  0.66111560  0.14701248  0.70117469  1
  O  O663  1  0.66168757  0.14992731  0.95317728  1
  O  O664  1  0.66243536  0.48193931  0.20241657  1
  O  O665  1  0.66103104  0.48210794  0.45241901  1
  O  O666  1  0.66082491  0.48136546  0.70346141  1
  O  O667  1  0.66133471  0.48196110  0.95308367  1
  O  O668  1  0.66444724  0.81514730  0.20214311  1
  O  O669  1  0.66129395  0.81430735  0.45200614  1
  O  O670  1  0.66171755  0.81671355  0.70223510  1
  O  O671  1  0.66376478  0.81338364  0.95238061  1
