# generated using pymatgen
data_Na2MnFe(PO4)2
_symmetry_space_group_name_H-M   'P 1'
_cell_length_a   21.08017799
_cell_length_b   18.93159067
_cell_length_c   20.03954086
_cell_angle_alpha   90.00041457
_cell_angle_beta   89.99652755
_cell_angle_gamma   89.99952023
_symmetry_Int_Tables_number   1
_chemical_formula_structural   Na2MnFe(PO4)2
_chemical_formula_sum   'Na96 Mn48 Fe48 P96 O384'
_cell_volume   7997.40602115
_cell_formula_units_Z   48
loop_
 _symmetry_equiv_pos_site_id
 _symmetry_equiv_pos_as_xyz
  1  'x, y, z'
loop_
 _atom_site_type_symbol
 _atom_site_label
 _atom_site_symmetry_multiplicity
 _atom_site_fract_x
 _atom_site_fract_y
 _atom_site_fract_z
 _atom_site_occupancy
  Na  Na0  1  0.00343967  0.00046729  -0.00041645  1
  Na  Na1  1  0.00123607  0.00054123  0.24978194  1
  Na  Na2  1  -0.00273513  -0.00053140  0.50110362  1
  Na  Na3  1  0.00109303  0.00016960  0.74981460  1
  Na  Na4  1  0.00116064  0.33353936  -0.00041388  1
  Na  Na5  1  0.00105414  0.33326522  0.24978782  1
  Na  Na6  1  -0.00064150  0.33326891  0.50046829  1
  Na  Na7  1  -0.00020948  0.33375491  0.74900850  1
  Na  Na8  1  -0.00008652  0.66617131  0.00059949  1
  Na  Na9  1  0.00161887  0.66748221  0.25051010  1
  Na  Na10  1  -0.00211829  0.66609771  0.49961163  1
  Na  Na11  1  -0.00137556  0.66641226  0.75004215  1
  Na  Na12  1  0.50130481  0.00069891  0.00082304  1
  Na  Na13  1  0.50044109  -0.00046056  0.25057113  1
  Na  Na14  1  0.50152100  0.00029792  0.49960892  1
  Na  Na15  1  0.50102595  0.00050543  0.74898058  1
  Na  Na16  1  0.49876515  0.33260589  0.00120400  1
  Na  Na17  1  0.49979517  0.33257860  0.25062987  1
  Na  Na18  1  0.50039325  0.33307191  0.49941651  1
  Na  Na19  1  0.50005578  0.33329814  0.74972281  1
  Na  Na20  1  0.49910276  0.66711912  -0.00031775  1
  Na  Na21  1  0.50069752  0.66762727  0.24938068  1
  Na  Na22  1  0.50054642  0.66724808  0.49945072  1
  Na  Na23  1  0.49945465  0.66696695  0.75068192  1
  Na  Na24  1  0.24745259  -0.00097756  0.12518081  1
  Na  Na25  1  0.25077755  0.00025752  0.37406160  1
  Na  Na26  1  0.25065167  -0.00001229  0.62474225  1
  Na  Na27  1  0.24744317  -0.00096190  0.87553662  1
  Na  Na28  1  0.24940428  0.33296750  0.12482241  1
  Na  Na29  1  0.24914470  0.33244573  0.37460980  1
  Na  Na30  1  0.25192545  0.33353207  0.62512603  1
  Na  Na31  1  0.24996784  0.33292823  0.87530367  1
  Na  Na32  1  0.24728299  0.66595448  0.12433570  1
  Na  Na33  1  0.24675955  0.66583378  0.37454363  1
  Na  Na34  1  0.25011986  0.66670470  0.62602166  1
  Na  Na35  1  0.25170829  0.66796215  0.87569616  1
  Na  Na36  1  0.74786674  -0.00044345  0.12520335  1
  Na  Na37  1  0.74833203  -0.00061451  0.37452251  1
  Na  Na38  1  0.75036606  0.00069799  0.62499355  1
  Na  Na39  1  0.74925345  0.00046357  0.87629247  1
  Na  Na40  1  0.75055421  0.33324909  0.12567168  1
  Na  Na41  1  0.74929013  0.33240378  0.37362281  1
  Na  Na42  1  0.75042246  0.33347333  0.62475631  1
  Na  Na43  1  0.75061189  0.33370668  0.87546050  1
  Na  Na44  1  0.75042092  0.66679220  0.12405438  1
  Na  Na45  1  0.75160409  0.66756979  0.37445073  1
  Na  Na46  1  0.75108364  0.66706934  0.62610176  1
  Na  Na47  1  0.75116041  0.66688841  0.87501372  1
  Na  Na48  1  0.00128844  0.16591503  -0.00024932  1
  Na  Na49  1  0.00005452  0.16651446  0.25042851  1
  Na  Na50  1  -0.00330013  0.16733258  0.50021455  1
  Na  Na51  1  -0.00046472  0.16592116  0.74929300  1
  Na  Na52  1  0.00206161  0.49968239  -0.00041666  1
  Na  Na53  1  0.00181206  0.49964765  0.25064872  1
  Na  Na54  1  -0.00059811  0.49950143  0.50012675  1
  Na  Na55  1  -0.00185806  0.50099880  0.74977504  1
  Na  Na56  1  0.00257672  0.83287556  0.00051286  1
  Na  Na57  1  0.00097968  0.83339068  0.24903661  1
  Na  Na58  1  -0.00124848  0.83414908  0.50080681  1
  Na  Na59  1  0.00148880  0.83280625  0.74985937  1
  Na  Na60  1  0.49961913  0.16727026  0.00083428  1
  Na  Na61  1  0.50151708  0.16607498  0.25086030  1
  Na  Na62  1  0.49963473  0.16744491  0.49937607  1
  Na  Na63  1  0.49916652  0.16744626  0.74914438  1
  Na  Na64  1  0.50049354  0.49985905  0.00048273  1
  Na  Na65  1  0.50074971  0.49958112  0.24968038  1
  Na  Na66  1  0.50144372  0.49944069  0.49965517  1
  Na  Na67  1  0.49944246  0.50063145  0.74964745  1
  Na  Na68  1  0.49869396  0.83324792  0.00042999  1
  Na  Na69  1  0.49976585  0.83352063  0.25023820  1
  Na  Na70  1  0.50030929  0.83346349  0.49949109  1
  Na  Na71  1  0.50136011  0.83238442  0.75035201  1
  Na  Na72  1  0.24952820  0.16728181  0.12437612  1
  Na  Na73  1  0.25117101  0.16724433  0.37457233  1
  Na  Na74  1  0.25283142  0.16623931  0.62546971  1
  Na  Na75  1  0.25101637  0.16625871  0.87518430  1
  Na  Na76  1  0.24605856  0.50064077  0.12450994  1
  Na  Na77  1  0.24553155  0.50056643  0.37436538  1
  Na  Na78  1  0.24906603  0.49975438  0.62586464  1
  Na  Na79  1  0.24902461  0.50027224  0.87553738  1
  Na  Na80  1  0.24867998  0.83370779  0.12525540  1
  Na  Na81  1  0.24976730  0.83403849  0.37459488  1
  Na  Na82  1  0.25116256  0.83328807  0.62448999  1
  Na  Na83  1  0.24898189  0.83340082  0.87579345  1
  Na  Na84  1  0.74922572  0.16650093  0.12581566  1
  Na  Na85  1  0.74943550  0.16677652  0.37363295  1
  Na  Na86  1  0.75034668  0.16644944  0.62467848  1
  Na  Na87  1  0.74992892  0.16632955  0.87645905  1
  Na  Na88  1  0.75140913  0.49987500  0.12487088  1
  Na  Na89  1  0.75006696  0.50047620  0.37362192  1
  Na  Na90  1  0.75336939  0.49866613  0.62578279  1
  Na  Na91  1  0.75125831  0.50036257  0.87508815  1
  Na  Na92  1  0.74888356  0.83346500  0.12435865  1
  Na  Na93  1  0.74993199  0.83317511  0.37520326  1
  Na  Na94  1  0.74818540  0.83383752  0.62522038  1
  Na  Na95  1  0.74966900  0.83253627  0.87523892  1
  Mn  Mn96  1  0.35774880  0.74941903  0.50200383  1
  Mn  Mn97  1  0.10706945  0.41660244  0.62286555  1
  Mn  Mn98  1  0.10766386  0.08368025  0.62213984  1
  Mn  Mn99  1  0.64254326  0.58291917  0.74827460  1
  Mn  Mn100  1  0.89278534  0.24994786  0.87762995  1
  Mn  Mn101  1  0.85820098  0.08265912  0.00251809  1
  Mn  Mn102  1  0.35758130  0.41690750  0.50125158  1
  Mn  Mn103  1  0.89115054  0.91626298  0.62776500  1
  Mn  Mn104  1  0.85807552  0.75085991  0.25108046  1
  Mn  Mn105  1  0.39298408  0.91658010  0.62716253  1
  Mn  Mn106  1  0.35636383  0.41711597  0.25228725  1
  Mn  Mn107  1  0.35774689  0.08235518  0.00235823  1
  Mn  Mn108  1  0.35647957  0.74940226  0.25172017  1
  Mn  Mn109  1  0.64150476  0.91614218  0.99774031  1
  Mn  Mn110  1  0.89354794  0.91602272  0.87744532  1
  Mn  Mn111  1  0.89259313  0.58323733  0.37751330  1
  Mn  Mn112  1  0.64195695  0.25064964  0.99837807  1
  Mn  Mn113  1  0.35750144  0.08338936  0.25184272  1
  Mn  Mn114  1  0.64227321  0.58379108  0.24724868  1
  Mn  Mn115  1  0.35722664  0.41742167  0.00220932  1
  Mn  Mn116  1  0.85772804  0.75056357  0.75313209  1
  Mn  Mn117  1  0.35825291  0.08227014  0.75272387  1
  Mn  Mn118  1  0.60832515  0.74973826  0.37248599  1
  Mn  Mn119  1  0.14231635  0.58400756  0.74798450  1
  Mn  Mn120  1  0.39112300  0.58293457  0.37702107  1
  Mn  Mn121  1  0.39134091  0.58324309  0.12751037  1
  Mn  Mn122  1  0.89080032  0.25035251  0.62739376  1
  Mn  Mn123  1  0.10694292  0.75049337  0.37333332  1
  Mn  Mn124  1  0.85883167  0.41682147  0.00254377  1
  Mn  Mn125  1  0.60825173  0.08320269  0.62214432  1
  Mn  Mn126  1  0.35842590  0.41731849  0.75282544  1
  Mn  Mn127  1  0.89328198  0.91687698  0.12716429  1
  Mn  Mn128  1  0.64203445  0.91693209  0.74830264  1
  Mn  Mn129  1  0.14228636  0.91709137  0.49728420  1
  Mn  Mn130  1  0.64220216  0.25018541  0.74842541  1
  Mn  Mn131  1  0.60757628  0.41691176  0.12253390  1
  Mn  Mn132  1  0.14219456  0.24977543  0.99728627  1
  Mn  Mn133  1  0.64309189  0.58299073  0.49772801  1
  Mn  Mn134  1  0.64286851  0.58329805  0.99765403  1
  Mn  Mn135  1  0.39212468  0.91703959  0.87763333  1
  Mn  Mn136  1  0.14293916  0.24939200  0.74756162  1
  Mn  Mn137  1  0.60875724  0.41734185  0.62233359  1
  Mn  Mn138  1  0.10745621  0.08373255  0.37373027  1
  Mn  Mn139  1  0.85850515  0.41639731  0.25214168  1
  Mn  Mn140  1  0.14266165  0.24971902  0.49785307  1
  Mn  Mn141  1  0.10785634  0.74955393  0.62279429  1
  Mn  Mn142  1  0.39177959  0.58325597  0.62659485  1
  Mn  Mn143  1  0.85740482  0.08252743  0.25170189  1
  Fe  Fe144  1  0.10778099  0.08385188  0.12340813  1
  Fe  Fe145  1  0.10773659  0.08343219  0.87231103  1
  Fe  Fe146  1  0.64312089  0.91680921  0.49772745  1
  Fe  Fe147  1  0.89159151  0.91737950  0.37634697  1
  Fe  Fe148  1  0.14197631  0.24954051  0.24830306  1
  Fe  Fe149  1  0.60676209  0.75025468  0.12262457  1
  Fe  Fe150  1  0.39279825  0.58277928  0.87700472  1
  Fe  Fe151  1  0.85693374  0.75031585  0.50209683  1
  Fe  Fe152  1  0.10708948  0.41607155  0.12308393  1
  Fe  Fe153  1  0.60732838  0.08387264  0.87347518  1
  Fe  Fe154  1  0.14201097  0.91715456  0.24868771  1
  Fe  Fe155  1  0.89220345  0.24953007  0.37638341  1
  Fe  Fe156  1  0.14121975  0.58323670  0.49892059  1
  Fe  Fe157  1  0.10767851  0.74974741  0.87294446  1
  Fe  Fe158  1  0.64182904  0.91654028  0.24816811  1
  Fe  Fe159  1  0.85757078  0.41597326  0.75272500  1
  Fe  Fe160  1  0.10685530  0.41548461  0.37388503  1
  Fe  Fe161  1  0.64271172  0.24996986  0.49770820  1
  Fe  Fe162  1  0.39237867  0.91710952  0.12688456  1
  Fe  Fe163  1  0.14225103  0.58412039  0.99723799  1
  Fe  Fe164  1  0.39357017  0.25047868  0.62616984  1
  Fe  Fe165  1  0.60655625  0.08293294  0.12371985  1
  Fe  Fe166  1  0.10710723  0.41661060  0.87259401  1
  Fe  Fe167  1  0.85728683  0.41645371  0.50077150  1
  Fe  Fe168  1  0.39294708  0.91702574  0.37649430  1
  Fe  Fe169  1  0.85798944  0.75046985  0.00180370  1
  Fe  Fe170  1  0.60749398  0.74951148  0.62339080  1
  Fe  Fe171  1  0.35655198  0.75017437  0.00191772  1
  Fe  Fe172  1  0.89223353  0.58348659  0.62646486  1
  Fe  Fe173  1  0.14296721  0.91617035  0.99818153  1
  Fe  Fe174  1  0.39256763  0.24946868  0.12724152  1
  Fe  Fe175  1  0.85598763  0.08324008  0.50089979  1
  Fe  Fe176  1  0.39327668  0.25051286  0.87658690  1
  Fe  Fe177  1  0.10757372  0.75008608  0.12261699  1
  Fe  Fe178  1  0.60661506  0.74955612  0.87374591  1
  Fe  Fe179  1  0.85725072  0.08348297  0.75232325  1
  Fe  Fe180  1  0.14316814  0.91647214  0.74814265  1
  Fe  Fe181  1  0.39327105  0.24984804  0.37647794  1
  Fe  Fe182  1  0.35779899  0.75023203  0.75200817  1
  Fe  Fe183  1  0.35875864  0.08320299  0.50092191  1
  Fe  Fe184  1  0.89355629  0.58380138  0.87712747  1
  Fe  Fe185  1  0.60730863  0.41685351  0.87370909  1
  Fe  Fe186  1  0.14106005  0.58331880  0.24752319  1
  Fe  Fe187  1  0.60744015  0.08375914  0.37353383  1
  Fe  Fe188  1  0.64263549  0.24968074  0.24798462  1
  Fe  Fe189  1  0.60812671  0.41644644  0.37338021  1
  Fe  Fe190  1  0.89356994  0.25009851  0.12655886  1
  Fe  Fe191  1  0.89439507  0.58297132  0.12625906  1
  P  P192  1  0.05373512  0.24979891  0.11108727  1
  P  P193  1  0.05244668  0.25014128  0.36005140  1
  P  P194  1  0.05268788  0.24982577  0.60972405  1
  P  P195  1  0.05370942  0.24991662  0.85939459  1
  P  P196  1  0.05478292  0.58313690  0.11041555  1
  P  P197  1  0.05495429  0.58242854  0.36100271  1
  P  P198  1  0.05207758  0.58340477  0.60963244  1
  P  P199  1  0.05378657  0.58388680  0.86103143  1
  P  P200  1  0.05592623  0.91712262  0.11069464  1
  P  P201  1  0.05189592  0.91723667  0.35975477  1
  P  P202  1  0.05423035  0.91661213  0.61098168  1
  P  P203  1  0.05605245  0.91608003  0.86052117  1
  P  P204  1  0.55327560  0.24912006  0.11179732  1
  P  P205  1  0.55486184  0.24994012  0.36085446  1
  P  P206  1  0.55369744  0.25020574  0.60899374  1
  P  P207  1  0.55246248  0.25034590  0.86051698  1
  P  P208  1  0.55309465  0.58454735  0.10958890  1
  P  P209  1  0.55332720  0.58258944  0.35967489  1
  P  P210  1  0.55339411  0.58434708  0.60990780  1
  P  P211  1  0.55239112  0.58331517  0.86053017  1
  P  P212  1  0.55314971  0.91642309  0.11149199  1
  P  P213  1  0.55441074  0.91742452  0.36075713  1
  P  P214  1  0.55470573  0.91562830  0.60920542  1
  P  P215  1  0.55303445  0.91669689  0.86036713  1
  P  P216  1  0.44734279  0.08299918  0.14029220  1
  P  P217  1  0.44742211  0.08337732  0.38977463  1
  P  P218  1  0.44596935  0.08412695  0.63839248  1
  P  P219  1  0.44811783  0.08400387  0.89020977  1
  P  P220  1  0.44607456  0.41605681  0.14042211  1
  P  P221  1  0.44789592  0.41602247  0.38938036  1
  P  P222  1  0.44695265  0.41609008  0.63948719  1
  P  P223  1  0.44790084  0.41690109  0.89025197  1
  P  P224  1  0.44570251  0.75091002  0.13882273  1
  P  P225  1  0.44637024  0.75060128  0.38939481  1
  P  P226  1  0.44729268  0.75004490  0.64055002  1
  P  P227  1  0.44535388  0.74942850  0.88968799  1
  P  P228  1  0.94828654  0.08379171  0.13980296  1
  P  P229  1  0.94540343  0.08309588  0.39034733  1
  P  P230  1  0.94386361  0.08321484  0.63958992  1
  P  P231  1  0.94743325  0.08274995  0.88899220  1
  P  P232  1  0.94829445  0.41687873  0.13971332  1
  P  P233  1  0.94720036  0.41541608  0.39023228  1
  P  P234  1  0.94390687  0.41749877  0.63927844  1
  P  P235  1  0.94708916  0.41735599  0.88883354  1
  P  P236  1  0.94759661  0.74934151  0.13845805  1
  P  P237  1  0.94540426  0.75161052  0.39035353  1
  P  P238  1  0.94502043  0.74940115  0.63915770  1
  P  P239  1  0.94787825  0.74969662  0.89084530  1
  P  P240  1  0.19566116  0.08391942  0.23470738  1
  P  P241  1  0.19892373  0.08368646  0.48466813  1
  P  P242  1  0.19584706  0.08249359  0.73569892  1
  P  P243  1  0.19491692  0.08273172  0.98555466  1
  P  P244  1  0.19364133  0.41566785  0.23557560  1
  P  P245  1  0.19563630  0.41677000  0.48451731  1
  P  P246  1  0.19567440  0.41661824  0.73607545  1
  P  P247  1  0.19420844  0.41711725  0.98529787  1
  P  P248  1  0.19476720  0.75053510  0.23444171  1
  P  P249  1  0.19649511  0.74954455  0.48493349  1
  P  P250  1  0.19701303  0.75073474  0.73624714  1
  P  P251  1  0.19547365  0.75005174  0.98573516  1
  P  P252  1  0.69411512  0.08312584  0.23576365  1
  P  P253  1  0.69682673  0.08354002  0.48415399  1
  P  P254  1  0.69656550  0.08378125  0.73622812  1
  P  P255  1  0.69456510  0.08347463  0.98608906  1
  P  P256  1  0.69568173  0.41586243  0.23569459  1
  P  P257  1  0.69796237  0.41613039  0.48402263  1
  P  P258  1  0.69699504  0.41665012  0.73636548  1
  P  P259  1  0.69675119  0.41689323  0.98430061  1
  P  P260  1  0.69592782  0.75099998  0.23372670  1
  P  P261  1  0.69699253  0.75017937  0.48628672  1
  P  P262  1  0.69468999  0.74967704  0.73594596  1
  P  P263  1  0.69625913  0.74968925  0.98525001  1
  P  P264  1  0.30541174  0.24994819  0.01449633  1
  P  P265  1  0.30366747  0.24997983  0.26419891  1
  P  P266  1  0.30587208  0.24934649  0.51416939  1
  P  P267  1  0.30573683  0.24997926  0.76488696  1
  P  P268  1  0.30280926  0.58399929  0.01386534  1
  P  P269  1  0.30033642  0.58312501  0.26466048  1
  P  P270  1  0.30081172  0.58280759  0.51500050  1
  P  P271  1  0.30418913  0.58412524  0.76616555  1
  P  P272  1  0.30265145  0.91591259  0.01566636  1
  P  P273  1  0.30361074  0.91678029  0.26398618  1
  P  P274  1  0.30510577  0.91757182  0.51355399  1
  P  P275  1  0.30246811  0.91585708  0.76538618  1
  P  P276  1  0.80431305  0.24978910  0.01645218  1
  P  P277  1  0.80442632  0.24950717  0.26391911  1
  P  P278  1  0.80304241  0.24985746  0.51292340  1
  P  P279  1  0.80340949  0.24966296  0.76570113  1
  P  P280  1  0.80626548  0.58440324  0.01450932  1
  P  P281  1  0.80526015  0.58373419  0.26329239  1
  P  P282  1  0.80419215  0.58322311  0.51534075  1
  P  P283  1  0.80568495  0.58265249  0.76508137  1
  P  P284  1  0.80359828  0.91579936  0.01512815  1
  P  P285  1  0.80218479  0.91666525  0.26505579  1
  P  P286  1  0.80299075  0.91701326  0.51366956  1
  P  P287  1  0.80308802  0.91764447  0.76599995  1
  O  O288  1  0.05772385  0.24949717  0.18777163  1
  O  O289  1  0.05615181  0.24948615  0.43672856  1
  O  O290  1  0.05664159  0.24949888  0.68642148  1
  O  O291  1  0.05635683  0.24974796  0.93625555  1
  O  O292  1  0.05831650  0.58364794  0.18729247  1
  O  O293  1  0.05829093  0.58334757  0.43780702  1
  O  O294  1  0.05615005  0.58373101  0.68637303  1
  O  O295  1  0.05823022  0.58402133  0.93777206  1
  O  O296  1  0.05917096  0.91694586  0.18753818  1
  O  O297  1  0.05564168  0.91731087  0.43651645  1
  O  O298  1  0.05917094  0.91648481  0.68771744  1
  O  O299  1  0.05962027  0.91612725  0.93737783  1
  O  O300  1  0.55805192  0.24990730  0.18845244  1
  O  O301  1  0.55941949  0.25010503  0.43758867  1
  O  O302  1  0.55737345  0.25003842  0.68573050  1
  O  O303  1  0.55570488  0.25036158  0.93723581  1
  O  O304  1  0.55639288  0.58402611  0.18634092  1
  O  O305  1  0.55681906  0.58325179  0.43645303  1
  O  O306  1  0.55643256  0.58361391  0.68666670  1
  O  O307  1  0.55616617  0.58340927  0.93719291  1
  O  O308  1  0.55737099  0.91604281  0.18818699  1
  O  O309  1  0.55948950  0.91658479  0.43745089  1
  O  O310  1  0.55728589  0.91685078  0.68602512  1
  O  O311  1  0.55540445  0.91650176  0.93720308  1
  O  O312  1  0.44390737  0.08301999  0.06358865  1
  O  O313  1  0.44372801  0.08312454  0.31309183  1
  O  O314  1  0.44239375  0.08311736  0.56166087  1
  O  O315  1  0.44456206  0.08294409  0.81346209  1
  O  O316  1  0.44290320  0.41695264  0.06363553  1
  O  O317  1  0.44348529  0.41672446  0.31273618  1
  O  O318  1  0.44374147  0.41688033  0.56275325  1
  O  O319  1  0.44464978  0.41715074  0.81352173  1
  O  O320  1  0.44053493  0.75016052  0.06212267  1
  O  O321  1  0.44279673  0.74998260  0.31262160  1
  O  O322  1  0.44334680  0.75003786  0.56380322  1
  O  O323  1  0.44098942  0.75042986  0.81296159  1
  O  O324  1  0.94471417  0.08293920  0.06309330  1
  O  O325  1  0.94305164  0.08293712  0.31353661  1
  O  O326  1  0.93881952  0.08322575  0.56285024  1
  O  O327  1  0.94204249  0.08267692  0.81236340  1
  O  O328  1  0.94508882  0.41683430  0.06298888  1
  O  O329  1  0.94406589  0.41615929  0.31347322  1
  O  O330  1  0.93985421  0.41621868  0.56248821  1
  O  O331  1  0.94228636  0.41660124  0.81215035  1
  O  O332  1  0.94286834  0.75029738  0.06186780  1
  O  O333  1  0.94324268  0.75099811  0.31348963  1
  O  O334  1  0.94052959  0.75051844  0.56241146  1
  O  O335  1  0.94391634  0.75064130  0.81409567  1
  O  O336  1  0.19104279  0.08408184  0.06233581  1
  O  O337  1  0.19311890  0.08413141  0.31149101  1
  O  O338  1  0.19488613  0.08377123  0.56138337  1
  O  O339  1  0.19154244  0.08358774  0.81251297  1
  O  O340  1  0.19018407  0.41610229  0.06213192  1
  O  O341  1  0.19002592  0.41522661  0.31236699  1
  O  O342  1  0.19303013  0.41581551  0.56136595  1
  O  O343  1  0.19100682  0.41650127  0.81286332  1
  O  O344  1  0.19090547  0.74958091  0.06244965  1
  O  O345  1  0.19220983  0.75088018  0.31123859  1
  O  O346  1  0.19393171  0.75022538  0.56176253  1
  O  O347  1  0.19228024  0.74978946  0.81292514  1
  O  O348  1  0.68988234  0.08335168  0.06285569  1
  O  O349  1  0.69048841  0.08329399  0.31255918  1
  O  O350  1  0.69392198  0.08375483  0.56100944  1
  O  O351  1  0.69130490  0.08387482  0.81293252  1
  O  O352  1  0.69316254  0.41696715  0.06111303  1
  O  O353  1  0.69146863  0.41646811  0.31244621  1
  O  O354  1  0.69477379  0.41663595  0.56083828  1
  O  O355  1  0.69128493  0.41698467  0.81299083  1
  O  O356  1  0.69095756  0.74980683  0.06191477  1
  O  O357  1  0.69330935  0.75009811  0.31061087  1
  O  O358  1  0.69230051  0.74955353  0.56293685  1
  O  O359  1  0.68995794  0.74933175  0.81272476  1
  O  O360  1  0.30876797  0.24977974  0.18746439  1
  O  O361  1  0.31001293  0.25016846  0.43730181  1
  O  O362  1  0.31001178  0.25031538  0.68811137  1
  O  O363  1  0.31015078  0.24991884  0.93772243  1
  O  O364  1  0.30474679  0.58290968  0.18797350  1
  O  O365  1  0.30455042  0.58273442  0.43826501  1
  O  O366  1  0.30702673  0.58307882  0.68933024  1
  O  O367  1  0.30845793  0.58311989  0.93727943  1
  O  O368  1  0.30858771  0.91700842  0.18728535  1
  O  O369  1  0.30928438  0.91726662  0.43672882  1
  O  O370  1  0.30659453  0.91656532  0.68868427  1
  O  O371  1  0.30648392  0.91680311  0.93894997  1
  O  O372  1  0.81001548  0.24982693  0.18728385  1
  O  O373  1  0.80752969  0.24993667  0.43624380  1
  O  O374  1  0.80544577  0.24988446  0.68882236  1
  O  O375  1  0.80764895  0.24980103  0.93963576  1
  O  O376  1  0.81014365  0.58335239  0.18655781  1
  O  O377  1  0.80656506  0.58347612  0.43842608  1
  O  O378  1  0.80918661  0.58351497  0.68829799  1
  O  O379  1  0.81037075  0.58365937  0.93769191  1
  O  O380  1  0.80677851  0.91694571  0.18838088  1
  O  O381  1  0.80718855  0.91676323  0.43698088  1
  O  O382  1  0.80552997  0.91673243  0.68915222  1
  O  O383  1  0.80722519  0.91638676  0.93841199  1
  O  O384  1  0.23505762  0.25001698  0.03774142  1
  O  O385  1  0.23314382  0.24965769  0.28736859  1
  O  O386  1  0.23583541  0.25002129  0.53851561  1
  O  O387  1  0.23563483  0.24960565  0.78888858  1
  O  O388  1  0.23220382  0.58379780  0.03680023  1
  O  O389  1  0.22999610  0.58322967  0.28821448  1
  O  O390  1  0.23093769  0.58294895  0.54012528  1
  O  O391  1  0.23443141  0.58400651  0.79116566  1
  O  O392  1  0.23238789  0.91607490  0.03957403  1
  O  O393  1  0.23299220  0.91724463  0.28708242  1
  O  O394  1  0.23516528  0.91684268  0.53800168  1
  O  O395  1  0.23249974  0.91628185  0.79001167  1
  O  O396  1  0.73446293  0.24995496  0.04104670  1
  O  O397  1  0.73377608  0.24926871  0.28657976  1
  O  O398  1  0.73281462  0.24981683  0.53739246  1
  O  O399  1  0.73403622  0.24993621  0.79179228  1
  O  O400  1  0.73612769  0.58333058  0.03843577  1
  O  O401  1  0.73516748  0.58409174  0.28713906  1
  O  O402  1  0.73470355  0.58292882  0.54126932  1
  O  O403  1  0.73566907  0.58347415  0.78953727  1
  O  O404  1  0.73370957  0.91632136  0.03966985  1
  O  O405  1  0.73192834  0.91658476  0.28884361  1
  O  O406  1  0.73276974  0.91729278  0.53811540  1
  O  O407  1  0.73359138  0.91687430  0.79162456  1
  O  O408  1  0.26529831  0.08348526  0.20915585  1
  O  O409  1  0.26883817  0.08368145  0.45984859  1
  O  O410  1  0.26591458  0.08289423  0.71174138  1
  O  O411  1  0.26500881  0.08285035  0.96132915  1
  O  O412  1  0.26356126  0.41647809  0.21074667  1
  O  O413  1  0.26520160  0.41650361  0.45882469  1
  O  O414  1  0.26577437  0.41693167  0.71231184  1
  O  O415  1  0.26434125  0.41666325  0.96130928  1
  O  O416  1  0.26440495  0.74989635  0.20887931  1
  O  O417  1  0.26590731  0.74973146  0.45897495  1
  O  O418  1  0.26728032  0.75003801  0.71224248  1
  O  O419  1  0.26597481  0.75044890  0.96225332  1
  O  O420  1  0.76418599  0.08302694  0.21131002  1
  O  O421  1  0.76677155  0.08327350  0.45911476  1
  O  O422  1  0.76676759  0.08363727  0.71236118  1
  O  O423  1  0.76484825  0.08326472  0.96268271  1
  O  O424  1  0.76576364  0.41612312  0.21151376  1
  O  O425  1  0.76796802  0.41660769  0.45907205  1
  O  O426  1  0.76743188  0.41623785  0.71318386  1
  O  O427  1  0.76671956  0.41707833  0.96010093  1
  O  O428  1  0.76565012  0.75044729  0.20857427  1
  O  O429  1  0.76728053  0.75010813  0.46221831  1
  O  O430  1  0.76495667  0.75027184  0.71259983  1
  O  O431  1  0.76675628  0.74980584  0.96198207  1
  O  O432  1  0.01828034  0.08350444  0.16448883  1
  O  O433  1  0.01494983  0.08333568  0.41619480  1
  O  O434  1  0.01418340  0.08313521  0.66275512  1
  O  O435  1  0.01794357  0.08282657  0.91212523  1
  O  O436  1  0.01822455  0.41690880  0.16467419  1
  O  O437  1  0.01717291  0.41585041  0.41507300  1
  O  O438  1  0.01401430  0.41714902  0.66335174  1
  O  O439  1  0.01739854  0.41689598  0.91264781  1
  O  O440  1  0.01795582  0.75004213  0.16224582  1
  O  O441  1  0.01497913  0.75059033  0.41596713  1
  O  O442  1  0.01501363  0.74959100  0.66340402  1
  O  O443  1  0.01807410  0.74972157  0.91491885  1
  O  O444  1  0.51724875  0.08277766  0.16530439  1
  O  O445  1  0.51765882  0.08391452  0.41411860  1
  O  O446  1  0.51595170  0.08373830  0.66299850  1
  O  O447  1  0.51804509  0.08396517  0.91515392  1
  O  O448  1  0.51585594  0.41615565  0.16526034  1
  O  O449  1  0.51805928  0.41593101  0.41373536  1
  O  O450  1  0.51666597  0.41663108  0.66466549  1
  O  O451  1  0.51781366  0.41664277  0.91547216  1
  O  O452  1  0.51606085  0.75068386  0.16242620  1
  O  O453  1  0.51621456  0.75049311  0.41412774  1
  O  O454  1  0.51740327  0.74993934  0.66483520  1
  O  O455  1  0.51583147  0.74985786  0.91334484  1
  O  O456  1  0.48294569  0.24951424  0.08800576  1
  O  O457  1  0.48432922  0.24943777  0.33730234  1
  O  O458  1  0.48362456  0.25027021  0.58467721  1
  O  O459  1  0.48258267  0.25037343  0.83528330  1
  O  O460  1  0.48333786  0.58383228  0.08466854  1
  O  O461  1  0.48361047  0.58313510  0.33444415  1
  O  O462  1  0.48380893  0.58367809  0.58439789  1
  O  O463  1  0.48234602  0.58353335  0.83581311  1
  O  O464  1  0.48298343  0.91689728  0.08701764  1
  O  O465  1  0.48388289  0.91701837  0.33738471  1
  O  O466  1  0.48504438  0.91659434  0.58403760  1
  O  O467  1  0.48358681  0.91653180  0.83435879  1
  O  O468  1  0.98365730  0.24986795  0.08631228  1
  O  O469  1  0.98229014  0.24963089  0.33559139  1
  O  O470  1  0.98270669  0.25017931  0.58551121  1
  O  O471  1  0.98413621  0.24991159  0.83387255  1
  O  O472  1  0.98458728  0.58284739  0.08605838  1
  O  O473  1  0.98497952  0.58347875  0.33638058  1
  O  O474  1  0.98197399  0.58293939  0.58543153  1
  O  O475  1  0.98353312  0.58400442  0.83699319  1
  O  O476  1  0.98600802  0.91697208  0.08587328  1
  O  O477  1  0.98188381  0.91727772  0.33503674  1
  O  O478  1  0.98397371  0.91679981  0.58766282  1
  O  O479  1  0.98608016  0.91623214  0.83591748  1
  O  O480  1  0.08723629  0.31499592  0.07809400  1
  O  O481  1  0.08623204  0.31524749  0.32735332  1
  O  O482  1  0.08661107  0.31493687  0.57732047  1
  O  O483  1  0.08780632  0.31516779  0.82735476  1
  O  O484  1  0.08826778  0.64817574  0.07708090  1
  O  O485  1  0.08919254  0.64709338  0.32770603  1
  O  O486  1  0.08573610  0.64839459  0.57655204  1
  O  O487  1  0.08707295  0.64912669  0.82784468  1
  O  O488  1  0.08972605  0.98227504  0.07806611  1
  O  O489  1  0.08625879  0.98215487  0.32723118  1
  O  O490  1  0.08753037  0.98161016  0.57747780  1
  O  O491  1  0.09000271  0.98102051  0.82759890  1
  O  O492  1  0.58670262  0.31394548  0.07800413  1
  O  O493  1  0.58811321  0.31495200  0.32734262  1
  O  O494  1  0.58785499  0.31513574  0.57631104  1
  O  O495  1  0.58643219  0.31549151  0.82796661  1
  O  O496  1  0.58682750  0.64982654  0.07717487  1
  O  O497  1  0.58766671  0.64762659  0.32718605  1
  O  O498  1  0.58727180  0.64967780  0.57770824  1
  O  O499  1  0.58626422  0.64843120  0.82789076  1
  O  O500  1  0.58699514  0.98152425  0.07882280  1
  O  O501  1  0.58740057  0.98275604  0.32771668  1
  O  O502  1  0.58957201  0.98029915  0.57649605  1
  O  O503  1  0.58720055  0.98200868  0.82837215  1
  O  O504  1  0.41334047  0.01790581  0.17279166  1
  O  O505  1  0.41385277  0.01827485  0.42276688  1
  O  O506  1  0.41225443  0.01926879  0.67191369  1
  O  O507  1  0.41426717  0.01890369  0.92320511  1
  O  O508  1  0.41206602  0.35088175  0.17256193  1
  O  O509  1  0.41419821  0.35080092  0.42185256  1
  O  O510  1  0.41322972  0.35069505  0.67172740  1
  O  O511  1  0.41368969  0.35187332  0.92256335  1
  O  O512  1  0.41235137  0.68587612  0.17241583  1
  O  O513  1  0.41246003  0.68548033  0.42212329  1
  O  O514  1  0.41307477  0.68516334  0.67322858  1
  O  O515  1  0.41201741  0.68417402  0.92266048  1
  O  O516  1  0.91428270  0.01882551  0.17277101  1
  O  O517  1  0.91100966  0.01797735  0.42255872  1
  O  O518  1  0.91041064  0.01836308  0.67324078  1
  O  O519  1  0.91450947  0.01773455  0.92285346  1
  O  O520  1  0.91438108  0.35175452  0.17226052  1
  O  O521  1  0.91315451  0.35027032  0.42250596  1
  O  O522  1  0.91005704  0.35265708  0.67284119  1
  O  O523  1  0.91366425  0.35247726  0.92246579  1
  O  O524  1  0.91479545  0.68399682  0.17162641  1
  O  O525  1  0.91049731  0.68683097  0.42263325  1
  O  O526  1  0.91164599  0.68402857  0.67172319  1
  O  O527  1  0.91381922  0.68465971  0.92324272  1
  O  O528  1  0.16106589  0.01892734  0.20266280  1
  O  O529  1  0.16480328  0.01875142  0.45196126  1
  O  O530  1  0.16255202  0.01705358  0.70311822  1
  O  O531  1  0.16137313  0.01731033  0.95328927  1
  O  O532  1  0.16042208  0.35028549  0.20243099  1
  O  O533  1  0.16122154  0.35186704  0.45174174  1
  O  O534  1  0.16242793  0.35164076  0.70260080  1
  O  O535  1  0.16045534  0.35222450  0.95194816  1
  O  O536  1  0.16010060  0.68558404  0.20222049  1
  O  O537  1  0.16196750  0.68436826  0.45337637  1
  O  O538  1  0.16326289  0.68583534  0.70282724  1
  O  O539  1  0.16229742  0.68512178  0.95185692  1
  O  O540  1  0.66037296  0.01797291  0.20294635  1
  O  O541  1  0.66246412  0.01854544  0.45189849  1
  O  O542  1  0.66315110  0.01873326  0.70288316  1
  O  O543  1  0.66089113  0.01861997  0.95270104  1
  O  O544  1  0.66231396  0.35047590  0.20300492  1
  O  O545  1  0.66390744  0.35107927  0.45156273  1
  O  O546  1  0.66373966  0.35166126  0.70285359  1
  O  O547  1  0.66281861  0.35173937  0.95179094  1
  O  O548  1  0.66129936  0.68634465  0.20097680  1
  O  O549  1  0.66387523  0.68516852  0.45250705  1
  O  O550  1  0.66167179  0.68458294  0.70232479  1
  O  O551  1  0.66308050  0.68465851  0.95164086  1
  O  O552  1  0.33868993  0.31495229  0.04789635  1
  O  O553  1  0.33678212  0.31499688  0.29778401  1
  O  O554  1  0.33981766  0.31422911  0.54742389  1
  O  O555  1  0.33911485  0.31506198  0.79831698  1
  O  O556  1  0.33564955  0.64925485  0.04724396  1
  O  O557  1  0.33389523  0.64819501  0.29750783  1
  O  O558  1  0.33499059  0.64782775  0.54752528  1
  O  O559  1  0.33841226  0.64931635  0.79808071  1
  O  O560  1  0.33637955  0.98088970  0.04891853  1
  O  O561  1  0.33725450  0.98162102  0.29744327  1
  O  O562  1  0.33842258  0.98285442  0.54646416  1
  O  O563  1  0.33629914  0.98084519  0.79854026  1
  O  O564  1  0.83858969  0.31488881  0.04881397  1
  O  O565  1  0.83753377  0.31439564  0.29785596  1
  O  O566  1  0.83641384  0.31497871  0.54617552  1
  O  O567  1  0.83804920  0.31471780  0.79768455  1
  O  O568  1  0.83946310  0.64984863  0.04724161  1
  O  O569  1  0.83879247  0.64877370  0.29630676  1
  O  O570  1  0.83850684  0.64827363  0.54772359  1
  O  O571  1  0.83989318  0.64737029  0.79839085  1
  O  O572  1  0.83762185  0.98071658  0.04808563  1
  O  O573  1  0.83583971  0.98165116  0.29827457  1
  O  O574  1  0.83640509  0.98225004  0.54655657  1
  O  O575  1  0.83708800  0.98294805  0.79791232  1
  O  O576  1  0.41354228  0.14810093  0.17301831  1
  O  O577  1  0.41330136  0.14835332  0.42233853  1
  O  O578  1  0.41254055  0.14950816  0.67079172  1
  O  O579  1  0.41401623  0.14901878  0.92246249  1
  O  O580  1  0.41204315  0.48121789  0.17300821  1
  O  O581  1  0.41415075  0.48103703  0.42249223  1
  O  O582  1  0.41249496  0.48091263  0.67218570  1
  O  O583  1  0.41390094  0.48205973  0.92290732  1
  O  O584  1  0.41253663  0.81612214  0.17191169  1
  O  O585  1  0.41263229  0.81589814  0.42164243  1
  O  O586  1  0.41356366  0.81518198  0.67349142  1
  O  O587  1  0.41169858  0.81422264  0.92339204  1
  O  O588  1  0.91438009  0.14882696  0.17227508  1
  O  O589  1  0.91079316  0.14820321  0.42231890  1
  O  O590  1  0.91047477  0.14833077  0.67293494  1
  O  O591  1  0.91422701  0.14777354  0.92250422  1
  O  O592  1  0.91447279  0.48199082  0.17236310  1
  O  O593  1  0.91296326  0.48034158  0.42294540  1
  O  O594  1  0.91054492  0.48276182  0.67200150  1
  O  O595  1  0.91414793  0.48263177  0.92202848  1
  O  O596  1  0.91398452  0.81419315  0.17207687  1
  O  O597  1  0.91151632  0.81702542  0.42235052  1
  O  O598  1  0.91143933  0.81423728  0.67282491  1
  O  O599  1  0.91412498  0.81461289  0.92418434  1
  O  O600  1  0.08745866  0.18487364  0.07787352  1
  O  O601  1  0.08668557  0.18534312  0.32700608  1
  O  O602  1  0.08624620  0.18482365  0.57657225  1
  O  O603  1  0.08789315  0.18471680  0.82724370  1
  O  O604  1  0.08849560  0.51801580  0.07775034  1
  O  O605  1  0.08808994  0.51688402  0.32852722  1
  O  O606  1  0.08622496  0.51850302  0.57698205  1
  O  O607  1  0.08704493  0.51879498  0.82782398  1
  O  O608  1  0.08982370  0.85208659  0.07772171  1
  O  O609  1  0.08606724  0.85227301  0.32711229  1
  O  O610  1  0.08738087  0.85147668  0.57767227  1
  O  O611  1  0.08955650  0.85066599  0.82780546  1
  O  O612  1  0.58635537  0.18383526  0.07879453  1
  O  O613  1  0.58833688  0.18484371  0.32771084  1
  O  O614  1  0.58761758  0.18518482  0.57606942  1
  O  O615  1  0.58632158  0.18517678  0.82785813  1
  O  O616  1  0.58757825  0.51957705  0.07723988  1
  O  O617  1  0.58736126  0.51731456  0.32757597  1
  O  O618  1  0.58799730  0.51946893  0.57747223  1
  O  O619  1  0.58613856  0.51813838  0.82773326  1
  O  O620  1  0.58645584  0.85138618  0.07790400  1
  O  O621  1  0.58792788  0.85265524  0.32690384  1
  O  O622  1  0.58847525  0.85009631  0.57736239  1
  O  O623  1  0.58744952  0.85151480  0.82853733  1
  O  O624  1  0.33868810  0.18484542  0.04795643  1
  O  O625  1  0.33734530  0.18510245  0.29754662  1
  O  O626  1  0.33936951  0.18404099  0.54679119  1
  O  O627  1  0.33959093  0.18501971  0.79794275  1
  O  O628  1  0.33561437  0.51898714  0.04788171  1
  O  O629  1  0.33372087  0.51815321  0.29798538  1
  O  O630  1  0.33479848  0.51773761  0.54757721  1
  O  O631  1  0.33848512  0.51925688  0.79912448  1
  O  O632  1  0.33642916  0.85082400  0.04822516  1
  O  O633  1  0.33661099  0.85166620  0.29739094  1
  O  O634  1  0.33890881  0.85256467  0.54664700  1
  O  O635  1  0.33604514  0.85068777  0.79799783  1
  O  O636  1  0.83847330  0.18478120  0.04897886  1
  O  O637  1  0.83754313  0.18447835  0.29748534  1
  O  O638  1  0.83636179  0.18470059  0.54611625  1
  O  O639  1  0.83763703  0.18438651  0.79767475  1
  O  O640  1  0.84045726  0.51971577  0.04788595  1
  O  O641  1  0.83846791  0.51863406  0.29678637  1
  O  O642  1  0.83870041  0.51800469  0.54704783  1
  O  O643  1  0.83914836  0.51728988  0.79772090  1
  O  O644  1  0.83731333  0.85044120  0.04751765  1
  O  O645  1  0.83609013  0.85174640  0.29793288  1
  O  O646  1  0.83632985  0.85201305  0.54724914  1
  O  O647  1  0.83774698  0.85272606  0.79828328  1
  O  O648  1  0.16159331  0.14908414  0.20212869  1
  O  O649  1  0.16492346  0.14869152  0.45197852  1
  O  O650  1  0.16228614  0.14734020  0.70208970  1
  O  O651  1  0.16119851  0.14751507  0.95188179  1
  O  O652  1  0.15933448  0.48062778  0.20295079  1
  O  O653  1  0.16107148  0.48190681  0.45286142  1
  O  O654  1  0.16203272  0.48179355  0.70325421  1
  O  O655  1  0.16073411  0.48241919  0.95263368  1
  O  O656  1  0.16092671  0.81584187  0.20208252  1
  O  O657  1  0.16216840  0.81454913  0.45241516  1
  O  O658  1  0.16384839  0.81594436  0.70310955  1
  O  O659  1  0.16208156  0.81518861  0.95272772  1
  O  O660  1  0.66044286  0.14823012  0.20278387  1
  O  O661  1  0.66286683  0.14854173  0.45146025  1
  O  O662  1  0.66330746  0.14880497  0.70270045  1
  O  O663  1  0.66132594  0.14863345  0.95276866  1
  O  O664  1  0.66222668  0.48087337  0.20237583  1
  O  O665  1  0.66363621  0.48102500  0.45134186  1
  O  O666  1  0.66431160  0.48180383  0.70247379  1
  O  O667  1  0.66262491  0.48174260  0.95144748  1
  O  O668  1  0.66189247  0.81641467  0.20185569  1
  O  O669  1  0.66362204  0.81529449  0.45311793  1
  O  O670  1  0.66094042  0.81454173  0.70274056  1
  O  O671  1  0.66260072  0.81458211  0.95191709  1
