# generated using pymatgen
data_Na2MnFe(PO4)2
_symmetry_space_group_name_H-M   'P 1'
_cell_length_a   21.08875659
_cell_length_b   18.94210892
_cell_length_c   20.04784316
_cell_angle_alpha   90.00025316
_cell_angle_beta   89.99378840
_cell_angle_gamma   90.00124949
_symmetry_Int_Tables_number   1
_chemical_formula_structural   Na2MnFe(PO4)2
_chemical_formula_sum   'Na96 Mn48 Fe48 P96 O384'
_cell_volume   8008.42212938
_cell_formula_units_Z   48
loop_
 _symmetry_equiv_pos_site_id
 _symmetry_equiv_pos_as_xyz
  1  'x, y, z'
loop_
 _atom_site_type_symbol
 _atom_site_label
 _atom_site_symmetry_multiplicity
 _atom_site_fract_x
 _atom_site_fract_y
 _atom_site_fract_z
 _atom_site_occupancy
  Na  Na0  1  -0.00061209  -0.00046401  0.00166287  1
  Na  Na1  1  -0.00084859  -0.00028848  0.24965016  1
  Na  Na2  1  0.00050953  -0.00003794  0.49849946  1
  Na  Na3  1  0.00021826  -0.00058204  0.75029941  1
  Na  Na4  1  -0.00136221  0.33305154  0.00053151  1
  Na  Na5  1  -0.00211219  0.33254611  0.24886028  1
  Na  Na6  1  0.00125469  0.33370207  0.49980678  1
  Na  Na7  1  0.00050701  0.33352005  0.74989341  1
  Na  Na8  1  -0.00077169  0.66659124  0.00051566  1
  Na  Na9  1  0.00121399  0.66739591  0.25022883  1
  Na  Na10  1  0.00058373  0.66691289  0.49893648  1
  Na  Na11  1  0.00040039  0.66673491  0.75101778  1
  Na  Na12  1  0.49698124  -0.00121527  0.00020173  1
  Na  Na13  1  0.49857238  -0.00001951  0.24917271  1
  Na  Na14  1  0.49735151  -0.00037818  0.49952854  1
  Na  Na15  1  0.49660979  -0.00078531  0.75038641  1
  Na  Na16  1  0.50084038  0.33309816  0.00039761  1
  Na  Na17  1  0.49983136  0.33281290  0.24987279  1
  Na  Na18  1  0.49864764  0.33220838  0.49919833  1
  Na  Na19  1  0.50188754  0.33385703  0.75117170  1
  Na  Na20  1  0.49946736  0.66648882  -0.00017418  1
  Na  Na21  1  0.49982967  0.66775256  0.24950022  1
  Na  Na22  1  0.49926450  0.66656368  0.50102682  1
  Na  Na23  1  0.50100901  0.66744800  0.74930949  1
  Na  Na24  1  0.25199332  -0.00005965  0.12444454  1
  Na  Na25  1  0.25114527  -0.00062210  0.37520921  1
  Na  Na26  1  0.25155994  0.00044461  0.62433785  1
  Na  Na27  1  0.25208581  0.00012526  0.87492694  1
  Na  Na28  1  0.25253586  0.33402397  0.12496298  1
  Na  Na29  1  0.25248779  0.33359825  0.37577906  1
  Na  Na30  1  0.24828873  0.33315099  0.62452602  1
  Na  Na31  1  0.24755586  0.33262578  0.87502094  1
  Na  Na32  1  0.24897664  0.66634969  0.12414884  1
  Na  Na33  1  0.25062928  0.66712353  0.37562797  1
  Na  Na34  1  0.24963030  0.66712315  0.62588650  1
  Na  Na35  1  0.24904099  0.66697306  0.87557436  1
  Na  Na36  1  0.75141961  0.00023169  0.12515221  1
  Na  Na37  1  0.75026208  0.00020282  0.37500775  1
  Na  Na38  1  0.75079531  -0.00018636  0.62460237  1
  Na  Na39  1  0.75264145  0.00049311  0.87549561  1
  Na  Na40  1  0.74952020  0.33243120  0.12459188  1
  Na  Na41  1  0.74944887  0.33235255  0.37451614  1
  Na  Na42  1  0.75052181  0.33328047  0.62527918  1
  Na  Na43  1  0.75063833  0.33348944  0.87485819  1
  Na  Na44  1  0.74944091  0.66715043  0.12503831  1
  Na  Na45  1  0.74899195  0.66711021  0.37396743  1
  Na  Na46  1  0.75017336  0.66693596  0.62622457  1
  Na  Na47  1  0.75069166  0.66720302  0.87515917  1
  Na  Na48  1  -0.00387895  0.16761114  0.00081183  1
  Na  Na49  1  -0.00317621  0.16655007  0.24968791  1
  Na  Na50  1  -0.00217201  0.16666493  0.49875770  1
  Na  Na51  1  -0.00016225  0.16585408  0.74982401  1
  Na  Na52  1  -0.00063510  0.50035037  0.00065190  1
  Na  Na53  1  -0.00107602  0.50085475  0.24983580  1
  Na  Na54  1  0.00140927  0.50019412  0.49900212  1
  Na  Na55  1  0.00050849  0.50069820  0.75088729  1
  Na  Na56  1  0.00142938  0.83350961  0.00124582  1
  Na  Na57  1  0.00187773  0.83363399  0.24920665  1
  Na  Na58  1  0.00261989  0.83333583  0.49942046  1
  Na  Na59  1  0.00171903  0.83333506  0.75045950  1
  Na  Na60  1  0.49897751  0.16681756  -0.00009878  1
  Na  Na61  1  0.49834305  0.16692377  0.24864940  1
  Na  Na62  1  0.49948023  0.16549820  0.49980494  1
  Na  Na63  1  0.49879936  0.16686683  0.75086335  1
  Na  Na64  1  0.50092255  0.49994755  0.00024267  1
  Na  Na65  1  0.49739030  0.50116232  0.25005845  1
  Na  Na66  1  0.49997733  0.49963036  0.50041826  1
  Na  Na67  1  0.50110144  0.50052668  0.74995172  1
  Na  Na68  1  0.49863519  0.83329964  0.00072235  1
  Na  Na69  1  0.50058297  0.83292481  0.24931583  1
  Na  Na70  1  0.49808059  0.83393682  0.50009416  1
  Na  Na71  1  0.49844451  0.83336184  0.74967289  1
  Na  Na72  1  0.25297145  0.16596953  0.12577334  1
  Na  Na73  1  0.25361481  0.16504014  0.37495427  1
  Na  Na74  1  0.25016156  0.16666314  0.62424392  1
  Na  Na75  1  0.25226612  0.16510207  0.87550101  1
  Na  Na76  1  0.25027335  0.50030337  0.12405533  1
  Na  Na77  1  0.25125674  0.49943584  0.37604705  1
  Na  Na78  1  0.24788954  0.50084828  0.62542928  1
  Na  Na79  1  0.24860588  0.49990321  0.87496784  1
  Na  Na80  1  0.24886100  0.83422851  0.12429294  1
  Na  Na81  1  0.25084604  0.83335656  0.37510140  1
  Na  Na82  1  0.24921431  0.83402064  0.62553801  1
  Na  Na83  1  0.24937718  0.83325997  0.87468093  1
  Na  Na84  1  0.75090030  0.16620371  0.12533361  1
  Na  Na85  1  0.75016941  0.16599374  0.37438113  1
  Na  Na86  1  0.75048568  0.16620544  0.62443917  1
  Na  Na87  1  0.75145372  0.16646451  0.87513880  1
  Na  Na88  1  0.75266896  0.49945681  0.12442473  1
  Na  Na89  1  0.75044772  0.50082625  0.37450092  1
  Na  Na90  1  0.75109276  0.50055190  0.62618984  1
  Na  Na91  1  0.75130826  0.50066557  0.87507315  1
  Na  Na92  1  0.74813920  0.83376049  0.12493785  1
  Na  Na93  1  0.74808155  0.83393855  0.37469200  1
  Na  Na94  1  0.74995417  0.83336343  0.62534254  1
  Na  Na95  1  0.75095207  0.83255315  0.87557673  1
  Mn  Mn96  1  0.35753240  0.41708755  0.50311110  1
  Mn  Mn97  1  0.85830589  0.41679818  0.50239519  1
  Mn  Mn98  1  0.10768449  0.08370574  0.12331232  1
  Mn  Mn99  1  0.64313746  0.58298802  0.99751677  1
  Mn  Mn100  1  0.10757821  0.08370399  0.87378190  1
  Mn  Mn101  1  0.10807820  0.41571335  0.37180258  1
  Mn  Mn102  1  0.85875258  0.75039109  0.75231537  1
  Mn  Mn103  1  0.60749870  0.08249762  0.87300118  1
  Mn  Mn104  1  0.64222019  0.91717020  0.99744465  1
  Mn  Mn105  1  0.10770853  0.41646232  0.12318438  1
  Mn  Mn106  1  0.85734647  0.41615120  0.25251030  1
  Mn  Mn107  1  0.14135661  0.24907993  0.74842583  1
  Mn  Mn108  1  0.64226714  0.58342695  0.49779943  1
  Mn  Mn109  1  0.64216626  0.24970345  0.49747720  1
  Mn  Mn110  1  0.10871110  0.75052865  0.37253883  1
  Mn  Mn111  1  0.14226912  0.24929440  0.49663486  1
  Mn  Mn112  1  0.60700267  0.08294410  0.62319227  1
  Mn  Mn113  1  0.14300329  0.24938837  0.24786351  1
  Mn  Mn114  1  0.89313281  0.25046182  0.62700412  1
  Mn  Mn115  1  0.39152772  0.58303882  0.12686256  1
  Mn  Mn116  1  0.60842726  0.41623498  0.62259081  1
  Mn  Mn117  1  0.60707118  0.41667607  0.37247645  1
  Mn  Mn118  1  0.14122936  0.58327424  0.74810732  1
  Mn  Mn119  1  0.64125492  0.91704128  0.49760371  1
  Mn  Mn120  1  0.89264105  0.91609169  0.12781442  1
  Mn  Mn121  1  0.35731385  0.41642039  0.75294463  1
  Mn  Mn122  1  0.14307948  0.58319551  0.24755056  1
  Mn  Mn123  1  0.60708786  0.08276994  0.12243374  1
  Mn  Mn124  1  0.14232535  0.91749668  0.74827136  1
  Mn  Mn125  1  0.85876031  0.41696683  0.75245695  1
  Mn  Mn126  1  0.89217659  0.58388750  0.37752306  1
  Mn  Mn127  1  0.64138313  0.58328987  0.24771622  1
  Mn  Mn128  1  0.14196510  0.24943909  0.99846015  1
  Mn  Mn129  1  0.35722854  0.74991818  0.75303703  1
  Mn  Mn130  1  0.60739888  0.75076852  0.62275011  1
  Mn  Mn131  1  0.85916083  0.08299647  0.75175413  1
  Mn  Mn132  1  0.85794148  0.75045843  0.50215651  1
  Mn  Mn133  1  0.35763734  0.74963803  0.25226080  1
  Mn  Mn134  1  0.35783832  0.41675213  0.00138652  1
  Mn  Mn135  1  0.89339576  0.91572584  0.62654107  1
  Mn  Mn136  1  0.10753701  0.08384175  0.37231902  1
  Mn  Mn137  1  0.85708115  0.75116196  0.25185695  1
  Mn  Mn138  1  0.60772485  0.41717732  0.12281632  1
  Mn  Mn139  1  0.64270782  0.24978297  0.74798179  1
  Mn  Mn140  1  0.39248215  0.25104088  0.87779445  1
  Mn  Mn141  1  0.39165556  0.25003749  0.62788545  1
  Mn  Mn142  1  0.39172283  0.58302061  0.62790772  1
  Mn  Mn143  1  0.64189093  0.91676538  0.74859071  1
  Fe  Fe144  1  0.89162744  0.24959386  0.37668454  1
  Fe  Fe145  1  0.14367944  0.91692410  0.99839297  1
  Fe  Fe146  1  0.64234407  0.24915626  0.24824354  1
  Fe  Fe147  1  0.85778432  0.41677523  0.00138325  1
  Fe  Fe148  1  0.39217384  0.91619963  0.12715598  1
  Fe  Fe149  1  0.60853898  0.41772287  0.87371914  1
  Fe  Fe150  1  0.64347281  0.24987429  0.99849280  1
  Fe  Fe151  1  0.64336449  0.58358836  0.74898219  1
  Fe  Fe152  1  0.10830166  0.08297053  0.62226060  1
  Fe  Fe153  1  0.89339060  0.58385453  0.12655492  1
  Fe  Fe154  1  0.39220454  0.91531287  0.87726527  1
  Fe  Fe155  1  0.10664017  0.75002826  0.87445338  1
  Fe  Fe156  1  0.39261864  0.91631790  0.37640090  1
  Fe  Fe157  1  0.10626831  0.41668706  0.87430423  1
  Fe  Fe158  1  0.89289368  0.58382927  0.87739165  1
  Fe  Fe159  1  0.39316865  0.58353737  0.87626167  1
  Fe  Fe160  1  0.39336499  0.24982389  0.37637465  1
  Fe  Fe161  1  0.14271631  0.58414188  0.49849277  1
  Fe  Fe162  1  0.60701157  0.74973855  0.87418585  1
  Fe  Fe163  1  0.60659213  0.75009213  0.12266610  1
  Fe  Fe164  1  0.89375735  0.58387037  0.62621775  1
  Fe  Fe165  1  0.85617377  0.08254699  0.25208475  1
  Fe  Fe166  1  0.85773929  0.75026892  0.00233375  1
  Fe  Fe167  1  0.35713864  0.75022084  0.50163035  1
  Fe  Fe168  1  0.35808137  0.41627757  0.25201086  1
  Fe  Fe169  1  0.14208869  0.58364391  0.99798746  1
  Fe  Fe170  1  0.35762277  0.08298126  0.00175235  1
  Fe  Fe171  1  0.89308034  0.91631726  0.87734578  1
  Fe  Fe172  1  0.10780978  0.74968803  0.12269195  1
  Fe  Fe173  1  0.39164165  0.91649597  0.62687470  1
  Fe  Fe174  1  0.89138071  0.25060592  0.12704074  1
  Fe  Fe175  1  0.85757811  0.08308334  0.00183943  1
  Fe  Fe176  1  0.10788002  0.74990697  0.62279859  1
  Fe  Fe177  1  0.89231920  0.25005561  0.87720050  1
  Fe  Fe178  1  0.10720554  0.41695441  0.62327708  1
  Fe  Fe179  1  0.35666772  0.74988423  0.00118748  1
  Fe  Fe180  1  0.39230891  0.58385224  0.37746643  1
  Fe  Fe181  1  0.89250793  0.91671883  0.37664543  1
  Fe  Fe182  1  0.14351004  0.91720797  0.24876514  1
  Fe  Fe183  1  0.35782925  0.08338362  0.25217962  1
  Fe  Fe184  1  0.60658773  0.08267322  0.37301866  1
  Fe  Fe185  1  0.14388342  0.91687499  0.49786653  1
  Fe  Fe186  1  0.60617890  0.75041205  0.37389686  1
  Fe  Fe187  1  0.35763896  0.08280379  0.50192766  1
  Fe  Fe188  1  0.85695209  0.08281913  0.50146180  1
  Fe  Fe189  1  0.35694788  0.08395130  0.75172049  1
  Fe  Fe190  1  0.39297229  0.24999109  0.12679458  1
  Fe  Fe191  1  0.64167620  0.91730788  0.24867266  1
  P  P192  1  0.05145223  0.24958369  0.11039605  1
  P  P193  1  0.05140971  0.24932391  0.35902830  1
  P  P194  1  0.05393931  0.24943259  0.60962591  1
  P  P195  1  0.05147265  0.25026322  0.86090558  1
  P  P196  1  0.05357442  0.58391514  0.10976246  1
  P  P197  1  0.05486161  0.58354110  0.36053605  1
  P  P198  1  0.05327507  0.58384401  0.60981315  1
  P  P199  1  0.05337924  0.58367076  0.86207438  1
  P  P200  1  0.05613831  0.91649929  0.11112577  1
  P  P201  1  0.05440914  0.91732237  0.35998593  1
  P  P202  1  0.05513956  0.91680102  0.60940665  1
  P  P203  1  0.05378909  0.91640976  0.86212169  1
  P  P204  1  0.55419451  0.24953870  0.11050698  1
  P  P205  1  0.55273527  0.24844034  0.35927846  1
  P  P206  1  0.55296795  0.24947548  0.60981433  1
  P  P207  1  0.55528496  0.25048359  0.86180528  1
  P  P208  1  0.55317243  0.58419970  0.10963841  1
  P  P209  1  0.55140689  0.58429519  0.36036403  1
  P  P210  1  0.55444221  0.58344871  0.61112459  1
  P  P211  1  0.55344867  0.58398176  0.86010590  1
  P  P212  1  0.55298685  0.91626799  0.11100436  1
  P  P213  1  0.55194485  0.91689199  0.35957208  1
  P  P214  1  0.55119987  0.91703057  0.61005482  1
  P  P215  1  0.55145598  0.91558183  0.86051846  1
  P  P216  1  0.44405047  0.08304005  0.13885335  1
  P  P217  1  0.44560008  0.08308293  0.38870408  1
  P  P218  1  0.44425304  0.08249309  0.63974385  1
  P  P219  1  0.44451960  0.08260554  0.88960268  1
  P  P220  1  0.44592896  0.41581995  0.14025991  1
  P  P221  1  0.44508197  0.41663188  0.38890294  1
  P  P222  1  0.44687341  0.41641038  0.64089030  1
  P  P223  1  0.44862633  0.41804999  0.88999738  1
  P  P224  1  0.44573357  0.75052813  0.13840969  1
  P  P225  1  0.44649713  0.75029653  0.39026565  1
  P  P226  1  0.44451012  0.75069050  0.63897087  1
  P  P227  1  0.44677744  0.74932746  0.89052405  1
  P  P228  1  0.94397437  0.08377823  0.13981779  1
  P  P229  1  0.94403516  0.08265209  0.38856150  1
  P  P230  1  0.94772554  0.08254905  0.63817824  1
  P  P231  1  0.94613130  0.08284023  0.89089750  1
  P  P232  1  0.94480963  0.41721463  0.13862652  1
  P  P233  1  0.94652379  0.41581478  0.38972463  1
  P  P234  1  0.94829836  0.41807579  0.63981919  1
  P  P235  1  0.94693458  0.41693752  0.89032541  1
  P  P236  1  0.94714186  0.74940285  0.13902834  1
  P  P237  1  0.94684014  0.75171451  0.38946468  1
  P  P238  1  0.94880317  0.74944909  0.63978372  1
  P  P239  1  0.94722140  0.75045003  0.89078605  1
  P  P240  1  0.19852014  0.08260172  0.23524365  1
  P  P241  1  0.19715363  0.08224184  0.48545055  1
  P  P242  1  0.19715941  0.08311580  0.73440499  1
  P  P243  1  0.19821537  0.08248126  0.98563220  1
  P  P244  1  0.19883082  0.41609446  0.23495710  1
  P  P245  1  0.19499803  0.41750156  0.48610382  1
  P  P246  1  0.19402432  0.41649691  0.73577482  1
  P  P247  1  0.19560760  0.41708303  0.98461486  1
  P  P248  1  0.19635835  0.75097582  0.23414253  1
  P  P249  1  0.19674990  0.75053912  0.48647740  1
  P  P250  1  0.19415273  0.75017394  0.73602219  1
  P  P251  1  0.19560325  0.75037406  0.98568732  1
  P  P252  1  0.69548789  0.08277174  0.23615008  1
  P  P253  1  0.69655780  0.08315024  0.48404624  1
  P  P254  1  0.69731594  0.08285814  0.73489502  1
  P  P255  1  0.69798349  0.08384634  0.98534358  1
  P  P256  1  0.69632964  0.41592220  0.23478112  1
  P  P257  1  0.69723815  0.41682276  0.48442740  1
  P  P258  1  0.69617296  0.41790153  0.73642879  1
  P  P259  1  0.69797843  0.41616197  0.98483941  1
  P  P260  1  0.69351929  0.75134774  0.23546155  1
  P  P261  1  0.69588586  0.75017787  0.48416904  1
  P  P262  1  0.69542379  0.74961090  0.73673759  1
  P  P263  1  0.69627584  0.74999267  0.98563618  1
  P  P264  1  0.30406268  0.24954388  0.01566543  1
  P  P265  1  0.30570328  0.24996662  0.26450583  1
  P  P266  1  0.30484965  0.24905437  0.51370537  1
  P  P267  1  0.30273520  0.24948295  0.76538936  1
  P  P268  1  0.30313124  0.58419101  0.01296337  1
  P  P269  1  0.30412376  0.58260629  0.26576694  1
  P  P270  1  0.30313766  0.58450019  0.51452690  1
  P  P271  1  0.30303417  0.58324738  0.76646029  1
  P  P272  1  0.30464313  0.91560212  0.01399749  1
  P  P273  1  0.30430836  0.91695546  0.26435647  1
  P  P274  1  0.30477364  0.91630647  0.51400376  1
  P  P275  1  0.30477872  0.91752284  0.76463479  1
  P  P276  1  0.80439746  0.25013384  0.01423062  1
  P  P277  1  0.80334219  0.24880663  0.26415627  1
  P  P278  1  0.80455751  0.24888549  0.51385210  1
  P  P279  1  0.80476162  0.25004423  0.76560508  1
  P  P280  1  0.80588596  0.58401615  0.01433621  1
  P  P281  1  0.80424164  0.58421554  0.26359780  1
  P  P282  1  0.80403945  0.58401422  0.51625114  1
  P  P283  1  0.80514546  0.58391399  0.76487758  1
  P  P284  1  0.80490073  0.91610624  0.01420772  1
  P  P285  1  0.80221250  0.91696327  0.26538452  1
  P  P286  1  0.80399256  0.91729514  0.51385298  1
  P  P287  1  0.80453080  0.91628940  0.76592703  1
  O  O288  1  0.05614993  0.24912711  0.18698717  1
  O  O289  1  0.05610094  0.24902747  0.43569170  1
  O  O290  1  0.05626063  0.24882567  0.68640039  1
  O  O291  1  0.05527560  0.24941360  0.93758564  1
  O  O292  1  0.05712989  0.58341502  0.18646523  1
  O  O293  1  0.05959168  0.58386583  0.43729306  1
  O  O294  1  0.05594029  0.58393148  0.68614906  1
  O  O295  1  0.05792286  0.58370330  0.93894262  1
  O  O296  1  0.06040313  0.91765620  0.18783788  1
  O  O297  1  0.05978190  0.91724801  0.43664826  1
  O  O298  1  0.05732082  0.91744025  0.68585877  1
  O  O299  1  0.05880485  0.91730405  0.93890727  1
  O  O300  1  0.55910220  0.24923136  0.18720155  1
  O  O301  1  0.55629572  0.24875763  0.43598328  1
  O  O302  1  0.55663192  0.24947658  0.68662101  1
  O  O303  1  0.55965114  0.24970474  0.93857409  1
  O  O304  1  0.55587664  0.58366678  0.18657888  1
  O  O305  1  0.55524079  0.58347247  0.43697572  1
  O  O306  1  0.55920933  0.58359763  0.68788543  1
  O  O307  1  0.55699182  0.58369746  0.93656273  1
  O  O308  1  0.55778382  0.91729985  0.18760637  1
  O  O309  1  0.55523253  0.91733349  0.43626198  1
  O  O310  1  0.55542550  0.91703237  0.68671806  1
  O  O311  1  0.55553994  0.91649417  0.93719703  1
  O  O312  1  0.44029440  0.08292816  0.06203348  1
  O  O313  1  0.44142201  0.08304273  0.31192685  1
  O  O314  1  0.44063003  0.08320943  0.56288888  1
  O  O315  1  0.44071530  0.08368087  0.81283703  1
  O  O316  1  0.44321601  0.41654140  0.06350829  1
  O  O317  1  0.44172021  0.41680038  0.31209976  1
  O  O318  1  0.44311944  0.41642157  0.56411886  1
  O  O319  1  0.44448954  0.41718473  0.81335129  1
  O  O320  1  0.44078809  0.74984926  0.06185002  1
  O  O321  1  0.44335333  0.75026404  0.31349790  1
  O  O322  1  0.44034435  0.74991988  0.56231417  1
  O  O323  1  0.44333288  0.74954938  0.81360626  1
  O  O324  1  0.93998778  0.08292475  0.06302599  1
  O  O325  1  0.93989419  0.08240305  0.31178922  1
  O  O326  1  0.94232381  0.08249102  0.56156520  1
  O  O327  1  0.94424981  0.08258118  0.81409413  1
  O  O328  1  0.94105112  0.41667188  0.06183759  1
  O  O329  1  0.94308870  0.41646043  0.31293135  1
  O  O330  1  0.94477753  0.41739890  0.56302108  1
  O  O331  1  0.94424110  0.41703820  0.81398256  1
  O  O332  1  0.94222954  0.75050266  0.06236265  1
  O  O333  1  0.94340644  0.75132553  0.31275076  1
  O  O334  1  0.94488576  0.75029608  0.56305480  1
  O  O335  1  0.94433942  0.75057756  0.81432700  1
  O  O336  1  0.19418368  0.08324594  0.06224121  1
  O  O337  1  0.19440508  0.08318312  0.31189511  1
  O  O338  1  0.19226597  0.08319485  0.56207531  1
  O  O339  1  0.19309649  0.08296727  0.81117455  1
  O  O340  1  0.19297363  0.41671271  0.06143039  1
  O  O341  1  0.19485470  0.41571431  0.31166869  1
  O  O342  1  0.19046042  0.41701661  0.56288367  1
  O  O343  1  0.18917400  0.41646443  0.81256813  1
  O  O344  1  0.19150323  0.74985738  0.06241310  1
  O  O345  1  0.19388415  0.75034405  0.31099506  1
  O  O346  1  0.19235497  0.75020801  0.56314833  1
  O  O347  1  0.18966998  0.75003462  0.81280094  1
  O  O348  1  0.69379410  0.08304865  0.06200651  1
  O  O349  1  0.69057658  0.08276228  0.31276798  1
  O  O350  1  0.69258738  0.08291961  0.56074539  1
  O  O351  1  0.69372741  0.08263160  0.81165609  1
  O  O352  1  0.69400260  0.41697539  0.06151669  1
  O  O353  1  0.69305544  0.41680832  0.31154331  1
  O  O354  1  0.69436047  0.41680641  0.56125207  1
  O  O355  1  0.69195419  0.41761466  0.81326038  1
  O  O356  1  0.69083726  0.75017683  0.06229277  1
  O  O357  1  0.68898330  0.75041808  0.31219665  1
  O  O358  1  0.69291218  0.75035722  0.56100207  1
  O  O359  1  0.69085017  0.75027643  0.81347925  1
  O  O360  1  0.30926514  0.25018221  0.18773213  1
  O  O361  1  0.30951715  0.24945115  0.43699408  1
  O  O362  1  0.30547645  0.25067444  0.68861843  1
  O  O363  1  0.30673486  0.25041316  0.93885353  1
  O  O364  1  0.30656041  0.58364742  0.18889810  1
  O  O365  1  0.30826516  0.58390196  0.43787237  1
  O  O366  1  0.30629229  0.58330995  0.68956896  1
  O  O367  1  0.30840392  0.58354902  0.93642547  1
  O  O368  1  0.30854137  0.91613709  0.18763128  1
  O  O369  1  0.30920305  0.91610739  0.43726560  1
  O  O370  1  0.30815096  0.91626754  0.68779724  1
  O  O371  1  0.30886248  0.91527701  0.93724203  1
  O  O372  1  0.80784746  0.24988326  0.18741485  1
  O  O373  1  0.80820081  0.24968984  0.43705344  1
  O  O374  1  0.80802613  0.25012010  0.68874419  1
  O  O375  1  0.80889210  0.25032942  0.93752252  1
  O  O376  1  0.80885457  0.58446320  0.18692339  1
  O  O377  1  0.80700589  0.58420333  0.43939142  1
  O  O378  1  0.81022083  0.58404132  0.68823901  1
  O  O379  1  0.80974686  0.58424419  0.93744709  1
  O  O380  1  0.80634328  0.91590178  0.18866836  1
  O  O381  1  0.80803733  0.91633738  0.43718519  1
  O  O382  1  0.80792679  0.91593322  0.68910227  1
  O  O383  1  0.80919479  0.91575894  0.93752516  1
  O  O384  1  0.23441000  0.25006268  0.04110957  1
  O  O385  1  0.23585320  0.24930228  0.28952911  1
  O  O386  1  0.23476329  0.24972277  0.53757532  1
  O  O387  1  0.23318643  0.24873897  0.79089296  1
  O  O388  1  0.23269957  0.58380407  0.03662651  1
  O  O389  1  0.23452825  0.58319235  0.29121795  1
  O  O390  1  0.23282651  0.58429514  0.53834139  1
  O  O391  1  0.23331001  0.58336759  0.79079792  1
  O  O392  1  0.23427373  0.91636740  0.03779734  1
  O  O393  1  0.23404965  0.91654379  0.28843129  1
  O  O394  1  0.23449149  0.91695537  0.53800421  1
  O  O395  1  0.23501743  0.91679175  0.78925046  1
  O  O396  1  0.73400603  0.24974238  0.03816892  1
  O  O397  1  0.73291698  0.24905853  0.28774156  1
  O  O398  1  0.73475461  0.24930556  0.53867976  1
  O  O399  1  0.73497968  0.24991024  0.79033175  1
  O  O400  1  0.73590301  0.58366762  0.03851687  1
  O  O401  1  0.73407634  0.58412975  0.28758375  1
  O  O402  1  0.73439938  0.58396837  0.54129542  1
  O  O403  1  0.73471868  0.58402914  0.78849835  1
  O  O404  1  0.73487679  0.91651318  0.03848204  1
  O  O405  1  0.73197756  0.91696729  0.28934254  1
  O  O406  1  0.73409097  0.91684972  0.53847214  1
  O  O407  1  0.73474937  0.91648691  0.79084241  1
  O  O408  1  0.26870004  0.08299101  0.21112385  1
  O  O409  1  0.26755443  0.08191414  0.46196244  1
  O  O410  1  0.26731134  0.08357756  0.71026959  1
  O  O411  1  0.26838855  0.08235485  0.96141898  1
  O  O412  1  0.26881811  0.41668371  0.21046012  1
  O  O413  1  0.26516204  0.41663588  0.46249891  1
  O  O414  1  0.26422806  0.41700304  0.71203228  1
  O  O415  1  0.26529811  0.41639894  0.95938406  1
  O  O416  1  0.26599653  0.75026750  0.20886699  1
  O  O417  1  0.26690920  0.75064165  0.46206930  1
  O  O418  1  0.26452154  0.75036259  0.71253825  1
  O  O419  1  0.26585996  0.75041851  0.96151211  1
  O  O420  1  0.76586499  0.08268022  0.21241727  1
  O  O421  1  0.76668962  0.08308645  0.45989368  1
  O  O422  1  0.76704552  0.08292219  0.70997135  1
  O  O423  1  0.76820090  0.08354901  0.96132727  1
  O  O424  1  0.76597486  0.41578744  0.20968742  1
  O  O425  1  0.76676095  0.41674672  0.45896938  1
  O  O426  1  0.76604742  0.41701465  0.71215998  1
  O  O427  1  0.76825682  0.41688224  0.96073975  1
  O  O428  1  0.76371907  0.75085511  0.21163935  1
  O  O429  1  0.76557740  0.75039954  0.45911193  1
  O  O430  1  0.76545083  0.75009919  0.71264581  1
  O  O431  1  0.76689388  0.74985174  0.96274676  1
  O  O432  1  0.01410781  0.08303243  0.16380229  1
  O  O433  1  0.01418405  0.08307879  0.41252695  1
  O  O434  1  0.01804918  0.08234544  0.66187246  1
  O  O435  1  0.01558705  0.08328799  0.91706399  1
  O  O436  1  0.01468848  0.41709332  0.16342025  1
  O  O437  1  0.01626064  0.41628805  0.41453413  1
  O  O438  1  0.01823122  0.41748299  0.66464233  1
  O  O439  1  0.01691330  0.41704771  0.91578322  1
  O  O440  1  0.01750181  0.75006167  0.16258600  1
  O  O441  1  0.01665872  0.75085785  0.41416351  1
  O  O442  1  0.01876436  0.74988329  0.66443970  1
  O  O443  1  0.01728852  0.75017873  0.91582842  1
  O  O444  1  0.51410405  0.08313323  0.16297190  1
  O  O445  1  0.51593360  0.08259371  0.41269639  1
  O  O446  1  0.51407112  0.08306975  0.66450950  1
  O  O447  1  0.51448117  0.08278708  0.91421286  1
  O  O448  1  0.51557913  0.41700127  0.16555307  1
  O  O449  1  0.51489182  0.41609623  0.41390213  1
  O  O450  1  0.51662686  0.41678135  0.66547018  1
  O  O451  1  0.51870424  0.41754408  0.91454504  1
  O  O452  1  0.51598576  0.75036434  0.16224875  1
  O  O453  1  0.51650427  0.75051542  0.41516320  1
  O  O454  1  0.51443560  0.75063339  0.66324980  1
  O  O455  1  0.51682252  0.74953417  0.91504103  1
  O  O456  1  0.48368782  0.24946017  0.08733478  1
  O  O457  1  0.48257135  0.24934156  0.33501761  1
  O  O458  1  0.48326277  0.24920456  0.58504937  1
  O  O459  1  0.48520046  0.25046513  0.83771371  1
  O  O460  1  0.48352060  0.58338875  0.08459330  1
  O  O461  1  0.48135677  0.58445690  0.33574369  1
  O  O462  1  0.48431790  0.58327706  0.58740641  1
  O  O463  1  0.48334001  0.58414229  0.83520710  1
  O  O464  1  0.48258291  0.91652013  0.08749923  1
  O  O465  1  0.48178460  0.91671972  0.33497292  1
  O  O466  1  0.48114568  0.91671809  0.58573508  1
  O  O467  1  0.48128532  0.91567319  0.83631402  1
  O  O468  1  0.98117507  0.25006906  0.08672569  1
  O  O469  1  0.98118050  0.24911991  0.33533428  1
  O  O470  1  0.98441105  0.24995327  0.58386455  1
  O  O471  1  0.98152617  0.24992372  0.83604684  1
  O  O472  1  0.98349542  0.58346150  0.08537149  1
  O  O473  1  0.98478023  0.58404373  0.33679023  1
  O  O474  1  0.98336330  0.58381102  0.58416172  1
  O  O475  1  0.98307357  0.58376014  0.83822310  1
  O  O476  1  0.98581170  0.91664173  0.08776451  1
  O  O477  1  0.98398646  0.91722527  0.33668098  1
  O  O478  1  0.98551031  0.91656049  0.58352995  1
  O  O479  1  0.98351258  0.91634932  0.83829233  1
  O  O480  1  0.08525850  0.31457223  0.07770759  1
  O  O481  1  0.08503236  0.31438153  0.32618140  1
  O  O482  1  0.08823183  0.31476204  0.57800117  1
  O  O483  1  0.08521445  0.31544577  0.82860658  1
  O  O484  1  0.08735271  0.64905614  0.07707015  1
  O  O485  1  0.08859281  0.64848018  0.32753745  1
  O  O486  1  0.08752754  0.64891717  0.57697887  1
  O  O487  1  0.08663722  0.64872112  0.82901678  1
  O  O488  1  0.08957733  0.98130917  0.07731305  1
  O  O489  1  0.08774216  0.98227750  0.32640572  1
  O  O490  1  0.08955145  0.98159402  0.57638206  1
  O  O491  1  0.08697423  0.98136875  0.82846089  1
  O  O492  1  0.58758280  0.31462586  0.07736577  1
  O  O493  1  0.58708825  0.31320525  0.32648854  1
  O  O494  1  0.58681341  0.31460449  0.57721817  1
  O  O495  1  0.58881083  0.31576107  0.82926068  1
  O  O496  1  0.58697778  0.64938051  0.07749863  1
  O  O497  1  0.58529599  0.64939907  0.32792728  1
  O  O498  1  0.58758685  0.64861305  0.57793245  1
  O  O499  1  0.58738493  0.64916743  0.82743877  1
  O  O500  1  0.58619198  0.98113988  0.07710347  1
  O  O501  1  0.58580627  0.98179624  0.32641529  1
  O  O502  1  0.58463790  0.98209412  0.57700230  1
  O  O503  1  0.58505357  0.98059935  0.82741420  1
  O  O504  1  0.41043578  0.01798431  0.17193072  1
  O  O505  1  0.41177456  0.01813555  0.42171428  1
  O  O506  1  0.41051185  0.01717085  0.67200964  1
  O  O507  1  0.41081234  0.01723926  0.92195879  1
  O  O508  1  0.41246584  0.35028423  0.17243170  1
  O  O509  1  0.41118503  0.35143620  0.42128016  1
  O  O510  1  0.41315023  0.35126501  0.67357400  1
  O  O511  1  0.41456964  0.35322288  0.92300766  1
  O  O512  1  0.41241134  0.68558798  0.17195312  1
  O  O513  1  0.41236154  0.68544773  0.42307770  1
  O  O514  1  0.41094783  0.68586181  0.67256588  1
  O  O515  1  0.41281037  0.68422608  0.92295154  1
  O  O516  1  0.91003514  0.01895795  0.17313793  1
  O  O517  1  0.91080339  0.01739613  0.42176582  1
  O  O518  1  0.91437354  0.01764402  0.67173756  1
  O  O519  1  0.91187280  0.01775228  0.92321775  1
  O  O520  1  0.91098144  0.35214941  0.17146514  1
  O  O521  1  0.91280358  0.35047713  0.42188240  1
  O  O522  1  0.91418852  0.35316803  0.67245659  1
  O  O523  1  0.91283319  0.35184221  0.92301673  1
  O  O524  1  0.91411151  0.68409871  0.17187723  1
  O  O525  1  0.91253481  0.68693784  0.42217482  1
  O  O526  1  0.91507684  0.68430781  0.67228632  1
  O  O527  1  0.91302064  0.68542443  0.92337754  1
  O  O528  1  0.16507353  0.01748687  0.20254008  1
  O  O529  1  0.16375813  0.01714634  0.45245735  1
  O  O530  1  0.16380722  0.01803625  0.70143301  1
  O  O531  1  0.16462048  0.01746504  0.95273390  1
  O  O532  1  0.16511741  0.35106310  0.20208650  1
  O  O533  1  0.16145794  0.35256558  0.45260870  1
  O  O534  1  0.16080363  0.35132153  0.70259227  1
  O  O535  1  0.16090733  0.35217607  0.95239207  1
  O  O536  1  0.16168656  0.68618738  0.20164808  1
  O  O537  1  0.16326192  0.68566713  0.45311394  1
  O  O538  1  0.16099711  0.68518292  0.70269251  1
  O  O539  1  0.16185112  0.68557018  0.95231637  1
  O  O540  1  0.66231879  0.01764997  0.20269344  1
  O  O541  1  0.66251671  0.01825386  0.45106170  1
  O  O542  1  0.66330396  0.01775979  0.70237945  1
  O  O543  1  0.66431796  0.01884582  0.95218188  1
  O  O544  1  0.66222252  0.35072198  0.20283342  1
  O  O545  1  0.66284797  0.35179439  0.45228424  1
  O  O546  1  0.66227266  0.35296348  0.70340114  1
  O  O547  1  0.66440049  0.35095995  0.95238281  1
  O  O548  1  0.65973644  0.68658638  0.20179055  1
  O  O549  1  0.66173076  0.68516898  0.45169528  1
  O  O550  1  0.66219722  0.68421163  0.70395186  1
  O  O551  1  0.66310382  0.68505973  0.95210064  1
  O  O552  1  0.33884072  0.31435418  0.04793280  1
  O  O553  1  0.33926363  0.31512629  0.29743550  1
  O  O554  1  0.33840683  0.31386509  0.54721248  1
  O  O555  1  0.33650027  0.31455854  0.79834258  1
  O  O556  1  0.33604931  0.64938762  0.04641503  1
  O  O557  1  0.33856335  0.64756825  0.29828552  1
  O  O558  1  0.33632958  0.64964343  0.54757694  1
  O  O559  1  0.33722797  0.64831976  0.79892074  1
  O  O560  1  0.33854757  0.98037014  0.04711138  1
  O  O561  1  0.33777590  0.98202121  0.29733699  1
  O  O562  1  0.33862557  0.98123408  0.54697784  1
  O  O563  1  0.33829491  0.98294875  0.79674602  1
  O  O564  1  0.83744100  0.31540874  0.04754145  1
  O  O565  1  0.83695412  0.31347523  0.29788488  1
  O  O566  1  0.83848117  0.31376054  0.54698678  1
  O  O567  1  0.83879637  0.31496808  0.79817813  1
  O  O568  1  0.83942236  0.64915862  0.04746463  1
  O  O569  1  0.83751788  0.64921870  0.29695017  1
  O  O570  1  0.83838542  0.64898106  0.54874626  1
  O  O571  1  0.83862269  0.64878311  0.79841754  1
  O  O572  1  0.83856031  0.98118423  0.04701885  1
  O  O573  1  0.83616176  0.98201584  0.29777676  1
  O  O574  1  0.83750269  0.98270865  0.54636394  1
  O  O575  1  0.83901827  0.98122962  0.79812645  1
  O  O576  1  0.41049011  0.14816928  0.17173947  1
  O  O577  1  0.41242382  0.14823209  0.42196260  1
  O  O578  1  0.41005954  0.14714913  0.67303649  1
  O  O579  1  0.41062259  0.14740217  0.92296902  1
  O  O580  1  0.41084755  0.48037758  0.17266921  1
  O  O581  1  0.41166727  0.48192696  0.42180820  1
  O  O582  1  0.41259151  0.48134818  0.67333393  1
  O  O583  1  0.41498361  0.48330803  0.92245748  1
  O  O584  1  0.41258723  0.81567955  0.17175558  1
  O  O585  1  0.41239795  0.81544979  0.42256477  1
  O  O586  1  0.41091545  0.81592218  0.67167146  1
  O  O587  1  0.41249428  0.81413743  0.92318655  1
  O  O588  1  0.91043604  0.14902868  0.17227317  1
  O  O589  1  0.91017274  0.14760556  0.42147041  1
  O  O590  1  0.91452287  0.14766316  0.67156169  1
  O  O591  1  0.91130130  0.14788163  0.92264347  1
  O  O592  1  0.91137951  0.48261524  0.17107047  1
  O  O593  1  0.91247810  0.48086089  0.42228965  1
  O  O594  1  0.91472269  0.48329058  0.67222470  1
  O  O595  1  0.91269561  0.48191287  0.92306593  1
  O  O596  1  0.91357426  0.81417304  0.17272616  1
  O  O597  1  0.91348614  0.81710610  0.42206178  1
  O  O598  1  0.91490485  0.81435622  0.67280898  1
  O  O599  1  0.91335450  0.81540015  0.92390643  1
  O  O600  1  0.08469705  0.18449723  0.07703859  1
  O  O601  1  0.08513207  0.18436225  0.32602116  1
  O  O602  1  0.08787356  0.18433759  0.57690068  1
  O  O603  1  0.08545697  0.18527085  0.82803647  1
  O  O604  1  0.08772477  0.51906904  0.07690523  1
  O  O605  1  0.08787026  0.51830586  0.32730401  1
  O  O606  1  0.08757338  0.51882565  0.57720274  1
  O  O607  1  0.08651420  0.51858404  0.82899834  1
  O  O608  1  0.08951147  0.85128594  0.07824460  1
  O  O609  1  0.08811598  0.85246967  0.32669707  1
  O  O610  1  0.08956477  0.85150127  0.57737927  1
  O  O611  1  0.08716105  0.85128470  0.82933129  1
  O  O612  1  0.58751443  0.18465539  0.07689208  1
  O  O613  1  0.58599862  0.18314478  0.32638940  1
  O  O614  1  0.58698986  0.18445730  0.57728344  1
  O  O615  1  0.58842823  0.18534963  0.82837348  1
  O  O616  1  0.58775736  0.51937240  0.07742019  1
  O  O617  1  0.58510045  0.51926732  0.32715914  1
  O  O618  1  0.58786615  0.51848036  0.57786343  1
  O  O619  1  0.58767254  0.51903678  0.82728827  1
  O  O620  1  0.58622450  0.85115117  0.07789167  1
  O  O621  1  0.58591841  0.85180062  0.32720070  1
  O  O622  1  0.58514221  0.85218033  0.57715228  1
  O  O623  1  0.58507927  0.85040222  0.82807744  1
  O  O624  1  0.33818321  0.18433026  0.04761057  1
  O  O625  1  0.33992717  0.18491370  0.29706036  1
  O  O626  1  0.33777555  0.18351939  0.54645046  1
  O  O627  1  0.33752310  0.18449937  0.79692118  1
  O  O628  1  0.33646000  0.51927298  0.04657257  1
  O  O629  1  0.33825400  0.51744538  0.29766617  1
  O  O630  1  0.33630622  0.51945385  0.54812963  1
  O  O631  1  0.33737518  0.51843852  0.79900484  1
  O  O632  1  0.33750034  0.85032926  0.04744275  1
  O  O633  1  0.33793369  0.85209458  0.29781440  1
  O  O634  1  0.33773191  0.85119357  0.54755073  1
  O  O635  1  0.33897100  0.85283303  0.79815310  1
  O  O636  1  0.83792582  0.18519050  0.04748616  1
  O  O637  1  0.83658707  0.18355895  0.29694111  1
  O  O638  1  0.83808574  0.18339840  0.54612914  1
  O  O639  1  0.83902821  0.18505447  0.79793893  1
  O  O640  1  0.83974237  0.51890041  0.04685851  1
  O  O641  1  0.83762630  0.51909533  0.29663831  1
  O  O642  1  0.83844994  0.51902263  0.54856004  1
  O  O643  1  0.83849581  0.51895960  0.79824216  1
  O  O644  1  0.83815597  0.85089884  0.04761427  1
  O  O645  1  0.83609402  0.85221913  0.29867557  1
  O  O646  1  0.83785098  0.85252524  0.54735629  1
  O  O647  1  0.83869208  0.85143022  0.79867520  1
  O  O648  1  0.16472795  0.14752836  0.20212032  1
  O  O649  1  0.16416712  0.14719367  0.45149110  1
  O  O650  1  0.16300679  0.14794416  0.70160011  1
  O  O651  1  0.16472086  0.14761388  0.95257705  1
  O  O652  1  0.16471688  0.48109723  0.20249956  1
  O  O653  1  0.16225213  0.48297131  0.45321022  1
  O  O654  1  0.16031909  0.48135843  0.70267476  1
  O  O655  1  0.16155508  0.48225095  0.95236756  1
  O  O656  1  0.16235846  0.81622986  0.20227839  1
  O  O657  1  0.16351045  0.81584151  0.45337253  1
  O  O658  1  0.16082090  0.81507574  0.70282065  1
  O  O659  1  0.16217182  0.81564335  0.95282980  1
  O  O660  1  0.66244705  0.14787175  0.20267095  1
  O  O661  1  0.66269362  0.14807564  0.45108134  1
  O  O662  1  0.66336732  0.14799019  0.70249976  1
  O  O663  1  0.66445736  0.14889624  0.95271073  1
  O  O664  1  0.66255104  0.48114471  0.20208274  1
  O  O665  1  0.66303360  0.48190620  0.45214785  1
  O  O666  1  0.66309521  0.48343186  0.70375607  1
  O  O667  1  0.66402163  0.48096701  0.95167709  1
  O  O668  1  0.66035061  0.81677776  0.20266482  1
  O  O669  1  0.66125420  0.81502247  0.45181767  1
  O  O670  1  0.66174216  0.81450294  0.70330219  1
  O  O671  1  0.66298451  0.81490440  0.95198853  1
