# generated using pymatgen
data_Na2MnFe(PO4)2
_symmetry_space_group_name_H-M   'P 1'
_cell_length_a   21.07971851
_cell_length_b   18.93147326
_cell_length_c   20.03933133
_cell_angle_alpha   89.99996960
_cell_angle_beta   90.00235966
_cell_angle_gamma   89.99965544
_symmetry_Int_Tables_number   1
_chemical_formula_structural   Na2MnFe(PO4)2
_chemical_formula_sum   'Na96 Mn48 Fe48 P96 O384'
_cell_volume   7997.09849660
_cell_formula_units_Z   48
loop_
 _symmetry_equiv_pos_site_id
 _symmetry_equiv_pos_as_xyz
  1  'x, y, z'
loop_
 _atom_site_type_symbol
 _atom_site_label
 _atom_site_symmetry_multiplicity
 _atom_site_fract_x
 _atom_site_fract_y
 _atom_site_fract_z
 _atom_site_occupancy
  Na  Na0  1  -0.00036161  -0.00011157  0.00014341  1
  Na  Na1  1  0.00006234  0.00097307  0.24898066  1
  Na  Na2  1  -0.00064136  0.00006344  0.50070631  1
  Na  Na3  1  -0.00060426  -0.00054919  0.74927235  1
  Na  Na4  1  0.00021418  0.33394916  0.00015268  1
  Na  Na5  1  -0.00015788  0.33312254  0.24840362  1
  Na  Na6  1  -0.00121566  0.33287009  0.50090032  1
  Na  Na7  1  -0.00080001  0.33339759  0.75089050  1
  Na  Na8  1  0.00093130  0.66641700  -0.00024856  1
  Na  Na9  1  0.00026342  0.66611520  0.25056837  1
  Na  Na10  1  0.00064416  0.66632852  0.49993540  1
  Na  Na11  1  0.00095119  0.66603060  0.75055785  1
  Na  Na12  1  0.50092544  0.00035060  0.00037830  1
  Na  Na13  1  0.50161945  0.00081346  0.25016149  1
  Na  Na14  1  0.49871105  -0.00053047  0.49924915  1
  Na  Na15  1  0.49913916  -0.00059050  0.75110524  1
  Na  Na16  1  0.50142012  0.33357091  -0.00014551  1
  Na  Na17  1  0.50388186  0.33423825  0.24945752  1
  Na  Na18  1  0.50215789  0.33360221  0.49977697  1
  Na  Na19  1  0.49925990  0.33301373  0.75085905  1
  Na  Na20  1  0.50074213  0.66726574  -0.00085968  1
  Na  Na21  1  0.49882160  0.66637686  0.24975696  1
  Na  Na22  1  0.50067796  0.66737261  0.50014166  1
  Na  Na23  1  0.50016753  0.66708970  0.75038130  1
  Na  Na24  1  0.24924236  0.00052541  0.12546378  1
  Na  Na25  1  0.24957736  0.00064596  0.37558186  1
  Na  Na26  1  0.24862709  0.00004771  0.62435244  1
  Na  Na27  1  0.24834009  -0.00034148  0.87477561  1
  Na  Na28  1  0.24924648  0.33351362  0.12593591  1
  Na  Na29  1  0.24788464  0.33205597  0.37502467  1
  Na  Na30  1  0.25027122  0.33435535  0.62513338  1
  Na  Na31  1  0.24768544  0.33273920  0.87471980  1
  Na  Na32  1  0.25226649  0.66662831  0.12552233  1
  Na  Na33  1  0.25220777  0.66706773  0.37572062  1
  Na  Na34  1  0.24890583  0.66627662  0.62382223  1
  Na  Na35  1  0.24972154  0.66641887  0.87442909  1
  Na  Na36  1  0.74781667  -0.00117380  0.12422398  1
  Na  Na37  1  0.75115878  0.00024566  0.37557354  1
  Na  Na38  1  0.75336305  0.00027749  0.62485617  1
  Na  Na39  1  0.75188312  0.00026306  0.87493862  1
  Na  Na40  1  0.74988889  0.33375640  0.12544458  1
  Na  Na41  1  0.74795397  0.33223861  0.37439935  1
  Na  Na42  1  0.75205927  0.33427769  0.62460711  1
  Na  Na43  1  0.74951608  0.33302327  0.87496915  1
  Na  Na44  1  0.74807505  0.66606970  0.12466849  1
  Na  Na45  1  0.74877646  0.66703666  0.37574421  1
  Na  Na46  1  0.74831578  0.66610453  0.62578900  1
  Na  Na47  1  0.74942369  0.66624295  0.87378871  1
  Na  Na48  1  0.00016789  0.16716768  -0.00002754  1
  Na  Na49  1  0.00065352  0.16623459  0.24891023  1
  Na  Na50  1  -0.00127394  0.16769503  0.50032411  1
  Na  Na51  1  0.00182756  0.16602566  0.75055626  1
  Na  Na52  1  0.00044524  0.50000392  -0.00023216  1
  Na  Na53  1  0.00112779  0.49950817  0.24905965  1
  Na  Na54  1  0.00135890  0.49970031  0.50039245  1
  Na  Na55  1  -0.00096814  0.50111609  0.75041754  1
  Na  Na56  1  -0.00061571  0.83360697  0.00024793  1
  Na  Na57  1  -0.00138449  0.83391157  0.25003477  1
  Na  Na58  1  -0.00169202  0.83408419  0.50049187  1
  Na  Na59  1  0.00010237  0.83300169  0.74989579  1
  Na  Na60  1  0.50239885  0.16635221  0.00040638  1
  Na  Na61  1  0.50151188  0.16704929  0.25077350  1
  Na  Na62  1  0.50148329  0.16631085  0.49899613  1
  Na  Na63  1  0.50027917  0.16710952  0.75073589  1
  Na  Na64  1  0.50083909  0.49855981  -0.00081632  1
  Na  Na65  1  0.50103999  0.49965527  0.24953028  1
  Na  Na66  1  0.50123224  0.49948915  0.50081964  1
  Na  Na67  1  0.49915219  0.49978596  0.75104164  1
  Na  Na68  1  0.50059741  0.83317311  0.00001197  1
  Na  Na69  1  0.50096386  0.83278390  0.24892003  1
  Na  Na70  1  0.49951471  0.83260493  0.49952317  1
  Na  Na71  1  0.49942296  0.83296765  0.75060610  1
  Na  Na72  1  0.24769852  0.16745840  0.12552308  1
  Na  Na73  1  0.24877958  0.16581621  0.37541811  1
  Na  Na74  1  0.24676038  0.16754305  0.62452328  1
  Na  Na75  1  0.24762605  0.16698376  0.87516577  1
  Na  Na76  1  0.24936445  0.49976957  0.12630126  1
  Na  Na77  1  0.24949476  0.49999391  0.37470331  1
  Na  Na78  1  0.24877311  0.50035648  0.62450740  1
  Na  Na79  1  0.24871663  0.49990842  0.87421760  1
  Na  Na80  1  0.25299384  0.83236679  0.12527343  1
  Na  Na81  1  0.25262665  0.83246654  0.37592979  1
  Na  Na82  1  0.25046886  0.83301892  0.62479337  1
  Na  Na83  1  0.25054405  0.83299861  0.87423974  1
  Na  Na84  1  0.74936169  0.16750206  0.12507745  1
  Na  Na85  1  0.75085093  0.16724441  0.37451527  1
  Na  Na86  1  0.75071011  0.16772387  0.62444418  1
  Na  Na87  1  0.75139809  0.16671338  0.87481827  1
  Na  Na88  1  0.74821974  0.50019832  0.12464953  1
  Na  Na89  1  0.74802882  0.50074112  0.37488588  1
  Na  Na90  1  0.75147667  0.49991932  0.62615786  1
  Na  Na91  1  0.75134544  0.49937290  0.87485984  1
  Na  Na92  1  0.74820220  0.83375040  0.12447920  1
  Na  Na93  1  0.74812559  0.83376566  0.37647686  1
  Na  Na94  1  0.75064597  0.83289307  0.62474749  1
  Na  Na95  1  0.74858524  0.83400605  0.87394537  1
  Mn  Mn96  1  0.85707565  0.75009326  0.25222002  1
  Mn  Mn97  1  0.35828599  0.41568599  0.25263829  1
  Mn  Mn98  1  0.64286314  0.24990839  0.74749756  1
  Mn  Mn99  1  0.10789908  0.75063809  0.37244411  1
  Mn  Mn100  1  0.89212393  0.58304513  0.37767767  1
  Mn  Mn101  1  0.10727313  0.41687081  0.62312470  1
  Mn  Mn102  1  0.64246706  0.91724132  0.74705319  1
  Mn  Mn103  1  0.10835225  0.74989338  0.87276965  1
  Mn  Mn104  1  0.89131488  0.91672716  0.12729983  1
  Mn  Mn105  1  0.14315139  0.58365087  0.24819973  1
  Mn  Mn106  1  0.39167647  0.58300627  0.87727493  1
  Mn  Mn107  1  0.85758613  0.08294707  0.25199339  1
  Mn  Mn108  1  0.60880278  0.08337940  0.87251352  1
  Mn  Mn109  1  0.35734292  0.08336280  0.50258135  1
  Mn  Mn110  1  0.64248569  0.91710142  0.49820799  1
  Mn  Mn111  1  0.60885540  0.08302664  0.37257623  1
  Mn  Mn112  1  0.64277274  0.58301370  0.74794533  1
  Mn  Mn113  1  0.39267973  0.91650374  0.37681460  1
  Mn  Mn114  1  0.85706370  0.74968135  0.00213971  1
  Mn  Mn115  1  0.14181613  0.91588299  0.49732408  1
  Mn  Mn116  1  0.89181069  0.58342109  0.12668622  1
  Mn  Mn117  1  0.35783863  0.41645918  0.50169425  1
  Mn  Mn118  1  0.35746303  0.08416330  0.00302000  1
  Mn  Mn119  1  0.10723012  0.08323854  0.87295972  1
  Mn  Mn120  1  0.10892296  0.75038339  0.12315523  1
  Mn  Mn121  1  0.64100740  0.58342027  0.24738497  1
  Mn  Mn122  1  0.39266976  0.24968411  0.12703975  1
  Mn  Mn123  1  0.39153068  0.24982103  0.87749481  1
  Mn  Mn124  1  0.85784043  0.41719630  0.50141101  1
  Mn  Mn125  1  0.85821697  0.74938859  0.75206825  1
  Mn  Mn126  1  0.85905843  0.08373897  0.75227373  1
  Mn  Mn127  1  0.39286848  0.91792166  0.12714637  1
  Mn  Mn128  1  0.14230344  0.91587230  0.99786295  1
  Mn  Mn129  1  0.39175067  0.91718550  0.87713059  1
  Mn  Mn130  1  0.14223314  0.91652687  0.24836106  1
  Mn  Mn131  1  0.14057501  0.25075635  0.49721065  1
  Mn  Mn132  1  0.60826303  0.41682825  0.62335459  1
  Mn  Mn133  1  0.85711856  0.41718107  0.25244917  1
  Mn  Mn134  1  0.39206349  0.58325131  0.62737077  1
  Mn  Mn135  1  0.39219616  0.24923535  0.62701497  1
  Mn  Mn136  1  0.89291120  0.25017285  0.87817822  1
  Mn  Mn137  1  0.10779667  0.41646415  0.12216505  1
  Mn  Mn138  1  0.60760299  0.75000854  0.12188813  1
  Mn  Mn139  1  0.85728421  0.74961446  0.50253728  1
  Mn  Mn140  1  0.60819288  0.08243919  0.62233292  1
  Mn  Mn141  1  0.39281769  0.25076681  0.37677693  1
  Mn  Mn142  1  0.39259192  0.58252920  0.12623668  1
  Mn  Mn143  1  0.35658047  0.08369247  0.75177870  1
  Fe  Fe144  1  0.60743645  0.41695507  0.87300046  1
  Fe  Fe145  1  0.35667923  0.41649049  0.00130244  1
  Fe  Fe146  1  0.89352091  0.91593315  0.62686910  1
  Fe  Fe147  1  0.89342986  0.58393253  0.87744837  1
  Fe  Fe148  1  0.64295711  0.91678486  0.99735589  1
  Fe  Fe149  1  0.89276396  0.24998273  0.12621253  1
  Fe  Fe150  1  0.60789528  0.41742354  0.37351338  1
  Fe  Fe151  1  0.89265040  0.25045198  0.62697532  1
  Fe  Fe152  1  0.89258728  0.24995832  0.37583309  1
  Fe  Fe153  1  0.85837883  0.08377232  0.50122745  1
  Fe  Fe154  1  0.89181826  0.91703031  0.37646142  1
  Fe  Fe155  1  0.10726557  0.41720589  0.87359351  1
  Fe  Fe156  1  0.60782887  0.41624880  0.12181015  1
  Fe  Fe157  1  0.35853757  0.75042612  0.25222776  1
  Fe  Fe158  1  0.35655111  0.74976654  0.75111016  1
  Fe  Fe159  1  0.10711678  0.08318940  0.12321137  1
  Fe  Fe160  1  0.64222670  0.58280481  0.49876013  1
  Fe  Fe161  1  0.14199890  0.91624056  0.74775471  1
  Fe  Fe162  1  0.64374789  0.25036219  0.49852026  1
  Fe  Fe163  1  0.89301542  0.58363955  0.62642651  1
  Fe  Fe164  1  0.39335813  0.58274330  0.37693526  1
  Fe  Fe165  1  0.89279145  0.91578824  0.87663880  1
  Fe  Fe166  1  0.64252731  0.91711432  0.24842612  1
  Fe  Fe167  1  0.35773948  0.74979148  0.50246192  1
  Fe  Fe168  1  0.64251501  0.58302208  0.99715322  1
  Fe  Fe169  1  0.10622449  0.08364435  0.37332888  1
  Fe  Fe170  1  0.85693563  0.08380061  0.00205007  1
  Fe  Fe171  1  0.14244809  0.58355150  0.74798807  1
  Fe  Fe172  1  0.14219121  0.25025679  0.74788719  1
  Fe  Fe173  1  0.14166660  0.24953330  0.24861516  1
  Fe  Fe174  1  0.60798310  0.08391090  0.12299461  1
  Fe  Fe175  1  0.85672765  0.41643156  0.00124967  1
  Fe  Fe176  1  0.14217862  0.25094338  0.99846831  1
  Fe  Fe177  1  0.60693368  0.74963915  0.87310566  1
  Fe  Fe178  1  0.35775760  0.74932407  0.00098533  1
  Fe  Fe179  1  0.64369094  0.25018943  0.99837161  1
  Fe  Fe180  1  0.85821552  0.41699288  0.75248475  1
  Fe  Fe181  1  0.10707673  0.41589104  0.37323344  1
  Fe  Fe182  1  0.10632247  0.08281158  0.62331016  1
  Fe  Fe183  1  0.39216538  0.91687892  0.62688236  1
  Fe  Fe184  1  0.60643291  0.75039408  0.62359332  1
  Fe  Fe185  1  0.35696942  0.08356294  0.25156477  1
  Fe  Fe186  1  0.60658411  0.74958918  0.37343607  1
  Fe  Fe187  1  0.64321113  0.24913779  0.24772575  1
  Fe  Fe188  1  0.14306559  0.58308420  0.99857871  1
  Fe  Fe189  1  0.10754475  0.75018607  0.62325283  1
  Fe  Fe190  1  0.14262647  0.58347567  0.49795167  1
  Fe  Fe191  1  0.35646097  0.41677111  0.75182360  1
  P  P192  1  0.05395781  0.24927918  0.11029286  1
  P  P193  1  0.05199396  0.24989549  0.35927386  1
  P  P194  1  0.05297342  0.24981292  0.61160192  1
  P  P195  1  0.05526101  0.25136658  0.86088271  1
  P  P196  1  0.05426967  0.58353938  0.10922065  1
  P  P197  1  0.05457561  0.58242434  0.36104370  1
  P  P198  1  0.05437992  0.58416537  0.61072549  1
  P  P199  1  0.05469442  0.58249001  0.86087501  1
  P  P200  1  0.05324437  0.91734515  0.11011819  1
  P  P201  1  0.05134894  0.91769085  0.36008441  1
  P  P202  1  0.05368834  0.91612444  0.61119566  1
  P  P203  1  0.05276322  0.91648899  0.85933120  1
  P  P204  1  0.55580294  0.24972859  0.11047311  1
  P  P205  1  0.55630964  0.25085617  0.36056445  1
  P  P206  1  0.55427913  0.24980365  0.60920732  1
  P  P207  1  0.55504727  0.25106088  0.86132640  1
  P  P208  1  0.55404281  0.58255460  0.10839807  1
  P  P209  1  0.55342010  0.58356996  0.36144839  1
  P  P210  1  0.55384455  0.58408029  0.61008864  1
  P  P211  1  0.55456359  0.58297625  0.86107693  1
  P  P212  1  0.55562878  0.91790088  0.11028235  1
  P  P213  1  0.55423054  0.91561856  0.35943755  1
  P  P214  1  0.55166662  0.91579712  0.60992283  1
  P  P215  1  0.55478171  0.91592755  0.86098457  1
  P  P216  1  0.44798961  0.08406958  0.14090822  1
  P  P217  1  0.44588930  0.08377886  0.38879550  1
  P  P218  1  0.44695059  0.08251473  0.64041401  1
  P  P219  1  0.44678803  0.08367247  0.89055423  1
  P  P220  1  0.44711595  0.41611311  0.13856077  1
  P  P221  1  0.44859287  0.41712887  0.38991618  1
  P  P222  1  0.44606232  0.41632460  0.64113452  1
  P  P223  1  0.44542703  0.41639522  0.88970444  1
  P  P224  1  0.44489483  0.74989956  0.13899421  1
  P  P225  1  0.44577242  0.74915664  0.38952430  1
  P  P226  1  0.44553813  0.75062895  0.63972173  1
  P  P227  1  0.44567139  0.74989610  0.88913820  1
  P  P228  1  0.94595105  0.08441561  0.13834804  1
  P  P229  1  0.94675903  0.08376400  0.38997694  1
  P  P230  1  0.94638398  0.08355309  0.63861435  1
  P  P231  1  0.94595787  0.08241609  0.89091315  1
  P  P232  1  0.94481874  0.41608647  0.13831789  1
  P  P233  1  0.94797416  0.41574095  0.38961350  1
  P  P234  1  0.94566292  0.41728231  0.64057357  1
  P  P235  1  0.94621621  0.41782816  0.88981262  1
  P  P236  1  0.94686801  0.74966645  0.14023701  1
  P  P237  1  0.94645966  0.75054971  0.39021807  1
  P  P238  1  0.94796646  0.74927725  0.63986398  1
  P  P239  1  0.94691497  0.74978378  0.89001198  1
  P  P240  1  0.19503624  0.08399167  0.23594778  1
  P  P241  1  0.19372795  0.08321363  0.48536226  1
  P  P242  1  0.19480487  0.08308696  0.73429572  1
  P  P243  1  0.19507910  0.08410473  0.98634175  1
  P  P244  1  0.19519117  0.41547864  0.23643193  1
  P  P245  1  0.19549440  0.41759325  0.48428694  1
  P  P246  1  0.19593149  0.41697459  0.73624478  1
  P  P247  1  0.19677384  0.41686438  0.98467633  1
  P  P248  1  0.19903719  0.75016987  0.23545954  1
  P  P249  1  0.19667967  0.74931075  0.48607087  1
  P  P250  1  0.19669536  0.74981834  0.73418214  1
  P  P251  1  0.19848470  0.74897152  0.98510811  1
  P  P252  1  0.69639450  0.08309712  0.23442965  1
  P  P253  1  0.69873359  0.08401850  0.48516837  1
  P  P254  1  0.69793844  0.08335991  0.73426369  1
  P  P255  1  0.69707305  0.08388272  0.98603809  1
  P  P256  1  0.69431396  0.41596393  0.23527503  1
  P  P257  1  0.69629150  0.41698779  0.48481867  1
  P  P258  1  0.69765440  0.41669718  0.73610851  1
  P  P259  1  0.69599740  0.41628766  0.98527096  1
  P  P260  1  0.69478782  0.75087109  0.23611473  1
  P  P261  1  0.69415044  0.74914410  0.48632768  1
  P  P262  1  0.69493740  0.75010538  0.73514670  1
  P  P263  1  0.69563702  0.74979339  0.98370989  1
  P  P264  1  0.30158369  0.25126761  0.01523059  1
  P  P265  1  0.30194126  0.24875312  0.26506161  1
  P  P266  1  0.30251245  0.25009240  0.51495533  1
  P  P267  1  0.30150536  0.25042320  0.76476966  1
  P  P268  1  0.30226430  0.58225462  0.01459570  1
  P  P269  1  0.30518572  0.58333055  0.26582562  1
  P  P270  1  0.30375097  0.58338186  0.51373492  1
  P  P271  1  0.30208909  0.58364413  0.76429651  1
  P  P272  1  0.30346581  0.91623353  0.01506175  1
  P  P273  1  0.30366423  0.91761904  0.26506209  1
  P  P274  1  0.30415149  0.91607958  0.51557619  1
  P  P275  1  0.30268479  0.91608995  0.76337546  1
  P  P276  1  0.80324793  0.25053216  0.01538485  1
  P  P277  1  0.80392692  0.25005721  0.26401595  1
  P  P278  1  0.80493023  0.24973944  0.51382969  1
  P  P279  1  0.80548813  0.25102756  0.76421161  1
  P  P280  1  0.80273985  0.58258155  0.01343405  1
  P  P281  1  0.80239259  0.58350521  0.26527179  1
  P  P282  1  0.80224718  0.58335456  0.51595120  1
  P  P283  1  0.80603190  0.58280259  0.76465947  1
  P  P284  1  0.80315535  0.91690722  0.01345688  1
  P  P285  1  0.80194177  0.91654152  0.26573101  1
  P  P286  1  0.80562836  0.91736873  0.51464377  1
  P  P287  1  0.80580249  0.91618770  0.76446302  1
  O  O288  1  0.05824294  0.24993782  0.18700702  1
  O  O289  1  0.05492704  0.25027016  0.43608452  1
  O  O290  1  0.05794867  0.25047654  0.68828555  1
  O  O291  1  0.05899070  0.25099715  0.93770409  1
  O  O292  1  0.05779422  0.58346576  0.18602802  1
  O  O293  1  0.05857293  0.58335948  0.43786601  1
  O  O294  1  0.05902019  0.58358471  0.68751068  1
  O  O295  1  0.05969897  0.58315107  0.93753473  1
  O  O296  1  0.05657303  0.91675169  0.18688615  1
  O  O297  1  0.05511715  0.91667276  0.43680061  1
  O  O298  1  0.05817517  0.91592651  0.68789401  1
  O  O299  1  0.05675445  0.91631051  0.93605041  1
  O  O300  1  0.55946284  0.24967901  0.18727902  1
  O  O301  1  0.56054035  0.24963869  0.43733972  1
  O  O302  1  0.55716382  0.24991881  0.68607269  1
  O  O303  1  0.55969501  0.25029672  0.93805671  1
  O  O304  1  0.55626124  0.58341774  0.18529491  1
  O  O305  1  0.55767668  0.58333279  0.43811264  1
  O  O306  1  0.55682705  0.58309958  0.68689801  1
  O  O307  1  0.55854324  0.58277315  0.93781512  1
  O  O308  1  0.55922199  0.91705840  0.18706948  1
  O  O309  1  0.55685036  0.91667775  0.43625158  1
  O  O310  1  0.55553017  0.91658503  0.68663853  1
  O  O311  1  0.55922356  0.91692751  0.93778131  1
  O  O312  1  0.44367695  0.08413562  0.06416409  1
  O  O313  1  0.44130852  0.08406622  0.31209525  1
  O  O314  1  0.44382227  0.08332540  0.56359754  1
  O  O315  1  0.44252583  0.08385781  0.81381209  1
  O  O316  1  0.44141278  0.41591532  0.06195657  1
  O  O317  1  0.44484967  0.41624770  0.31316298  1
  O  O318  1  0.44305660  0.41646915  0.56432349  1
  O  O319  1  0.43963409  0.41641306  0.81303674  1
  O  O320  1  0.44060089  0.74970574  0.06216319  1
  O  O321  1  0.44159776  0.75008968  0.31269790  1
  O  O322  1  0.44115097  0.74972012  0.56292948  1
  O  O323  1  0.44040633  0.74968121  0.81245607  1
  O  O324  1  0.94081392  0.08379575  0.06170222  1
  O  O325  1  0.94358329  0.08363821  0.31319091  1
  O  O326  1  0.94225779  0.08401320  0.56190941  1
  O  O327  1  0.94384231  0.08349558  0.81404701  1
  O  O328  1  0.94035584  0.41681658  0.06156147  1
  O  O329  1  0.94425092  0.41664557  0.31289820  1
  O  O330  1  0.94298972  0.41725409  0.56374263  1
  O  O331  1  0.94201020  0.41703892  0.81309207  1
  O  O332  1  0.94335735  0.74952034  0.06343830  1
  O  O333  1  0.94326443  0.74973423  0.31344439  1
  O  O334  1  0.94405451  0.74914184  0.56319950  1
  O  O335  1  0.94415837  0.74950110  0.81328813  1
  O  O336  1  0.19113871  0.08341548  0.06313543  1
  O  O337  1  0.19012315  0.08326611  0.31269654  1
  O  O338  1  0.18889582  0.08330760  0.56212048  1
  O  O339  1  0.19231221  0.08276933  0.81115677  1
  O  O340  1  0.19378315  0.41684803  0.06144312  1
  O  O341  1  0.19082669  0.41571727  0.31315183  1
  O  O342  1  0.19248638  0.41679461  0.56111551  1
  O  O343  1  0.19145087  0.41689718  0.81289303  1
  O  O344  1  0.19521916  0.74968028  0.06179576  1
  O  O345  1  0.19466589  0.75041227  0.31216696  1
  O  O346  1  0.19136468  0.75013903  0.56269364  1
  O  O347  1  0.19349791  0.75005209  0.81098271  1
  O  O348  1  0.69264279  0.08364839  0.06268850  1
  O  O349  1  0.69428048  0.08330608  0.31129133  1
  O  O350  1  0.69504497  0.08314981  0.56185037  1
  O  O351  1  0.69456572  0.08306350  0.81108358  1
  O  O352  1  0.69180468  0.41667147  0.06204924  1
  O  O353  1  0.69055628  0.41715119  0.31208733  1
  O  O354  1  0.69413358  0.41704428  0.56163812  1
  O  O355  1  0.69241806  0.41673766  0.81272611  1
  O  O356  1  0.69314938  0.74968195  0.06058469  1
  O  O357  1  0.69092967  0.74992959  0.31290629  1
  O  O358  1  0.69026448  0.75018871  0.56311156  1
  O  O359  1  0.69058801  0.75008077  0.81188053  1
  O  O360  1  0.30613769  0.24965823  0.18837825  1
  O  O361  1  0.30648500  0.24973308  0.43821319  1
  O  O362  1  0.30550416  0.24994053  0.68811548  1
  O  O363  1  0.30520927  0.25027192  0.93852440  1
  O  O364  1  0.30795017  0.58219334  0.18900280  1
  O  O365  1  0.30899578  0.58268757  0.43712019  1
  O  O366  1  0.30561995  0.58340523  0.68762568  1
  O  O367  1  0.30530663  0.58231741  0.93782942  1
  O  O368  1  0.30654326  0.91777392  0.18829457  1
  O  O369  1  0.30755031  0.91683899  0.43880407  1
  O  O370  1  0.30752808  0.91693137  0.68674731  1
  O  O371  1  0.30590938  0.91717960  0.93819181  1
  O  O372  1  0.80879183  0.25014882  0.18738800  1
  O  O373  1  0.80936299  0.25030521  0.43706136  1
  O  O374  1  0.80944970  0.25048168  0.68736819  1
  O  O375  1  0.80685590  0.25044193  0.93863640  1
  O  O376  1  0.80587529  0.58329814  0.18848042  1
  O  O377  1  0.80616635  0.58360704  0.43920971  1
  O  O378  1  0.81011418  0.58394525  0.68789140  1
  O  O379  1  0.80814709  0.58330081  0.93680739  1
  O  O380  1  0.80558972  0.91638804  0.18893702  1
  O  O381  1  0.80928892  0.91652269  0.43781878  1
  O  O382  1  0.81058548  0.91575931  0.68763928  1
  O  O383  1  0.80826395  0.91627838  0.93682077  1
  O  O384  1  0.23154853  0.25123868  0.03989332  1
  O  O385  1  0.23180440  0.24888946  0.28939732  1
  O  O386  1  0.23255435  0.25089756  0.53928503  1
  O  O387  1  0.23127205  0.24974117  0.78896006  1
  O  O388  1  0.23252331  0.58269096  0.04017137  1
  O  O389  1  0.23539106  0.58333338  0.29078513  1
  O  O390  1  0.23337211  0.58337652  0.53737560  1
  O  O391  1  0.23200218  0.58368606  0.78895283  1
  O  O392  1  0.23399052  0.91621484  0.04086662  1
  O  O393  1  0.23416018  0.91688283  0.29096694  1
  O  O394  1  0.23417918  0.91641185  0.53991052  1
  O  O395  1  0.23229523  0.91614735  0.78719854  1
  O  O396  1  0.73310700  0.25078045  0.03975454  1
  O  O397  1  0.73348340  0.24947447  0.28733343  1
  O  O398  1  0.73454157  0.25076596  0.53767287  1
  O  O399  1  0.73561444  0.25018671  0.78870113  1
  O  O400  1  0.73224435  0.58288439  0.03678792  1
  O  O401  1  0.73255744  0.58352486  0.28986323  1
  O  O402  1  0.73215127  0.58291372  0.54028627  1
  O  O403  1  0.73582947  0.58301039  0.78838916  1
  O  O404  1  0.73268564  0.91640918  0.03689544  1
  O  O405  1  0.73196267  0.91731542  0.29031702  1
  O  O406  1  0.73555302  0.91660603  0.53897406  1
  O  O407  1  0.73558316  0.91678612  0.78783085  1
  O  O408  1  0.26542251  0.08392728  0.21220354  1
  O  O409  1  0.26402072  0.08307364  0.46213275  1
  O  O410  1  0.26444475  0.08371136  0.70882144  1
  O  O411  1  0.26493042  0.08375932  0.96157290  1
  O  O412  1  0.26527826  0.41623499  0.21234563  1
  O  O413  1  0.26521107  0.41632121  0.45918995  1
  O  O414  1  0.26616448  0.41731680  0.71193379  1
  O  O415  1  0.26664389  0.41640958  0.95941680  1
  O  O416  1  0.26923189  0.74984186  0.21146979  1
  O  O417  1  0.26720886  0.74966512  0.46290698  1
  O  O418  1  0.26675799  0.74956780  0.70942801  1
  O  O419  1  0.26836657  0.74923715  0.95984018  1
  O  O420  1  0.76595240  0.08301532  0.20874950  1
  O  O421  1  0.76869119  0.08373672  0.46027524  1
  O  O422  1  0.76767237  0.08365910  0.70951750  1
  O  O423  1  0.76737590  0.08396013  0.96182348  1
  O  O424  1  0.76434982  0.41695642  0.21104338  1
  O  O425  1  0.76581659  0.41683858  0.45888119  1
  O  O426  1  0.76798220  0.41722568  0.71254124  1
  O  O427  1  0.76641864  0.41601761  0.96141084  1
  O  O428  1  0.76451537  0.75007909  0.21098987  1
  O  O429  1  0.76426393  0.75006052  0.46222374  1
  O  O430  1  0.76514298  0.74965929  0.71143968  1
  O  O431  1  0.76528255  0.74995131  0.95825012  1
  O  O432  1  0.01627564  0.08381465  0.16201651  1
  O  O433  1  0.01671601  0.08403744  0.41505822  1
  O  O434  1  0.01655036  0.08287686  0.66314655  1
  O  O435  1  0.01562455  0.08332391  0.91614770  1
  O  O436  1  0.01497511  0.41643624  0.16208446  1
  O  O437  1  0.01781437  0.41575791  0.41479083  1
  O  O438  1  0.01538531  0.41724706  0.66581327  1
  O  O439  1  0.01655681  0.41734681  0.91365007  1
  O  O440  1  0.01655032  0.74995295  0.16538493  1
  O  O441  1  0.01618457  0.75033360  0.41540628  1
  O  O442  1  0.01797591  0.74955473  0.66466262  1
  O  O443  1  0.01661716  0.74988027  0.91533529  1
  O  O444  1  0.51826753  0.08409366  0.16464789  1
  O  O445  1  0.51610648  0.08308775  0.41261293  1
  O  O446  1  0.51653195  0.08294083  0.66594634  1
  O  O447  1  0.51676070  0.08349238  0.91470401  1
  O  O448  1  0.51767256  0.41633372  0.16151678  1
  O  O449  1  0.51859984  0.41684891  0.41454996  1
  O  O450  1  0.51589377  0.41650853  0.66601109  1
  O  O451  1  0.51607652  0.41653725  0.91232146  1
  O  O452  1  0.51509350  0.74973786  0.16264606  1
  O  O453  1  0.51608466  0.74992647  0.41333975  1
  O  O454  1  0.51587575  0.74996707  0.66354719  1
  O  O455  1  0.51615276  0.74984218  0.91238969  1
  O  O456  1  0.48582636  0.24982546  0.08587739  1
  O  O457  1  0.48622572  0.25058022  0.33630394  1
  O  O458  1  0.48459594  0.24993582  0.58400952  1
  O  O459  1  0.48491122  0.25076345  0.83742731  1
  O  O460  1  0.48446129  0.58283199  0.08287837  1
  O  O461  1  0.48338890  0.58335017  0.33664261  1
  O  O462  1  0.48409294  0.58348450  0.58509999  1
  O  O463  1  0.48456739  0.58311866  0.83660014  1
  O  O464  1  0.48561939  0.91714637  0.08584094  1
  O  O465  1  0.48463236  0.91646094  0.33401456  1
  O  O466  1  0.48175692  0.91594570  0.58504044  1
  O  O467  1  0.48467899  0.91614444  0.83703665  1
  O  O468  1  0.98367560  0.25012878  0.08621029  1
  O  O469  1  0.98204346  0.24954549  0.33411252  1
  O  O470  1  0.98259475  0.25050911  0.58791669  1
  O  O471  1  0.98516576  0.24997479  0.83684030  1
  O  O472  1  0.98440829  0.58317807  0.08461646  1
  O  O473  1  0.98465596  0.58280502  0.33644722  1
  O  O474  1  0.98392828  0.58316768  0.58712151  1
  O  O475  1  0.98421012  0.58337170  0.83759799  1
  O  O476  1  0.98348687  0.91714788  0.08515982  1
  O  O477  1  0.98135135  0.91753020  0.33522847  1
  O  O478  1  0.98332325  0.91641788  0.58734036  1
  O  O479  1  0.98261433  0.91628511  0.83515749  1
  O  O480  1  0.08783042  0.31411363  0.07685280  1
  O  O481  1  0.08615702  0.31480372  0.32657422  1
  O  O482  1  0.08626295  0.31482020  0.57805817  1
  O  O483  1  0.08807807  0.31685097  0.82786804  1
  O  O484  1  0.08836927  0.64856778  0.07664608  1
  O  O485  1  0.08842657  0.64742533  0.32791755  1
  O  O486  1  0.08748801  0.64936179  0.57748393  1
  O  O487  1  0.08845431  0.64722827  0.82714570  1
  O  O488  1  0.08716719  0.98254388  0.07784180  1
  O  O489  1  0.08507281  0.98299260  0.32786574  1
  O  O490  1  0.08691410  0.98117814  0.57796998  1
  O  O491  1  0.08643868  0.98159514  0.82651727  1
  O  O492  1  0.58967619  0.31474945  0.07743917  1
  O  O493  1  0.58980059  0.31612104  0.32795857  1
  O  O494  1  0.58880713  0.31487104  0.57711299  1
  O  O495  1  0.58837912  0.31641232  0.82838805  1
  O  O496  1  0.58860956  0.64746644  0.07607372  1
  O  O497  1  0.58661875  0.64892321  0.32829621  1
  O  O498  1  0.58763346  0.64937540  0.57789262  1
  O  O499  1  0.58818301  0.64811538  0.82825557  1
  O  O500  1  0.58906366  0.98334233  0.07769328  1
  O  O501  1  0.58917112  0.98030387  0.32693412  1
  O  O502  1  0.58579003  0.98069358  0.57685140  1
  O  O503  1  0.58834645  0.98088233  0.82751929  1
  O  O504  1  0.41417596  0.01901832  0.17373221  1
  O  O505  1  0.41217746  0.01877926  0.42178566  1
  O  O506  1  0.41289338  0.01715995  0.67244346  1
  O  O507  1  0.41299389  0.01852058  0.92313797  1
  O  O508  1  0.41423978  0.35112410  0.17260406  1
  O  O509  1  0.41468509  0.35217813  0.42283807  1
  O  O510  1  0.41180849  0.35131811  0.67359895  1
  O  O511  1  0.41232621  0.35153120  0.92364753  1
  O  O512  1  0.41140720  0.68489191  0.17216783  1
  O  O513  1  0.41265885  0.68387472  0.42262670  1
  O  O514  1  0.41179812  0.68577694  0.67325208  1
  O  O515  1  0.41243796  0.68480404  0.92269780  1
  O  O516  1  0.91241892  0.01957119  0.17198981  1
  O  O517  1  0.91268837  0.01878370  0.42264867  1
  O  O518  1  0.91273293  0.01841108  0.67135710  1
  O  O519  1  0.91205393  0.01694660  0.92260052  1
  O  O520  1  0.91169563  0.35067312  0.17118021  1
  O  O521  1  0.91399442  0.35051461  0.42173877  1
  O  O522  1  0.91140485  0.35224319  0.67299193  1
  O  O523  1  0.91251201  0.35295187  0.92332693  1
  O  O524  1  0.91285514  0.68456371  0.17270028  1
  O  O525  1  0.91230214  0.68556712  0.42304032  1
  O  O526  1  0.91433520  0.68412410  0.67269469  1
  O  O527  1  0.91283355  0.68463144  0.92251171  1
  O  O528  1  0.16156729  0.01903736  0.20235021  1
  O  O529  1  0.16027281  0.01824358  0.45196149  1
  O  O530  1  0.16086010  0.01781662  0.70189117  1
  O  O531  1  0.16127148  0.01916136  0.95312370  1
  O  O532  1  0.16193431  0.35021560  0.20338052  1
  O  O533  1  0.16038047  0.35301615  0.45171411  1
  O  O534  1  0.16266025  0.35182871  0.70290914  1
  O  O535  1  0.16207832  0.35205054  0.95230649  1
  O  O536  1  0.16536360  0.68512972  0.20262379  1
  O  O537  1  0.16367274  0.68415262  0.45281055  1
  O  O538  1  0.16258297  0.68472122  0.70178897  1
  O  O539  1  0.16455551  0.68381797  0.95273751  1
  O  O540  1  0.66183892  0.01810841  0.20243026  1
  O  O541  1  0.66460780  0.01900637  0.45242409  1
  O  O542  1  0.66416940  0.01821966  0.70153120  1
  O  O543  1  0.66372636  0.01887671  0.95255596  1
  O  O544  1  0.66136483  0.35031779  0.20268515  1
  O  O545  1  0.66187413  0.35198404  0.45264671  1
  O  O546  1  0.66471943  0.35163669  0.70246861  1
  O  O547  1  0.66254658  0.35107365  0.95236837  1
  O  O548  1  0.66049976  0.68621237  0.20284664  1
  O  O549  1  0.66102825  0.68359232  0.45357712  1
  O  O550  1  0.66103579  0.68521258  0.70220252  1
  O  O551  1  0.66135570  0.68468449  0.95139840  1
  O  O552  1  0.33553599  0.31647178  0.04753972  1
  O  O553  1  0.33580440  0.31383693  0.29808299  1
  O  O554  1  0.33681093  0.31498776  0.54737697  1
  O  O555  1  0.33483643  0.31569332  0.79761926  1
  O  O556  1  0.33687606  0.64716310  0.04667944  1
  O  O557  1  0.33943397  0.64848942  0.29781314  1
  O  O558  1  0.33702418  0.64851133  0.54701860  1
  O  O559  1  0.33589379  0.64886532  0.79685522  1
  O  O560  1  0.33768024  0.98125720  0.04769774  1
  O  O561  1  0.33734489  0.98310266  0.29728234  1
  O  O562  1  0.33827340  0.98095061  0.54855948  1
  O  O563  1  0.33592380  0.98102499  0.79719749  1
  O  O564  1  0.83720761  0.31557281  0.04802097  1
  O  O565  1  0.83684332  0.31511575  0.29782117  1
  O  O566  1  0.83882162  0.31450489  0.54724717  1
  O  O567  1  0.83877038  0.31630686  0.79714546  1
  O  O568  1  0.83579078  0.64759795  0.04726417  1
  O  O569  1  0.83631241  0.64847497  0.29793606  1
  O  O570  1  0.83603315  0.64835069  0.54904404  1
  O  O571  1  0.83958726  0.64769602  0.79828050  1
  O  O572  1  0.83601452  0.98213747  0.04694906  1
  O  O573  1  0.83647658  0.98147337  0.29810054  1
  O  O574  1  0.83915661  0.98275708  0.54699422  1
  O  O575  1  0.83969113  0.98101829  0.79757979  1
  O  O576  1  0.41407147  0.14898975  0.17383981  1
  O  O577  1  0.41285844  0.14890103  0.42232756  1
  O  O578  1  0.41261259  0.14753316  0.67296040  1
  O  O579  1  0.41319028  0.14881391  0.92353190  1
  O  O580  1  0.41402430  0.48120620  0.17202014  1
  O  O581  1  0.41486854  0.48227935  0.42249848  1
  O  O582  1  0.41178078  0.48136981  0.67366504  1
  O  O583  1  0.41227036  0.48148670  0.92331105  1
  O  O584  1  0.41161564  0.81501770  0.17231239  1
  O  O585  1  0.41187488  0.81390513  0.42295325  1
  O  O586  1  0.41222785  0.81584110  0.67269880  1
  O  O587  1  0.41238889  0.81479792  0.92269517  1
  O  O588  1  0.91308943  0.14973679  0.17159410  1
  O  O589  1  0.91264309  0.14890136  0.42242813  1
  O  O590  1  0.91343916  0.14875205  0.67207924  1
  O  O591  1  0.91120005  0.14714630  0.92350950  1
  O  O592  1  0.91133316  0.48095081  0.17189351  1
  O  O593  1  0.91401811  0.48065159  0.42274401  1
  O  O594  1  0.91159491  0.48245720  0.67287844  1
  O  O595  1  0.91267927  0.48297186  0.92274436  1
  O  O596  1  0.91247635  0.81481108  0.17233312  1
  O  O597  1  0.91243175  0.81584218  0.42215382  1
  O  O598  1  0.91390221  0.81428340  0.67246727  1
  O  O599  1  0.91277643  0.81499724  0.92219062  1
  O  O600  1  0.08726645  0.18410614  0.07734731  1
  O  O601  1  0.08621165  0.18473761  0.32702661  1
  O  O602  1  0.08581893  0.18467504  0.57820036  1
  O  O603  1  0.08952274  0.18666451  0.82783540  1
  O  O604  1  0.08847523  0.51857207  0.07654278  1
  O  O605  1  0.08795210  0.51699966  0.32854268  1
  O  O606  1  0.08826659  0.51937718  0.57741105  1
  O  O607  1  0.08744341  0.51716721  0.82742129  1
  O  O608  1  0.08730985  0.85223769  0.07748535  1
  O  O609  1  0.08549542  0.85278693  0.32717126  1
  O  O610  1  0.08669659  0.85091614  0.57774935  1
  O  O611  1  0.08696139  0.85160478  0.82649360  1
  O  O612  1  0.58970301  0.18462799  0.07762456  1
  O  O613  1  0.59016105  0.18595224  0.32707748  1
  O  O614  1  0.58871171  0.18487771  0.57674341  1
  O  O615  1  0.58864579  0.18613629  0.82789364  1
  O  O616  1  0.58844485  0.51741081  0.07652462  1
  O  O617  1  0.58719404  0.51865880  0.32822585  1
  O  O618  1  0.58846424  0.51931917  0.57740011  1
  O  O619  1  0.58810891  0.51771537  0.82812099  1
  O  O620  1  0.58966129  0.85313293  0.07694360  1
  O  O621  1  0.58792467  0.85013361  0.32749668  1
  O  O622  1  0.58559497  0.85065295  0.57759203  1
  O  O623  1  0.58804320  0.85062578  0.82818297  1
  O  O624  1  0.33543613  0.18634627  0.04837421  1
  O  O625  1  0.33576125  0.18366463  0.29761525  1
  O  O626  1  0.33575783  0.18480355  0.54797059  1
  O  O627  1  0.33532073  0.18550962  0.79796818  1
  O  O628  1  0.33599918  0.51686817  0.04704391  1
  O  O629  1  0.33938122  0.51833999  0.29864498  1
  O  O630  1  0.33679528  0.51830783  0.54740481  1
  O  O631  1  0.33598419  0.51874224  0.79729129  1
  O  O632  1  0.33798837  0.85099698  0.04644307  1
  O  O633  1  0.33839329  0.85260006  0.29701974  1
  O  O634  1  0.33807835  0.85085962  0.54790890  1
  O  O635  1  0.33607044  0.85076620  0.79619386  1
  O  O636  1  0.83704382  0.18547100  0.04825492  1
  O  O637  1  0.83759370  0.18520685  0.29740426  1
  O  O638  1  0.83796865  0.18444542  0.54705643  1
  O  O639  1  0.83952316  0.18619360  0.79723670  1
  O  O640  1  0.83566628  0.51733931  0.04674162  1
  O  O641  1  0.83625225  0.51840044  0.29801799  1
  O  O642  1  0.83665770  0.51842954  0.54831310  1
  O  O643  1  0.83956333  0.51771660  0.79764388  1
  O  O644  1  0.83629121  0.85193134  0.04724872  1
  O  O645  1  0.83560025  0.85156030  0.29872981  1
  O  O646  1  0.83966028  0.85259176  0.54804958  1
  O  O647  1  0.83891608  0.85105952  0.79798758  1
  O  O648  1  0.16136600  0.14904130  0.20287401  1
  O  O649  1  0.16025062  0.14822797  0.45199959  1
  O  O650  1  0.16003081  0.14805701  0.70229894  1
  O  O651  1  0.16149737  0.14948864  0.95394691  1
  O  O652  1  0.16145942  0.48043545  0.20327298  1
  O  O653  1  0.16191593  0.48306324  0.45221848  1
  O  O654  1  0.16240695  0.48207101  0.70314722  1
  O  O655  1  0.16282537  0.48203999  0.95207644  1
  O  O656  1  0.16552092  0.81525687  0.20244549  1
  O  O657  1  0.16358407  0.81432512  0.45222168  1
  O  O658  1  0.16269146  0.81480362  0.70138686  1
  O  O659  1  0.16440631  0.81391448  0.95220782  1
  O  O660  1  0.66205958  0.14820044  0.20217808  1
  O  O661  1  0.66491780  0.14913648  0.45270421  1
  O  O662  1  0.66378732  0.14838004  0.70206557  1
  O  O663  1  0.66397228  0.14926418  0.95298807  1
  O  O664  1  0.65992021  0.48043337  0.20180058  1
  O  O665  1  0.66185563  0.48218898  0.45268193  1
  O  O666  1  0.66405800  0.48156659  0.70272437  1
  O  O667  1  0.66256333  0.48112605  0.95157180  1
  O  O668  1  0.66150285  0.81640210  0.20360589  1
  O  O669  1  0.65999775  0.81374834  0.45288780  1
  O  O670  1  0.66159812  0.81513288  0.70168845  1
  O  O671  1  0.66116038  0.81485737  0.95162298  1
