# generated using pymatgen
data_Na2MnFe(PO4)2
_symmetry_space_group_name_H-M   'P 1'
_cell_length_a   21.08371913
_cell_length_b   18.93590338
_cell_length_c   20.04308922
_cell_angle_alpha   89.99998134
_cell_angle_beta   90.00099849
_cell_angle_gamma   89.99974640
_symmetry_Int_Tables_number   1
_chemical_formula_structural   Na2MnFe(PO4)2
_chemical_formula_sum   'Na96 Mn48 Fe48 P96 O384'
_cell_volume   8001.98827659
_cell_formula_units_Z   48
loop_
 _symmetry_equiv_pos_site_id
 _symmetry_equiv_pos_as_xyz
  1  'x, y, z'
loop_
 _atom_site_type_symbol
 _atom_site_label
 _atom_site_symmetry_multiplicity
 _atom_site_fract_x
 _atom_site_fract_y
 _atom_site_fract_z
 _atom_site_occupancy
  Na  Na0  1  -0.00247266  -0.00051856  0.00052312  1
  Na  Na1  1  0.00050056  0.00034758  0.25008718  1
  Na  Na2  1  0.00306199  0.00092142  0.49895065  1
  Na  Na3  1  -0.00081149  -0.00040154  0.75042589  1
  Na  Na4  1  0.00001700  0.33375919  -0.00069019  1
  Na  Na5  1  0.00100512  0.33370850  0.24990874  1
  Na  Na6  1  -0.00102218  0.33248445  0.50029424  1
  Na  Na7  1  -0.00222757  0.33244735  0.74989866  1
  Na  Na8  1  0.00061452  0.66691564  0.00137898  1
  Na  Na9  1  -0.00031817  0.66571030  0.24963696  1
  Na  Na10  1  0.00077177  0.66622732  0.49938642  1
  Na  Na11  1  0.00100182  0.66694746  0.75076356  1
  Na  Na12  1  0.50225009  0.00055494  0.00009462  1
  Na  Na13  1  0.50132945  -0.00024467  0.25052364  1
  Na  Na14  1  0.50123254  0.00034231  0.49961752  1
  Na  Na15  1  0.49916171  -0.00071678  0.75072990  1
  Na  Na16  1  0.49855853  0.33266239  0.00041246  1
  Na  Na17  1  0.49948113  0.33381511  0.25094738  1
  Na  Na18  1  0.49906183  0.33330717  0.49963284  1
  Na  Na19  1  0.49957708  0.33320522  0.74910595  1
  Na  Na20  1  0.49938077  0.66706585  -0.00009145  1
  Na  Na21  1  0.49822832  0.66721396  0.24932619  1
  Na  Na22  1  0.49811936  0.66750179  0.49943416  1
  Na  Na23  1  0.49978903  0.66763108  0.74994941  1
  Na  Na24  1  0.25006421  -0.00059754  0.12450401  1
  Na  Na25  1  0.24914363  0.00019167  0.37558443  1
  Na  Na26  1  0.24907878  -0.00035346  0.62401243  1
  Na  Na27  1  0.25166818  0.00071545  0.87500815  1
  Na  Na28  1  0.25063122  0.33323243  0.12414242  1
  Na  Na29  1  0.25309332  0.33476424  0.37508067  1
  Na  Na30  1  0.25144941  0.33273595  0.62590796  1
  Na  Na31  1  0.25292295  0.33379628  0.87514545  1
  Na  Na32  1  0.24979769  0.66686944  0.12499441  1
  Na  Na33  1  0.25072083  0.66714912  0.37597498  1
  Na  Na34  1  0.25145728  0.66769524  0.62532707  1
  Na  Na35  1  0.24934058  0.66690712  0.87368977  1
  Na  Na36  1  0.74939713  -0.00014390  0.12555099  1
  Na  Na37  1  0.74742624  -0.00091252  0.37450682  1
  Na  Na38  1  0.74943627  0.00056510  0.62558707  1
  Na  Na39  1  0.75003808  0.00007170  0.87545270  1
  Na  Na40  1  0.74838700  0.33253415  0.12419213  1
  Na  Na41  1  0.74991680  0.33317895  0.37463146  1
  Na  Na42  1  0.74902815  0.33237149  0.62401471  1
  Na  Na43  1  0.75104833  0.33434079  0.87613654  1
  Na  Na44  1  0.75216525  0.66771726  0.12672818  1
  Na  Na45  1  0.74995357  0.66643178  0.37540830  1
  Na  Na46  1  0.74949409  0.66678389  0.62438105  1
  Na  Na47  1  0.74996770  0.66677871  0.87375631  1
  Na  Na48  1  -0.00286744  0.16649838  0.00026447  1
  Na  Na49  1  -0.00287400  0.16697804  0.24896979  1
  Na  Na50  1  0.00105513  0.16523832  0.49966567  1
  Na  Na51  1  -0.00140040  0.16588758  0.75024745  1
  Na  Na52  1  0.00061952  0.50075200  -0.00063028  1
  Na  Na53  1  0.00170172  0.50054224  0.25063778  1
  Na  Na54  1  0.00013636  0.50054954  0.49969511  1
  Na  Na55  1  -0.00115386  0.50100195  0.75118045  1
  Na  Na56  1  -0.00085479  0.83391663  0.00126505  1
  Na  Na57  1  0.00076786  0.83369103  0.24980159  1
  Na  Na58  1  0.00281091  0.83261113  0.49951896  1
  Na  Na59  1  0.00147858  0.83254061  0.74976330  1
  Na  Na60  1  0.50145110  0.16587746  -0.00031903  1
  Na  Na61  1  0.50064016  0.16639404  0.25128042  1
  Na  Na62  1  0.50052839  0.16631575  0.49997547  1
  Na  Na63  1  0.49967855  0.16736515  0.74948003  1
  Na  Na64  1  0.50032547  0.49910594  0.00008023  1
  Na  Na65  1  0.49802443  0.50028735  0.25002915  1
  Na  Na66  1  0.49721780  0.50103851  0.49919138  1
  Na  Na67  1  0.49813821  0.50063952  0.74971083  1
  Na  Na68  1  0.49967771  0.83350558  0.00085178  1
  Na  Na69  1  0.50009279  0.83310050  0.24960693  1
  Na  Na70  1  0.49983848  0.83275349  0.49937730  1
  Na  Na71  1  0.49988342  0.83301895  0.75031130  1
  Na  Na72  1  0.25074230  0.16580109  0.12427427  1
  Na  Na73  1  0.24902735  0.16678454  0.37586568  1
  Na  Na74  1  0.25168402  0.16562236  0.62493788  1
  Na  Na75  1  0.25113482  0.16642655  0.87473695  1
  Na  Na76  1  0.24938362  0.50019163  0.12462229  1
  Na  Na77  1  0.25070769  0.50034412  0.37530032  1
  Na  Na78  1  0.25117571  0.50011614  0.62499497  1
  Na  Na79  1  0.24977138  0.50041405  0.87425169  1
  Na  Na80  1  0.25231291  0.83304343  0.12433360  1
  Na  Na81  1  0.25153826  0.83317671  0.37608513  1
  Na  Na82  1  0.24975343  0.83390131  0.62511523  1
  Na  Na83  1  0.25161251  0.83292977  0.87490669  1
  Na  Na84  1  0.75113148  0.16536838  0.12512644  1
  Na  Na85  1  0.74887638  0.16653924  0.37486559  1
  Na  Na86  1  0.74882570  0.16693241  0.62466845  1
  Na  Na87  1  0.75087122  0.16574773  0.87607335  1
  Na  Na88  1  0.75027381  0.50056102  0.12520879  1
  Na  Na89  1  0.75161125  0.50005770  0.37478930  1
  Na  Na90  1  0.75252274  0.49963681  0.62445903  1
  Na  Na91  1  0.75126747  0.50023387  0.87540315  1
  Na  Na92  1  0.74914067  0.83313287  0.12619833  1
  Na  Na93  1  0.74695343  0.83366584  0.37488131  1
  Na  Na94  1  0.74668846  0.83341687  0.62482352  1
  Na  Na95  1  0.74899671  0.83314562  0.87389065  1
  Mn  Mn96  1  0.85848750  0.41607122  0.25179900  1
  Mn  Mn97  1  0.35836472  0.41619313  0.75260130  1
  Mn  Mn98  1  0.14241214  0.24943934  0.74822856  1
  Mn  Mn99  1  0.39206740  0.91698005  0.62719200  1
  Mn  Mn100  1  0.89133896  0.24988173  0.62761845  1
  Mn  Mn101  1  0.39120060  0.58312667  0.12720286  1
  Mn  Mn102  1  0.14236582  0.25054739  0.49811378  1
  Mn  Mn103  1  0.60687950  0.41778123  0.37262401  1
  Mn  Mn104  1  0.89237776  0.91651200  0.37771611  1
  Mn  Mn105  1  0.89219311  0.25082908  0.12748126  1
  Mn  Mn106  1  0.85811477  0.41637573  0.50216498  1
  Mn  Mn107  1  0.10765126  0.41609835  0.87266514  1
  Mn  Mn108  1  0.35746603  0.08345083  0.50220592  1
  Mn  Mn109  1  0.85720337  0.75071877  0.50200238  1
  Mn  Mn110  1  0.60761372  0.74941721  0.12219404  1
  Mn  Mn111  1  0.10868839  0.41559718  0.37308462  1
  Mn  Mn112  1  0.64262540  0.58455816  0.99820501  1
  Mn  Mn113  1  0.39289963  0.91762502  0.12750079  1
  Mn  Mn114  1  0.14224875  0.91622654  0.99780082  1
  Mn  Mn115  1  0.10694093  0.08299947  0.87294397  1
  Mn  Mn116  1  0.60759986  0.41775765  0.62253278  1
  Mn  Mn117  1  0.64158330  0.58310032  0.49736780  1
  Mn  Mn118  1  0.10820628  0.75023993  0.12289956  1
  Mn  Mn119  1  0.60762229  0.08297191  0.62302585  1
  Mn  Mn120  1  0.14240803  0.25001537  0.99700261  1
  Mn  Mn121  1  0.85813873  0.41744491  0.00351911  1
  Mn  Mn122  1  0.64227670  0.25000582  0.24770036  1
  Mn  Mn123  1  0.14266401  0.91739495  0.74835906  1
  Mn  Mn124  1  0.39219245  0.24950057  0.37750174  1
  Mn  Mn125  1  0.39243560  0.24932708  0.12757962  1
  Mn  Mn126  1  0.85720761  0.08246671  0.50157753  1
  Mn  Mn127  1  0.35912772  0.08322834  0.00227357  1
  Mn  Mn128  1  0.64222460  0.24973794  0.99735080  1
  Mn  Mn129  1  0.64155214  0.91714555  0.74767234  1
  Mn  Mn130  1  0.89137581  0.91613140  0.87751421  1
  Mn  Mn131  1  0.10888520  0.75035523  0.37223419  1
  Mn  Mn132  1  0.39215613  0.58334773  0.87796455  1
  Mn  Mn133  1  0.85759425  0.75053410  0.25304401  1
  Mn  Mn134  1  0.89247622  0.91577670  0.62610749  1
  Mn  Mn135  1  0.10707789  0.08379503  0.12314021  1
  Mn  Mn136  1  0.89246247  0.58393616  0.87749749  1
  Mn  Mn137  1  0.85794222  0.75024496  0.75169342  1
  Mn  Mn138  1  0.60775041  0.41669436  0.87233987  1
  Mn  Mn139  1  0.14265982  0.58341844  0.74717448  1
  Mn  Mn140  1  0.10748299  0.41643894  0.62275627  1
  Mn  Mn141  1  0.64210646  0.58214186  0.74722014  1
  Mn  Mn142  1  0.14251737  0.24986838  0.24760993  1
  Mn  Mn143  1  0.64176051  0.58313158  0.24813780  1
  Fe  Fe144  1  0.89366877  0.58297149  0.37670156  1
  Fe  Fe145  1  0.89145879  0.24992948  0.87630687  1
  Fe  Fe146  1  0.14294677  0.58356925  0.99873433  1
  Fe  Fe147  1  0.60759928  0.08338458  0.87303083  1
  Fe  Fe148  1  0.39354111  0.24927134  0.87640168  1
  Fe  Fe149  1  0.35760257  0.75098207  0.75222198  1
  Fe  Fe150  1  0.35785300  0.08281525  0.25216110  1
  Fe  Fe151  1  0.85731809  0.08384910  0.75150844  1
  Fe  Fe152  1  0.10728962  0.08374073  0.37226991  1
  Fe  Fe153  1  0.85636903  0.08278303  0.25218771  1
  Fe  Fe154  1  0.10760595  0.08299422  0.62402479  1
  Fe  Fe155  1  0.89335788  0.58397216  0.62605559  1
  Fe  Fe156  1  0.64198128  0.24973966  0.49811164  1
  Fe  Fe157  1  0.35745686  0.41712762  0.50222783  1
  Fe  Fe158  1  0.39319423  0.25005138  0.62691644  1
  Fe  Fe159  1  0.35703870  0.75009976  0.50219824  1
  Fe  Fe160  1  0.10858468  0.41655182  0.12322481  1
  Fe  Fe161  1  0.14380654  0.91660713  0.24843791  1
  Fe  Fe162  1  0.39119829  0.58414638  0.37667182  1
  Fe  Fe163  1  0.35798472  0.08265701  0.75179949  1
  Fe  Fe164  1  0.64291583  0.25046068  0.74881696  1
  Fe  Fe165  1  0.14301904  0.91628852  0.49813543  1
  Fe  Fe166  1  0.89171273  0.91598028  0.12756425  1
  Fe  Fe167  1  0.39223196  0.58352363  0.62644580  1
  Fe  Fe168  1  0.60783360  0.08404977  0.12353920  1
  Fe  Fe169  1  0.85730604  0.41606992  0.75139465  1
  Fe  Fe170  1  0.64214544  0.91659577  0.24824633  1
  Fe  Fe171  1  0.60706383  0.08276905  0.37306302  1
  Fe  Fe172  1  0.64314411  0.91583757  0.99859403  1
  Fe  Fe173  1  0.10775781  0.75057491  0.87383303  1
  Fe  Fe174  1  0.39359114  0.91710231  0.87677371  1
  Fe  Fe175  1  0.35724842  0.75046008  0.25171581  1
  Fe  Fe176  1  0.35726720  0.74943984  0.00085967  1
  Fe  Fe177  1  0.14337283  0.58377325  0.24874944  1
  Fe  Fe178  1  0.64126500  0.91672390  0.49771045  1
  Fe  Fe179  1  0.60715209  0.75004847  0.87372629  1
  Fe  Fe180  1  0.85606143  0.08195824  0.00209149  1
  Fe  Fe181  1  0.39295044  0.91669829  0.37629378  1
  Fe  Fe182  1  0.35711685  0.41676945  0.25116751  1
  Fe  Fe183  1  0.10837207  0.75009908  0.62343215  1
  Fe  Fe184  1  0.60674773  0.41659313  0.12381574  1
  Fe  Fe185  1  0.60617242  0.74945892  0.62321193  1
  Fe  Fe186  1  0.89388505  0.58337760  0.12698169  1
  Fe  Fe187  1  0.14351387  0.58332031  0.49886028  1
  Fe  Fe188  1  0.85760103  0.75069075  0.00144752  1
  Fe  Fe189  1  0.60554030  0.74978425  0.37355520  1
  Fe  Fe190  1  0.35725801  0.41739668  0.00198841  1
  Fe  Fe191  1  0.89259303  0.25001778  0.37651618  1
  P  P192  1  0.05345253  0.25056396  0.10967024  1
  P  P193  1  0.05229134  0.24902691  0.35976474  1
  P  P194  1  0.05284886  0.24888223  0.61024815  1
  P  P195  1  0.05134431  0.24948485  0.85984825  1
  P  P196  1  0.05536577  0.58284631  0.11094539  1
  P  P197  1  0.05518146  0.58323421  0.36068982  1
  P  P198  1  0.05344439  0.58394267  0.60956827  1
  P  P199  1  0.05538399  0.58454984  0.86160408  1
  P  P200  1  0.05320432  0.91694805  0.11140762  1
  P  P201  1  0.05568600  0.91739111  0.36007990  1
  P  P202  1  0.05457962  0.91666531  0.60946856  1
  P  P203  1  0.05289447  0.91583631  0.86034558  1
  P  P204  1  0.55366328  0.25008800  0.11039780  1
  P  P205  1  0.55449730  0.24959740  0.36134654  1
  P  P206  1  0.55401747  0.25034945  0.61054038  1
  P  P207  1  0.55312019  0.24947741  0.85931574  1
  P  P208  1  0.55266559  0.58247396  0.10991766  1
  P  P209  1  0.55070011  0.58462752  0.35992426  1
  P  P210  1  0.55142341  0.58411908  0.60963678  1
  P  P211  1  0.55325728  0.58419613  0.85999542  1
  P  P212  1  0.55559309  0.91749967  0.11067539  1
  P  P213  1  0.55378843  0.91611476  0.36060177  1
  P  P214  1  0.55339129  0.91574040  0.60941703  1
  P  P215  1  0.55405595  0.91630017  0.86176431  1
  P  P216  1  0.44821686  0.08333250  0.14115834  1
  P  P217  1  0.44663422  0.08204640  0.38896311  1
  P  P218  1  0.44624477  0.08389288  0.64043300  1
  P  P219  1  0.44740270  0.08322402  0.88864886  1
  P  P220  1  0.44574580  0.41658030  0.13969699  1
  P  P221  1  0.44381800  0.41773066  0.38927463  1
  P  P222  1  0.44527007  0.41686788  0.63845376  1
  P  P223  1  0.44612987  0.41560055  0.89072339  1
  P  P224  1  0.44447952  0.75013674  0.13936437  1
  P  P225  1  0.44451622  0.75072557  0.38886844  1
  P  P226  1  0.44528386  0.74965876  0.63933950  1
  P  P227  1  0.44621051  0.75113315  0.88956427  1
  P  P228  1  0.94361707  0.08183541  0.13964462  1
  P  P229  1  0.94633666  0.08369263  0.38856428  1
  P  P230  1  0.94707865  0.08237375  0.64002962  1
  P  P231  1  0.94373101  0.08379946  0.88976705  1
  P  P232  1  0.94897223  0.41809672  0.14010328  1
  P  P233  1  0.94705586  0.41645052  0.38981593  1
  P  P234  1  0.94605283  0.41785628  0.64065281  1
  P  P235  1  0.94490412  0.41598798  0.88898927  1
  P  P236  1  0.94538777  0.75003523  0.13918046  1
  P  P237  1  0.94718048  0.74942459  0.38992266  1
  P  P238  1  0.94847650  0.74938366  0.63938036  1
  P  P239  1  0.94756261  0.75005883  0.89113051  1
  P  P240  1  0.19719369  0.08245406  0.23597903  1
  P  P241  1  0.19437876  0.08287003  0.48565849  1
  P  P242  1  0.19787548  0.08320273  0.73466173  1
  P  P243  1  0.19697116  0.08307215  0.98475436  1
  P  P244  1  0.19765375  0.41726869  0.23467767  1
  P  P245  1  0.19832769  0.41733776  0.48559787  1
  P  P246  1  0.19702969  0.41617561  0.73485034  1
  P  P247  1  0.19684722  0.41738621  0.98569840  1
  P  P248  1  0.19826707  0.75078969  0.23534846  1
  P  P249  1  0.19657570  0.74977207  0.48664357  1
  P  P250  1  0.19661353  0.75081467  0.73555009  1
  P  P251  1  0.19743725  0.74944767  0.98453702  1
  P  P252  1  0.69543403  0.08251827  0.23580294  1
  P  P253  1  0.69507788  0.08305714  0.48439593  1
  P  P254  1  0.69643168  0.08466621  0.73659021  1
  P  P255  1  0.69548735  0.08203510  0.98598018  1
  P  P256  1  0.69622495  0.41688306  0.23417187  1
  P  P257  1  0.69641206  0.41628839  0.48452363  1
  P  P258  1  0.69808056  0.41572807  0.73480642  1
  P  P259  1  0.69556414  0.41739633  0.98616847  1
  P  P260  1  0.69446689  0.75016654  0.23680754  1
  P  P261  1  0.69375714  0.75032321  0.48532579  1
  P  P262  1  0.69434532  0.74959198  0.73501109  1
  P  P263  1  0.69767464  0.75074638  0.98456626  1
  P  P264  1  0.30524397  0.25041873  0.01367842  1
  P  P265  1  0.30352585  0.24943199  0.26486981  1
  P  P266  1  0.30428743  0.25055460  0.51581837  1
  P  P267  1  0.30566495  0.24847851  0.76463272  1
  P  P268  1  0.30227202  0.58366341  0.01449746  1
  P  P269  1  0.30260084  0.58366850  0.26524971  1
  P  P270  1  0.30428646  0.58383635  0.51443122  1
  P  P271  1  0.30507341  0.58449956  0.76371360  1
  P  P272  1  0.30528372  0.91600878  0.01368018  1
  P  P273  1  0.30345621  0.91699852  0.26557590  1
  P  P274  1  0.30357854  0.91624511  0.51360963  1
  P  P275  1  0.30469702  0.91696089  0.76550272  1
  P  P276  1  0.80431475  0.24901720  0.01406739  1
  P  P277  1  0.80402477  0.24911549  0.26546360  1
  P  P278  1  0.80295362  0.24922666  0.51354674  1
  P  P279  1  0.80248353  0.25005592  0.76557463  1
  P  P280  1  0.80446314  0.58519377  0.01608650  1
  P  P281  1  0.80540858  0.58312695  0.26493806  1
  P  P282  1  0.80511476  0.58379125  0.51432212  1
  P  P283  1  0.80487784  0.58290175  0.76335961  1
  P  P284  1  0.80249866  0.91597254  0.01570593  1
  P  P285  1  0.80283552  0.91714721  0.26451039  1
  P  P286  1  0.80083207  0.91653867  0.51492771  1
  P  P287  1  0.80309168  0.91722032  0.76449326  1
  O  O288  1  0.05673103  0.24974288  0.18647123  1
  O  O289  1  0.05621139  0.24963023  0.43644824  1
  O  O290  1  0.05605675  0.24952970  0.68698429  1
  O  O291  1  0.05556793  0.24952894  0.93655327  1
  O  O292  1  0.06031136  0.58365604  0.18770001  1
  O  O293  1  0.06032482  0.58338970  0.43734303  1
  O  O294  1  0.05681165  0.58343442  0.68636268  1
  O  O295  1  0.05948972  0.58397260  0.93838449  1
  O  O296  1  0.05904004  0.91679082  0.18800057  1
  O  O297  1  0.06013543  0.91626227  0.43683696  1
  O  O298  1  0.05706465  0.91667445  0.68627868  1
  O  O299  1  0.05587126  0.91674211  0.93712647  1
  O  O300  1  0.55620074  0.25022851  0.18719130  1
  O  O301  1  0.55827732  0.25006325  0.43814031  1
  O  O302  1  0.55892195  0.25051013  0.68721327  1
  O  O303  1  0.55679581  0.24989445  0.93606869  1
  O  O304  1  0.55566477  0.58340159  0.18667268  1
  O  O305  1  0.55471675  0.58394350  0.43657262  1
  O  O306  1  0.55550951  0.58315437  0.68631103  1
  O  O307  1  0.55653265  0.58363659  0.93673833  1
  O  O308  1  0.55912371  0.91646780  0.18750423  1
  O  O309  1  0.55760028  0.91639266  0.43735242  1
  O  O310  1  0.55618206  0.91663843  0.68626013  1
  O  O311  1  0.55851966  0.91620940  0.93843011  1
  O  O312  1  0.44444320  0.08307725  0.06440605  1
  O  O313  1  0.44183340  0.08257939  0.31231341  1
  O  O314  1  0.44333393  0.08301970  0.56363322  1
  O  O315  1  0.44276595  0.08301614  0.81204742  1
  O  O316  1  0.44090439  0.41698913  0.06301289  1
  O  O317  1  0.43979891  0.41698203  0.31243943  1
  O  O318  1  0.44158428  0.41682185  0.56165885  1
  O  O319  1  0.44332663  0.41675311  0.81387391  1
  O  O320  1  0.44016714  0.74976395  0.06261929  1
  O  O321  1  0.44033078  0.75063173  0.31209581  1
  O  O322  1  0.44059319  0.75050627  0.56256633  1
  O  O323  1  0.44181115  0.75053507  0.81283765  1
  O  O324  1  0.93944680  0.08198934  0.06284550  1
  O  O325  1  0.94100696  0.08274584  0.31194048  1
  O  O326  1  0.94332385  0.08246908  0.56329141  1
  O  O327  1  0.93988414  0.08299633  0.81292486  1
  O  O328  1  0.94492016  0.41763499  0.06338683  1
  O  O329  1  0.94444554  0.41654176  0.31307890  1
  O  O330  1  0.94349370  0.41672973  0.56382178  1
  O  O331  1  0.94070767  0.41634744  0.81224556  1
  O  O332  1  0.94152929  0.75065167  0.06245745  1
  O  O333  1  0.94386583  0.75035290  0.31317598  1
  O  O334  1  0.94422892  0.75022813  0.56274925  1
  O  O335  1  0.94356079  0.75005271  0.81440415  1
  O  O336  1  0.19300555  0.08301895  0.06151743  1
  O  O337  1  0.19214280  0.08367771  0.31265237  1
  O  O338  1  0.19050756  0.08351583  0.56242842  1
  O  O339  1  0.19349615  0.08331923  0.81134052  1
  O  O340  1  0.19225097  0.41640696  0.06241538  1
  O  O341  1  0.19426090  0.41649493  0.31142845  1
  O  O342  1  0.19438110  0.41650286  0.56223852  1
  O  O343  1  0.19360688  0.41612026  0.81164796  1
  O  O344  1  0.19390631  0.75043688  0.06123085  1
  O  O345  1  0.19506034  0.75073734  0.31212678  1
  O  O346  1  0.19218860  0.74991835  0.56330391  1
  O  O347  1  0.19169809  0.75066166  0.81219513  1
  O  O348  1  0.69130989  0.08339178  0.06269393  1
  O  O349  1  0.69054010  0.08305399  0.31248404  1
  O  O350  1  0.69261999  0.08326244  0.56127695  1
  O  O351  1  0.69162199  0.08356702  0.81327095  1
  O  O352  1  0.69058841  0.41707862  0.06284867  1
  O  O353  1  0.69273681  0.41726624  0.31095947  1
  O  O354  1  0.69329877  0.41718887  0.56132524  1
  O  O355  1  0.69444383  0.41706327  0.81152618  1
  O  O356  1  0.69398206  0.74973654  0.06131951  1
  O  O357  1  0.68969935  0.74918179  0.31348544  1
  O  O358  1  0.68961489  0.74918486  0.56211237  1
  O  O359  1  0.69009822  0.74962784  0.81178518  1
  O  O360  1  0.30606338  0.24897538  0.18806230  1
  O  O361  1  0.30706413  0.24954169  0.43898632  1
  O  O362  1  0.30961289  0.24925049  0.68786799  1
  O  O363  1  0.30971654  0.24933569  0.93695028  1
  O  O364  1  0.30563561  0.58358327  0.18853946  1
  O  O365  1  0.30815794  0.58410279  0.43765646  1
  O  O366  1  0.30893417  0.58395004  0.68694566  1
  O  O367  1  0.30563648  0.58359195  0.93777005  1
  O  O368  1  0.30686737  0.91745541  0.18883717  1
  O  O369  1  0.30849383  0.91703015  0.43702422  1
  O  O370  1  0.30691889  0.91696903  0.68867783  1
  O  O371  1  0.30969391  0.91716573  0.93696756  1
  O  O372  1  0.80692889  0.25018679  0.18862794  1
  O  O373  1  0.80833038  0.24941758  0.43694804  1
  O  O374  1  0.80539874  0.24970910  0.68872241  1
  O  O375  1  0.80797683  0.25015877  0.93734002  1
  O  O376  1  0.81003888  0.58313221  0.18820544  1
  O  O377  1  0.80982924  0.58378396  0.43757840  1
  O  O378  1  0.80915010  0.58414498  0.68662947  1
  O  O379  1  0.80714734  0.58417686  0.93923230  1
  O  O380  1  0.80760043  0.91626313  0.18784789  1
  O  O381  1  0.80530009  0.91618384  0.43825478  1
  O  O382  1  0.80625080  0.91640003  0.68775369  1
  O  O383  1  0.80565538  0.91583282  0.93895015  1
  O  O384  1  0.23524073  0.24970057  0.03787767  1
  O  O385  1  0.23404201  0.25028503  0.29076313  1
  O  O386  1  0.23459237  0.24943800  0.54091454  1
  O  O387  1  0.23569836  0.24981335  0.78912889  1
  O  O388  1  0.23245838  0.58378196  0.03970242  1
  O  O389  1  0.23254538  0.58387065  0.29023090  1
  O  O390  1  0.23406943  0.58384562  0.53880100  1
  O  O391  1  0.23512155  0.58379025  0.78801702  1
  O  O392  1  0.23529877  0.91610699  0.03798959  1
  O  O393  1  0.23346535  0.91678418  0.29041825  1
  O  O394  1  0.23327801  0.91637557  0.53744055  1
  O  O395  1  0.23512754  0.91697102  0.79105465  1
  O  O396  1  0.73438644  0.24884313  0.03865307  1
  O  O397  1  0.73422969  0.24981549  0.29019878  1
  O  O398  1  0.73252745  0.24931613  0.53700327  1
  O  O399  1  0.73271322  0.25006541  0.79112205  1
  O  O400  1  0.73479935  0.58438498  0.04134630  1
  O  O401  1  0.73517257  0.58321940  0.28863949  1
  O  O402  1  0.73484103  0.58346629  0.53783966  1
  O  O403  1  0.73489298  0.58324188  0.78779264  1
  O  O404  1  0.73250263  0.91622546  0.04057849  1
  O  O405  1  0.73241257  0.91661426  0.28799025  1
  O  O406  1  0.73070888  0.91694452  0.53904920  1
  O  O407  1  0.73337578  0.91694935  0.78963750  1
  O  O408  1  0.26754531  0.08226606  0.21216834  1
  O  O409  1  0.26460087  0.08373748  0.46177569  1
  O  O410  1  0.26806598  0.08232505  0.71060301  1
  O  O411  1  0.26692145  0.08338181  0.96054790  1
  O  O412  1  0.26779817  0.41669110  0.21012535  1
  O  O413  1  0.26836715  0.41748272  0.46107918  1
  O  O414  1  0.26686471  0.41631442  0.71033038  1
  O  O415  1  0.26710278  0.41728874  0.96164897  1
  O  O416  1  0.26823539  0.75041210  0.21043534  1
  O  O417  1  0.26690117  0.74985529  0.46268052  1
  O  O418  1  0.26706175  0.75123637  0.71215473  1
  O  O419  1  0.26751396  0.74981681  0.95989030  1
  O  O420  1  0.76583090  0.08293956  0.21234114  1
  O  O421  1  0.76468615  0.08269211  0.45890903  1
  O  O422  1  0.76663966  0.08420141  0.71245383  1
  O  O423  1  0.76587665  0.08228137  0.96231708  1
  O  O424  1  0.76607277  0.41631011  0.20949478  1
  O  O425  1  0.76611489  0.41659200  0.45949038  1
  O  O426  1  0.76794514  0.41582842  0.70978407  1
  O  O427  1  0.76580277  0.41776150  0.96278995  1
  O  O428  1  0.76464083  0.75034296  0.21319796  1
  O  O429  1  0.76384617  0.75003298  0.46117424  1
  O  O430  1  0.76449467  0.75002535  0.71109947  1
  O  O431  1  0.76767692  0.75044130  0.95984320  1
  O  O432  1  0.01379192  0.08316620  0.16350308  1
  O  O433  1  0.01676503  0.08313619  0.41188811  1
  O  O434  1  0.01721567  0.08256230  0.66453585  1
  O  O435  1  0.01373645  0.08288091  0.91417592  1
  O  O436  1  0.01896478  0.41745723  0.16473811  1
  O  O437  1  0.01662369  0.41638434  0.41553996  1
  O  O438  1  0.01560810  0.41702626  0.66629094  1
  O  O439  1  0.01494201  0.41691969  0.91320488  1
  O  O440  1  0.01535594  0.74980593  0.16378393  1
  O  O441  1  0.01704570  0.74965463  0.41451879  1
  O  O442  1  0.01860581  0.74975749  0.66381259  1
  O  O443  1  0.01759915  0.75033970  0.91566622  1
  O  O444  1  0.51833029  0.08341569  0.16534359  1
  O  O445  1  0.51695284  0.08252349  0.41270886  1
  O  O446  1  0.51600452  0.08304213  0.66549705  1
  O  O447  1  0.51770684  0.08320144  0.91276900  1
  O  O448  1  0.51601724  0.41676599  0.16354642  1
  O  O449  1  0.51388448  0.41711085  0.41340355  1
  O  O450  1  0.51507286  0.41698813  0.66343923  1
  O  O451  1  0.51586859  0.41591090  0.91566412  1
  O  O452  1  0.51465577  0.75023476  0.16295690  1
  O  O453  1  0.51484928  0.75059204  0.41274271  1
  O  O454  1  0.51567392  0.75025208  0.66293110  1
  O  O455  1  0.51650605  0.75043703  0.91362746  1
  O  O456  1  0.48417532  0.24935716  0.08468574  1
  O  O457  1  0.48451089  0.24997205  0.33695841  1
  O  O458  1  0.48360283  0.24999223  0.58696924  1
  O  O459  1  0.48300721  0.25008892  0.83500998  1
  O  O460  1  0.48301552  0.58294836  0.08466344  1
  O  O461  1  0.48057044  0.58442439  0.33553181  1
  O  O462  1  0.48136401  0.58402493  0.58519832  1
  O  O463  1  0.48349298  0.58396711  0.83506914  1
  O  O464  1  0.48558292  0.91694513  0.08642350  1
  O  O465  1  0.48353937  0.91608211  0.33630984  1
  O  O466  1  0.48369358  0.91658104  0.58431787  1
  O  O467  1  0.48386795  0.91643071  0.83739606  1
  O  O468  1  0.98365278  0.25039494  0.08486558  1
  O  O469  1  0.98232138  0.24982914  0.33501393  1
  O  O470  1  0.98310705  0.24905601  0.58510986  1
  O  O471  1  0.98127197  0.24923841  0.83556142  1
  O  O472  1  0.98494966  0.58375250  0.08745635  1
  O  O473  1  0.98471708  0.58315910  0.33740292  1
  O  O474  1  0.98342453  0.58353462  0.58489775  1
  O  O475  1  0.98536441  0.58407306  0.83747084  1
  O  O476  1  0.98268162  0.91657809  0.08837021  1
  O  O477  1  0.98547925  0.91682504  0.33643166  1
  O  O478  1  0.98500622  0.91661198  0.58359092  1
  O  O479  1  0.98332110  0.91586363  0.83497056  1
  O  O480  1  0.08742786  0.31586611  0.07765381  1
  O  O481  1  0.08662441  0.31399866  0.32725468  1
  O  O482  1  0.08685351  0.31401449  0.57747817  1
  O  O483  1  0.08508454  0.31455669  0.82707527  1
  O  O484  1  0.08911692  0.64767623  0.07744467  1
  O  O485  1  0.08837747  0.64824527  0.32691559  1
  O  O486  1  0.08752847  0.64899298  0.57712531  1
  O  O487  1  0.08861041  0.64999241  0.82887005  1
  O  O488  1  0.08607146  0.98199627  0.07765188  1
  O  O489  1  0.08904106  0.98265514  0.32722815  1
  O  O490  1  0.08895423  0.98176166  0.57734615  1
  O  O491  1  0.08698480  0.98080977  0.82759616  1
  O  O492  1  0.58744925  0.31536665  0.07800199  1
  O  O493  1  0.58810205  0.31454697  0.32822507  1
  O  O494  1  0.58731652  0.31525454  0.57692644  1
  O  O495  1  0.58723255  0.31435651  0.82636069  1
  O  O496  1  0.58684077  0.64751071  0.07722309  1
  O  O497  1  0.58440433  0.64970199  0.32729026  1
  O  O498  1  0.58503609  0.64929199  0.57711985  1
  O  O499  1  0.58712664  0.64939483  0.82781191  1
  O  O500  1  0.58903834  0.98287214  0.07830689  1
  O  O501  1  0.58757073  0.98107756  0.32745818  1
  O  O502  1  0.58810889  0.98051688  0.57697323  1
  O  O503  1  0.58746429  0.98139958  0.82842894  1
  O  O504  1  0.41435167  0.01834547  0.17403210  1
  O  O505  1  0.41356514  0.01686091  0.42219880  1
  O  O506  1  0.41167535  0.01917841  0.67313108  1
  O  O507  1  0.41416683  0.01825542  0.92229284  1
  O  O508  1  0.41242798  0.35151352  0.17298290  1
  O  O509  1  0.40989198  0.35298117  0.42264292  1
  O  O510  1  0.41178220  0.35157604  0.67124701  1
  O  O511  1  0.41205827  0.35035525  0.92254351  1
  O  O512  1  0.41078652  0.68530378  0.17271634  1
  O  O513  1  0.41090145  0.68579534  0.42214834  1
  O  O514  1  0.41214017  0.68449100  0.67239875  1
  O  O515  1  0.41233451  0.68627617  0.92297908  1
  O  O516  1  0.91066417  0.01654237  0.17299365  1
  O  O517  1  0.91309888  0.01878852  0.42251263  1
  O  O518  1  0.91313199  0.01739871  0.67271177  1
  O  O519  1  0.90953299  0.01898537  0.92298832  1
  O  O520  1  0.91476059  0.35308616  0.17267698  1
  O  O521  1  0.91273692  0.35127862  0.42197770  1
  O  O522  1  0.91103542  0.35306653  0.67295499  1
  O  O523  1  0.91178540  0.35065211  0.92191794  1
  O  O524  1  0.91183044  0.68468497  0.17173690  1
  O  O525  1  0.91330931  0.68419874  0.42199019  1
  O  O526  1  0.91490682  0.68421587  0.67212608  1
  O  O527  1  0.91367658  0.68513986  0.92404672  1
  O  O528  1  0.16373805  0.01722601  0.20312560  1
  O  O529  1  0.16137691  0.01750351  0.45268937  1
  O  O530  1  0.16358810  0.01840936  0.70184165  1
  O  O531  1  0.16335223  0.01784052  0.95211438  1
  O  O532  1  0.16343094  0.35254033  0.20159784  1
  O  O533  1  0.16486535  0.35217149  0.45239566  1
  O  O534  1  0.16315752  0.35109905  0.70237273  1
  O  O535  1  0.16347753  0.35242735  0.95203489  1
  O  O536  1  0.16409144  0.68579707  0.20305620  1
  O  O537  1  0.16348508  0.68459003  0.45337341  1
  O  O538  1  0.16348919  0.68578750  0.70183006  1
  O  O539  1  0.16364082  0.68423849  0.95221811  1
  O  O540  1  0.66216275  0.01742248  0.20269305  1
  O  O541  1  0.66047988  0.01801153  0.45230027  1
  O  O542  1  0.66272513  0.01988993  0.70300536  1
  O  O543  1  0.66232159  0.01666175  0.95320242  1
  O  O544  1  0.66178139  0.35195431  0.20179520  1
  O  O545  1  0.66236100  0.35108657  0.45258695  1
  O  O546  1  0.66410173  0.35037724  0.70295648  1
  O  O547  1  0.66262732  0.35213937  0.95265117  1
  O  O548  1  0.66141462  0.68520625  0.20291569  1
  O  O549  1  0.65984397  0.68560946  0.45170466  1
  O  O550  1  0.66085263  0.68459948  0.70163227  1
  O  O551  1  0.66336959  0.68605292  0.95145792  1
  O  O552  1  0.33828612  0.31597946  0.04632169  1
  O  O553  1  0.33824143  0.31453280  0.29645143  1
  O  O554  1  0.33798654  0.31602088  0.54777870  1
  O  O555  1  0.34028261  0.31295872  0.79778973  1
  O  O556  1  0.33629893  0.64873922  0.04689658  1
  O  O557  1  0.33661676  0.64871643  0.29791804  1
  O  O558  1  0.33797898  0.64884371  0.54751746  1
  O  O559  1  0.33818858  0.64994962  0.79646628  1
  O  O560  1  0.33885510  0.98088358  0.04735495  1
  O  O561  1  0.33757273  0.98181338  0.29864888  1
  O  O562  1  0.33678768  0.98120565  0.54725083  1
  O  O563  1  0.33929554  0.98191106  0.79777850  1
  O  O564  1  0.83781237  0.31403748  0.04750903  1
  O  O565  1  0.83866008  0.31382255  0.29813047  1
  O  O566  1  0.83624183  0.31417393  0.54712023  1
  O  O567  1  0.83680906  0.31518078  0.79773140  1
  O  O568  1  0.83825623  0.65067812  0.04788943  1
  O  O569  1  0.83901799  0.64800960  0.29835363  1
  O  O570  1  0.83839621  0.64887967  0.54778875  1
  O  O571  1  0.83858125  0.64781791  0.79683241  1
  O  O572  1  0.83653380  0.98103596  0.04828092  1
  O  O573  1  0.83576327  0.98245074  0.29767584  1
  O  O574  1  0.83485069  0.98149974  0.54748024  1
  O  O575  1  0.83689979  0.98241777  0.79674921  1
  O  O576  1  0.41412682  0.14816821  0.17390933  1
  O  O577  1  0.41317986  0.14697302  0.42242508  1
  O  O578  1  0.41256131  0.14921765  0.67257068  1
  O  O579  1  0.41430436  0.14850092  0.92188423  1
  O  O580  1  0.41188304  0.48139779  0.17300607  1
  O  O581  1  0.41048990  0.48317243  0.42182109  1
  O  O582  1  0.41146823  0.48196806  0.67114158  1
  O  O583  1  0.41169441  0.48048112  0.92352694  1
  O  O584  1  0.41106122  0.81515550  0.17266496  1
  O  O585  1  0.41134267  0.81590664  0.42221344  1
  O  O586  1  0.41175831  0.81453101  0.67293625  1
  O  O587  1  0.41292953  0.81623722  0.92264896  1
  O  O588  1  0.90938440  0.14663112  0.17255663  1
  O  O589  1  0.91340169  0.14901205  0.42175563  1
  O  O590  1  0.91285383  0.14731513  0.67281508  1
  O  O591  1  0.91028531  0.14907658  0.92231775  1
  O  O592  1  0.91533258  0.48317853  0.17276422  1
  O  O593  1  0.91294506  0.48169186  0.42196701  1
  O  O594  1  0.91220428  0.48333211  0.67237919  1
  O  O595  1  0.91115986  0.48097323  0.92213469  1
  O  O596  1  0.91170568  0.81503815  0.17247490  1
  O  O597  1  0.91319965  0.81442713  0.42283710  1
  O  O598  1  0.91460155  0.81433651  0.67248436  1
  O  O599  1  0.91320866  0.81491285  0.92389554  1
  O  O600  1  0.08726771  0.18544014  0.07700918  1
  O  O601  1  0.08579972  0.18385961  0.32684586  1
  O  O602  1  0.08692225  0.18375250  0.57817063  1
  O  O603  1  0.08526937  0.18447081  0.82713151  1
  O  O604  1  0.08835585  0.51762608  0.07766216  1
  O  O605  1  0.08864056  0.51827320  0.32736403  1
  O  O606  1  0.08762025  0.51899001  0.57674925  1
  O  O607  1  0.08907884  0.51970265  0.82824046  1
  O  O608  1  0.08654159  0.85192841  0.07791341  1
  O  O609  1  0.08959358  0.85260985  0.32655020  1
  O  O610  1  0.08908327  0.85158307  0.57724713  1
  O  O611  1  0.08726360  0.85066812  0.82848187  1
  O  O612  1  0.58821707  0.18498394  0.07838606  1
  O  O613  1  0.58784599  0.18427882  0.32863499  1
  O  O614  1  0.58750531  0.18521298  0.57739237  1
  O  O615  1  0.58684759  0.18434736  0.82669013  1
  O  O616  1  0.58671405  0.51730697  0.07792865  1
  O  O617  1  0.58457647  0.51961295  0.32703265  1
  O  O618  1  0.58517979  0.51919131  0.57644192  1
  O  O619  1  0.58712930  0.51904897  0.82714922  1
  O  O620  1  0.58958482  0.85276406  0.07722193  1
  O  O621  1  0.58730237  0.85098952  0.32759862  1
  O  O622  1  0.58709912  0.85044317  0.57725284  1
  O  O623  1  0.58726566  0.85116302  0.82851324  1
  O  O624  1  0.33917835  0.18569767  0.04719146  1
  O  O625  1  0.33740537  0.18419980  0.29742071  1
  O  O626  1  0.33928506  0.18595291  0.54826669  1
  O  O627  1  0.33871704  0.18285610  0.79735172  1
  O  O628  1  0.33618106  0.51859482  0.04716769  1
  O  O629  1  0.33650178  0.51853920  0.29772149  1
  O  O630  1  0.33795618  0.51879725  0.54738056  1
  O  O631  1  0.33896353  0.51963676  0.79681543  1
  O  O632  1  0.33874667  0.85068243  0.04611394  1
  O  O633  1  0.33747530  0.85180257  0.29793362  1
  O  O634  1  0.33681914  0.85112199  0.54680761  1
  O  O635  1  0.33917161  0.85187722  0.79762889  1
  O  O636  1  0.83791632  0.18370118  0.04630696  1
  O  O637  1  0.83768273  0.18370136  0.29762395  1
  O  O638  1  0.83591136  0.18410601  0.54711702  1
  O  O639  1  0.83687758  0.18510974  0.79795928  1
  O  O640  1  0.83943179  0.52064199  0.04890167  1
  O  O641  1  0.83899796  0.51804018  0.29799945  1
  O  O642  1  0.83898111  0.51895929  0.54745260  1
  O  O643  1  0.83818703  0.51750309  0.79599253  1
  O  O644  1  0.83653153  0.85096064  0.04843450  1
  O  O645  1  0.83632608  0.85244022  0.29830215  1
  O  O646  1  0.83439074  0.85146677  0.54804047  1
  O  O647  1  0.83711379  0.85216481  0.79722299  1
  O  O648  1  0.16395359  0.14744221  0.20226940  1
  O  O649  1  0.16039835  0.14761876  0.45222062  1
  O  O650  1  0.16443679  0.14833810  0.70161719  1
  O  O651  1  0.16298984  0.14797506  0.95191695  1
  O  O652  1  0.16408748  0.48262556  0.20236782  1
  O  O653  1  0.16449518  0.48239897  0.45311653  1
  O  O654  1  0.16320069  0.48129337  0.70233786  1
  O  O655  1  0.16346926  0.48267427  0.95307441  1
  O  O656  1  0.16464387  0.81597039  0.20262615  1
  O  O657  1  0.16326656  0.81473931  0.45315976  1
  O  O658  1  0.16300360  0.81568625  0.70225479  1
  O  O659  1  0.16333007  0.81427393  0.95143821  1
  O  O660  1  0.66212575  0.14748047  0.20209729  1
  O  O661  1  0.66081669  0.14809704  0.45206251  1
  O  O662  1  0.66325526  0.14996033  0.70371958  1
  O  O663  1  0.66187327  0.14669444  0.95202342  1
  O  O664  1  0.66219152  0.48189872  0.20154850  1
  O  O665  1  0.66225156  0.48134140  0.45184474  1
  O  O666  1  0.66404140  0.48052759  0.70148561  1
  O  O667  1  0.66222745  0.48237552  0.95276853  1
  O  O668  1  0.66107401  0.81534620  0.20387820  1
  O  O669  1  0.66015300  0.81567948  0.45282995  1
  O  O670  1  0.66028356  0.81448250  0.70211736  1
  O  O671  1  0.66368250  0.81600593  0.95230010  1
