# generated using pymatgen
data_Na2MnFe(PO4)2
_symmetry_space_group_name_H-M   'P 1'
_cell_length_a   21.08018534
_cell_length_b   18.93146694
_cell_length_c   20.03954710
_cell_angle_alpha   89.99972610
_cell_angle_beta   89.99779352
_cell_angle_gamma   89.99595356
_symmetry_Int_Tables_number   1
_chemical_formula_structural   Na2MnFe(PO4)2
_chemical_formula_sum   'Na96 Mn48 Fe48 P96 O384'
_cell_volume   7997.35902319
_cell_formula_units_Z   48
loop_
 _symmetry_equiv_pos_site_id
 _symmetry_equiv_pos_as_xyz
  1  'x, y, z'
loop_
 _atom_site_type_symbol
 _atom_site_label
 _atom_site_symmetry_multiplicity
 _atom_site_fract_x
 _atom_site_fract_y
 _atom_site_fract_z
 _atom_site_occupancy
  Na  Na0  1  -0.00057756  0.00031370  0.00034590  1
  Na  Na1  1  -0.00049370  -0.00028449  0.25045027  1
  Na  Na2  1  -0.00025316  0.00049159  0.49954058  1
  Na  Na3  1  -0.00264244  -0.00067398  0.75006031  1
  Na  Na4  1  -0.00237931  0.33354611  0.00078827  1
  Na  Na5  1  -0.00193456  0.33309283  0.24897754  1
  Na  Na6  1  -0.00016067  0.33394461  0.49953364  1
  Na  Na7  1  -0.00173910  0.33349823  0.75064219  1
  Na  Na8  1  0.00173726  0.66737830  -0.00029309  1
  Na  Na9  1  0.00122935  0.66643458  0.25103089  1
  Na  Na10  1  0.00324808  0.66752369  0.50028825  1
  Na  Na11  1  0.00188442  0.66661079  0.74872341  1
  Na  Na12  1  0.50100638  0.00064116  -0.00069288  1
  Na  Na13  1  0.50068808  0.00016661  0.25108602  1
  Na  Na14  1  0.50212049  0.00048432  0.49938653  1
  Na  Na15  1  0.50096342  0.00005689  0.75015880  1
  Na  Na16  1  0.49968973  0.33374467  -0.00016112  1
  Na  Na17  1  0.49766808  0.33253770  0.25082653  1
  Na  Na18  1  0.50069682  0.33403111  0.49999639  1
  Na  Na19  1  0.49976323  0.33324906  0.74867892  1
  Na  Na20  1  0.50003529  0.66624308  0.00019273  1
  Na  Na21  1  0.49901143  0.66649606  0.25052320  1
  Na  Na22  1  0.49720857  0.66602661  0.50027955  1
  Na  Na23  1  0.49909084  0.66649817  0.74986465  1
  Na  Na24  1  0.24652256  -0.00031560  0.12543321  1
  Na  Na25  1  0.24709429  -0.00059428  0.37461415  1
  Na  Na26  1  0.25048394  0.00077702  0.62564465  1
  Na  Na27  1  0.24993039  0.00099156  0.87547493  1
  Na  Na28  1  0.25137606  0.33281946  0.12435112  1
  Na  Na29  1  0.25182079  0.33389645  0.37530797  1
  Na  Na30  1  0.25204141  0.33387975  0.62455785  1
  Na  Na31  1  0.25251557  0.33397851  0.87514767  1
  Na  Na32  1  0.25025120  0.66689699  0.12458869  1
  Na  Na33  1  0.24950124  0.66660004  0.37441378  1
  Na  Na34  1  0.25050253  0.66687985  0.62605022  1
  Na  Na35  1  0.25116092  0.66700983  0.87509228  1
  Na  Na36  1  0.75175098  0.00007368  0.12411960  1
  Na  Na37  1  0.75085684  -0.00060331  0.37524763  1
  Na  Na38  1  0.75199708  0.00016298  0.62429999  1
  Na  Na39  1  0.75158305  -0.00023110  0.87553346  1
  Na  Na40  1  0.75160705  0.33445329  0.12536089  1
  Na  Na41  1  0.75031304  0.33391684  0.37574868  1
  Na  Na42  1  0.74777324  0.33298160  0.62446154  1
  Na  Na43  1  0.75156715  0.33462181  0.87470753  1
  Na  Na44  1  0.74866886  0.66595295  0.12498087  1
  Na  Na45  1  0.74987879  0.66658165  0.37452109  1
  Na  Na46  1  0.75030886  0.66735318  0.62557135  1
  Na  Na47  1  0.74673914  0.66486758  0.87468977  1
  Na  Na48  1  0.00074529  0.16664465  0.00019280  1
  Na  Na49  1  0.00198545  0.16620659  0.24960989  1
  Na  Na50  1  0.00132240  0.16681650  0.49951677  1
  Na  Na51  1  -0.00134725  0.16743471  0.74962832  1
  Na  Na52  1  -0.00291400  0.50058426  -0.00063584  1
  Na  Na53  1  -0.00193426  0.50041297  0.25084339  1
  Na  Na54  1  0.00134183  0.49919381  0.49918840  1
  Na  Na55  1  0.00026637  0.49931820  0.75056641  1
  Na  Na56  1  -0.00088647  0.83396994  0.00080493  1
  Na  Na57  1  0.00011116  0.83287046  0.25041102  1
  Na  Na58  1  -0.00107513  0.83377433  0.50034756  1
  Na  Na59  1  0.00044307  0.83236501  0.74965780  1
  Na  Na60  1  0.49858125  0.16698384  -0.00044943  1
  Na  Na61  1  0.49880073  0.16736529  0.25116890  1
  Na  Na62  1  0.50091807  0.16619501  0.50023616  1
  Na  Na63  1  0.49977887  0.16657112  0.75017347  1
  Na  Na64  1  0.50016176  0.50061255  -0.00018012  1
  Na  Na65  1  0.49941223  0.50014523  0.25012087  1
  Na  Na66  1  0.49997904  0.49974639  0.49977881  1
  Na  Na67  1  0.50083165  0.49976150  0.74994449  1
  Na  Na68  1  0.50121381  0.83228713  -0.00009599  1
  Na  Na69  1  0.49859131  0.83376109  0.25116136  1
  Na  Na70  1  0.49949536  0.83298083  0.49966059  1
  Na  Na71  1  0.49975256  0.83312798  0.74866314  1
  Na  Na72  1  0.24837284  0.16699066  0.12493505  1
  Na  Na73  1  0.24906070  0.16710148  0.37414137  1
  Na  Na74  1  0.25064514  0.16697728  0.62492939  1
  Na  Na75  1  0.25126789  0.16637489  0.87594265  1
  Na  Na76  1  0.25259658  0.49920728  0.12410743  1
  Na  Na77  1  0.25104982  0.49998113  0.37451044  1
  Na  Na78  1  0.25146000  0.49958568  0.62530143  1
  Na  Na79  1  0.25229087  0.50010055  0.87459640  1
  Na  Na80  1  0.24868831  0.83251854  0.12502755  1
  Na  Na81  1  0.24879911  0.83239144  0.37550145  1
  Na  Na82  1  0.25089544  0.83191625  0.62587910  1
  Na  Na83  1  0.24895197  0.83312550  0.87563300  1
  Na  Na84  1  0.75028464  0.16706438  0.12399937  1
  Na  Na85  1  0.75129060  0.16572979  0.37561110  1
  Na  Na86  1  0.74934793  0.16726160  0.62417508  1
  Na  Na87  1  0.75145155  0.16578077  0.87558550  1
  Na  Na88  1  0.75035391  0.49948397  0.12610995  1
  Na  Na89  1  0.74770027  0.50044231  0.37542849  1
  Na  Na90  1  0.74889991  0.49958792  0.62484011  1
  Na  Na91  1  0.74872329  0.50000929  0.87475416  1
  Na  Na92  1  0.75117172  0.83347775  0.12477023  1
  Na  Na93  1  0.75252301  0.83346182  0.37405420  1
  Na  Na94  1  0.75022103  0.83392286  0.62564414  1
  Na  Na95  1  0.75097341  0.83298510  0.87438599  1
  Mn  Mn96  1  0.60840295  0.08383037  0.37201047  1
  Mn  Mn97  1  0.64240239  0.24970033  0.24782827  1
  Mn  Mn98  1  0.64315571  0.91675120  0.24759562  1
  Mn  Mn99  1  0.14078443  0.91659091  0.99751050  1
  Mn  Mn100  1  0.14247178  0.25095442  0.49752086  1
  Mn  Mn101  1  0.10726001  0.41720396  0.12292444  1
  Mn  Mn102  1  0.39172625  0.91697166  0.12796748  1
  Mn  Mn103  1  0.10835284  0.41620354  0.37211506  1
  Mn  Mn104  1  0.39306712  0.24960783  0.62716716  1
  Mn  Mn105  1  0.60769858  0.74959924  0.37309162  1
  Mn  Mn106  1  0.39109446  0.91735661  0.37743604  1
  Mn  Mn107  1  0.85800476  0.08318014  0.50213998  1
  Mn  Mn108  1  0.60748521  0.75071727  0.12319410  1
  Mn  Mn109  1  0.14270649  0.25072647  0.74861496  1
  Mn  Mn110  1  0.85790682  0.74837004  0.00186092  1
  Mn  Mn111  1  0.35796121  0.75067416  0.00215144  1
  Mn  Mn112  1  0.35658773  0.08266288  0.25193046  1
  Mn  Mn113  1  0.14338268  0.58251994  0.74819689  1
  Mn  Mn114  1  0.89214605  0.25013017  0.12811756  1
  Mn  Mn115  1  0.64276895  0.91590437  0.99796926  1
  Mn  Mn116  1  0.39244407  0.91683816  0.62703414  1
  Mn  Mn117  1  0.64191476  0.25065786  0.99776216  1
  Mn  Mn118  1  0.64153493  0.58451077  0.49788549  1
  Mn  Mn119  1  0.85842047  0.08381383  0.00254946  1
  Mn  Mn120  1  0.64250111  0.24986941  0.74828264  1
  Mn  Mn121  1  0.14219058  0.58246966  0.99810579  1
  Mn  Mn122  1  0.35754868  0.08273298  0.50217029  1
  Mn  Mn123  1  0.39180311  0.58301919  0.37726926  1
  Mn  Mn124  1  0.85801422  0.74927079  0.75257089  1
  Mn  Mn125  1  0.85699907  0.41735071  0.50236211  1
  Mn  Mn126  1  0.10765362  0.08361692  0.62339111  1
  Mn  Mn127  1  0.89301087  0.58323177  0.62685614  1
  Mn  Mn128  1  0.85854145  0.74970852  0.25242665  1
  Mn  Mn129  1  0.14223214  0.25086581  0.99736964  1
  Mn  Mn130  1  0.14203566  0.91720260  0.74783839  1
  Mn  Mn131  1  0.39224388  0.91639112  0.87750345  1
  Mn  Mn132  1  0.35920622  0.41661427  0.00218180  1
  Mn  Mn133  1  0.60738415  0.41587963  0.12323770  1
  Mn  Mn134  1  0.89238181  0.58368486  0.37796445  1
  Mn  Mn135  1  0.10726648  0.41651471  0.87262873  1
  Mn  Mn136  1  0.89140832  0.58372113  0.87706887  1
  Mn  Mn137  1  0.60801723  0.08338581  0.87222792  1
  Mn  Mn138  1  0.14148445  0.91612107  0.49814509  1
  Mn  Mn139  1  0.64309334  0.91675241  0.74757179  1
  Mn  Mn140  1  0.89170750  0.25048986  0.62695476  1
  Mn  Mn141  1  0.35753619  0.08260985  0.00297855  1
  Mn  Mn142  1  0.60733611  0.75022258  0.62200185  1
  Mn  Mn143  1  0.14240131  0.58236063  0.24685450  1
  Fe  Fe144  1  0.64268459  0.58337384  0.24817880  1
  Fe  Fe145  1  0.89364372  0.91691672  0.37676065  1
  Fe  Fe146  1  0.85668805  0.41641771  0.25248805  1
  Fe  Fe147  1  0.64231196  0.24941251  0.49757681  1
  Fe  Fe148  1  0.10647510  0.08322438  0.12353150  1
  Fe  Fe149  1  0.35771537  0.41741322  0.50215632  1
  Fe  Fe150  1  0.35721468  0.75033269  0.75241933  1
  Fe  Fe151  1  0.60630648  0.41655220  0.37320754  1
  Fe  Fe152  1  0.35632981  0.74972793  0.50164901  1
  Fe  Fe153  1  0.39231716  0.24971476  0.37682924  1
  Fe  Fe154  1  0.89272358  0.91620484  0.62663015  1
  Fe  Fe155  1  0.14290905  0.25050203  0.24833962  1
  Fe  Fe156  1  0.85677043  0.41664787  0.75118652  1
  Fe  Fe157  1  0.60676650  0.41632616  0.62322385  1
  Fe  Fe158  1  0.10837139  0.41680067  0.62375063  1
  Fe  Fe159  1  0.89306199  0.24965589  0.37613964  1
  Fe  Fe160  1  0.35857036  0.41660738  0.75189373  1
  Fe  Fe161  1  0.60765803  0.08352836  0.12408991  1
  Fe  Fe162  1  0.60748225  0.41690890  0.87300642  1
  Fe  Fe163  1  0.39245303  0.24966806  0.12716949  1
  Fe  Fe164  1  0.14131144  0.91662212  0.24840909  1
  Fe  Fe165  1  0.10655125  0.08346660  0.87292710  1
  Fe  Fe166  1  0.14373325  0.58265609  0.49914593  1
  Fe  Fe167  1  0.35760301  0.41665762  0.25175741  1
  Fe  Fe168  1  0.10743940  0.75038456  0.37343763  1
  Fe  Fe169  1  0.39423468  0.58321351  0.87653767  1
  Fe  Fe170  1  0.39305324  0.58332617  0.12686652  1
  Fe  Fe171  1  0.85641161  0.41744712  0.00140660  1
  Fe  Fe172  1  0.64191620  0.58324147  0.74784391  1
  Fe  Fe173  1  0.89169754  0.58414461  0.12669180  1
  Fe  Fe174  1  0.60732410  0.74972917  0.87310876  1
  Fe  Fe175  1  0.89334189  0.91622805  0.12700981  1
  Fe  Fe176  1  0.64386455  0.91638330  0.49830581  1
  Fe  Fe177  1  0.60843757  0.08326940  0.62380768  1
  Fe  Fe178  1  0.10793137  0.74946079  0.62304172  1
  Fe  Fe179  1  0.85826244  0.74957679  0.50159332  1
  Fe  Fe180  1  0.89220092  0.24969313  0.87652816  1
  Fe  Fe181  1  0.39223614  0.58326626  0.62692802  1
  Fe  Fe182  1  0.10733679  0.75020400  0.87331718  1
  Fe  Fe183  1  0.85768972  0.08418921  0.75168953  1
  Fe  Fe184  1  0.89330493  0.91661591  0.87650160  1
  Fe  Fe185  1  0.10691628  0.74964548  0.12368352  1
  Fe  Fe186  1  0.35613426  0.75024241  0.25158127  1
  Fe  Fe187  1  0.64198634  0.58314258  0.99870828  1
  Fe  Fe188  1  0.85830358  0.08431650  0.25160439  1
  Fe  Fe189  1  0.35830947  0.08333161  0.75190167  1
  Fe  Fe190  1  0.10694823  0.08350392  0.37314938  1
  Fe  Fe191  1  0.39302318  0.25031408  0.87636032  1
  P  P192  1  0.05444632  0.25006309  0.11116618  1
  P  P193  1  0.05310293  0.24998329  0.35906143  1
  P  P194  1  0.05344651  0.25139576  0.61019525  1
  P  P195  1  0.05175382  0.24964619  0.86017916  1
  P  P196  1  0.05155378  0.58336930  0.11001684  1
  P  P197  1  0.05526103  0.58370597  0.36147671  1
  P  P198  1  0.05501428  0.58238999  0.60964719  1
  P  P199  1  0.05319107  0.58376327  0.85983031  1
  P  P200  1  0.05333270  0.91654037  0.11173053  1
  P  P201  1  0.05297826  0.91653876  0.36005894  1
  P  P202  1  0.05207469  0.91628639  0.61033580  1
  P  P203  1  0.05217454  0.91698355  0.86000967  1
  P  P204  1  0.55192105  0.24920938  0.11038404  1
  P  P205  1  0.55319363  0.25094134  0.36116038  1
  P  P206  1  0.55470489  0.24968204  0.60964018  1
  P  P207  1  0.55225781  0.25095384  0.85988893  1
  P  P208  1  0.55391023  0.58325356  0.11090418  1
  P  P209  1  0.55373564  0.58266944  0.35953847  1
  P  P210  1  0.55269231  0.58284436  0.61106107  1
  P  P211  1  0.55468873  0.58336846  0.86060703  1
  P  P212  1  0.55317506  0.91767213  0.11018119  1
  P  P213  1  0.55456160  0.91625153  0.36107364  1
  P  P214  1  0.55445797  0.91740169  0.60903527  1
  P  P215  1  0.55372100  0.91555606  0.85965309  1
  P  P216  1  0.44786013  0.08381814  0.14053716  1
  P  P217  1  0.44633207  0.08400179  0.39004630  1
  P  P218  1  0.44804662  0.08298072  0.64033164  1
  P  P219  1  0.44541030  0.08388996  0.88898642  1
  P  P220  1  0.44612384  0.41665215  0.14072598  1
  P  P221  1  0.44530300  0.41601335  0.38956755  1
  P  P222  1  0.44596722  0.41745212  0.63907692  1
  P  P223  1  0.44720328  0.41696994  0.88829394  1
  P  P224  1  0.44579868  0.74945624  0.14099134  1
  P  P225  1  0.44415301  0.75007613  0.38970938  1
  P  P226  1  0.44421854  0.74928039  0.63919319  1
  P  P227  1  0.44693200  0.74916363  0.88876385  1
  P  P228  1  0.94723255  0.08299569  0.14063171  1
  P  P229  1  0.94673413  0.08402252  0.38838529  1
  P  P230  1  0.94584033  0.08299752  0.64019839  1
  P  P231  1  0.94623707  0.08363174  0.88876536  1
  P  P232  1  0.94399511  0.41835573  0.13956944  1
  P  P233  1  0.94531200  0.41563242  0.38885296  1
  P  P234  1  0.94744020  0.41720284  0.64039832  1
  P  P235  1  0.94397584  0.41597473  0.88937743  1
  P  P236  1  0.94774541  0.74928778  0.13996785  1
  P  P237  1  0.94765003  0.75048516  0.39072365  1
  P  P238  1  0.94704594  0.74996556  0.63863188  1
  P  P239  1  0.94798910  0.75033402  0.88980515  1
  P  P240  1  0.19370644  0.08364423  0.23575235  1
  P  P241  1  0.19561161  0.08359328  0.48426648  1
  P  P242  1  0.19709671  0.08410939  0.73644912  1
  P  P243  1  0.19405362  0.08360354  0.98540683  1
  P  P244  1  0.19845220  0.41567322  0.23450005  1
  P  P245  1  0.19740698  0.41772564  0.48605952  1
  P  P246  1  0.19846599  0.41643515  0.73472271  1
  P  P247  1  0.19739315  0.41685387  0.98447947  1
  P  P248  1  0.19517096  0.75041676  0.23554768  1
  P  P249  1  0.19567352  0.74857883  0.48600783  1
  P  P250  1  0.19593019  0.74987696  0.73601958  1
  P  P251  1  0.19446062  0.74944999  0.98544401  1
  P  P252  1  0.69849704  0.08339738  0.23410676  1
  P  P253  1  0.69555439  0.08272364  0.48610821  1
  P  P254  1  0.69819676  0.08329366  0.73434471  1
  P  P255  1  0.69569483  0.08328836  0.98601805  1
  P  P256  1  0.69622831  0.41687216  0.23663666  1
  P  P257  1  0.69368526  0.41614597  0.48556920  1
  P  P258  1  0.69537440  0.41718474  0.73547257  1
  P  P259  1  0.69646260  0.41740474  0.98476853  1
  P  P260  1  0.69705806  0.74955709  0.23498193  1
  P  P261  1  0.69846818  0.75128344  0.48483506  1
  P  P262  1  0.69535911  0.74926095  0.73590108  1
  P  P263  1  0.69601485  0.74908500  0.98430923  1
  P  P264  1  0.30547877  0.24976808  0.01473505  1
  P  P265  1  0.30409553  0.25028254  0.26427595  1
  P  P266  1  0.30488048  0.25051752  0.51377064  1
  P  P267  1  0.30486614  0.25013927  0.76555585  1
  P  P268  1  0.30579071  0.58363083  0.01434064  1
  P  P269  1  0.30461409  0.58343427  0.26334382  1
  P  P270  1  0.30326733  0.58346329  0.51553925  1
  P  P271  1  0.30620255  0.58339391  0.76449020  1
  P  P272  1  0.30227431  0.91665383  0.01575614  1
  P  P273  1  0.30081019  0.91593616  0.26498506  1
  P  P274  1  0.30230765  0.91582871  0.51539398  1
  P  P275  1  0.30340966  0.91657111  0.76535717  1
  P  P276  1  0.80444453  0.25115166  0.01393304  1
  P  P277  1  0.80390237  0.24980096  0.26582984  1
  P  P278  1  0.80297951  0.25014166  0.51361198  1
  P  P279  1  0.80380752  0.25013819  0.76519498  1
  P  P280  1  0.80191752  0.58247459  0.01546589  1
  P  P281  1  0.80334372  0.58269653  0.26436180  1
  P  P282  1  0.80290155  0.58418773  0.51531788  1
  P  P283  1  0.80179297  0.58230230  0.76455552  1
  P  P284  1  0.80612069  0.91598819  0.01443429  1
  P  P285  1  0.80638776  0.91788463  0.26425667  1
  P  P286  1  0.80522143  0.91561982  0.51420577  1
  P  P287  1  0.80586260  0.91741796  0.76436760  1
  O  O288  1  0.05879105  0.25119177  0.18787724  1
  O  O289  1  0.05676779  0.25114734  0.43581970  1
  O  O290  1  0.05650995  0.25103862  0.68695110  1
  O  O291  1  0.05553367  0.25063869  0.93689261  1
  O  O292  1  0.05559562  0.58222591  0.18677139  1
  O  O293  1  0.05983502  0.58262113  0.43813997  1
  O  O294  1  0.05774575  0.58221185  0.68645032  1
  O  O295  1  0.05614828  0.58280783  0.93658305  1
  O  O296  1  0.05756090  0.91636434  0.18844147  1
  O  O297  1  0.05609327  0.91655428  0.43679186  1
  O  O298  1  0.05568106  0.91670145  0.68704301  1
  O  O299  1  0.05507532  0.91710836  0.93677860  1
  O  O300  1  0.55574624  0.24987467  0.18710475  1
  O  O301  1  0.55807565  0.25000360  0.43780717  1
  O  O302  1  0.55732144  0.24963268  0.68646095  1
  O  O303  1  0.55574508  0.25055767  0.93662004  1
  O  O304  1  0.55889695  0.58321599  0.18758657  1
  O  O305  1  0.55637712  0.58389966  0.43638778  1
  O  O306  1  0.55744605  0.58354960  0.68774808  1
  O  O307  1  0.55862338  0.58324315  0.93739838  1
  O  O308  1  0.55634088  0.91689854  0.18698769  1
  O  O309  1  0.55949319  0.91583380  0.43775174  1
  O  O310  1  0.55749491  0.91660102  0.68585150  1
  O  O311  1  0.55689080  0.91608676  0.93643586  1
  O  O312  1  0.44425644  0.08294531  0.06380792  1
  O  O313  1  0.44239184  0.08317538  0.31332109  1
  O  O314  1  0.44387437  0.08283829  0.56364702  1
  O  O315  1  0.44141450  0.08290379  0.81219233  1
  O  O316  1  0.44423480  0.41688506  0.06382071  1
  O  O317  1  0.44072200  0.41669978  0.31285010  1
  O  O318  1  0.44145713  0.41729939  0.56234091  1
  O  O319  1  0.44306999  0.41675794  0.81159193  1
  O  O320  1  0.44339178  0.75025201  0.06413430  1
  O  O321  1  0.43960484  0.75040474  0.31297276  1
  O  O322  1  0.43983539  0.74993106  0.56240291  1
  O  O323  1  0.44217663  0.75028721  0.81209758  1
  O  O324  1  0.94387944  0.08398965  0.06387464  1
  O  O325  1  0.94263730  0.08420854  0.31172774  1
  O  O326  1  0.94333902  0.08397927  0.56332907  1
  O  O327  1  0.94190315  0.08403906  0.81207430  1
  O  O328  1  0.93994244  0.41771520  0.06277166  1
  O  O329  1  0.94068489  0.41650917  0.31210198  1
  O  O330  1  0.94326527  0.41727406  0.56365048  1
  O  O331  1  0.93987684  0.41702404  0.81259147  1
  O  O332  1  0.94430162  0.74906819  0.06329078  1
  O  O333  1  0.94394210  0.74922362  0.31400111  1
  O  O334  1  0.94225997  0.74926404  0.56200105  1
  O  O335  1  0.94432775  0.74905443  0.81306157  1
  O  O336  1  0.18936075  0.08341705  0.06221912  1
  O  O337  1  0.18996058  0.08350909  0.31258766  1
  O  O338  1  0.19290231  0.08379837  0.56114237  1
  O  O339  1  0.19135510  0.08392688  0.81308550  1
  O  O340  1  0.19342972  0.41675671  0.06119829  1
  O  O341  1  0.19468757  0.41640752  0.31124633  1
  O  O342  1  0.19272908  0.41665355  0.56268886  1
  O  O343  1  0.19385096  0.41657276  0.81137739  1
  O  O344  1  0.18975882  0.74939314  0.06224813  1
  O  O345  1  0.19068860  0.74998564  0.31232815  1
  O  O346  1  0.19130338  0.74985056  0.56279613  1
  O  O347  1  0.19079194  0.75003977  0.81273441  1
  O  O348  1  0.69108654  0.08356764  0.06275186  1
  O  O349  1  0.69443391  0.08323832  0.31088800  1
  O  O350  1  0.69190917  0.08309001  0.56286134  1
  O  O351  1  0.69428814  0.08298242  0.81111841  1
  O  O352  1  0.69296973  0.41641856  0.06153194  1
  O  O353  1  0.69113774  0.41629091  0.31325081  1
  O  O354  1  0.68967365  0.41677161  0.56243007  1
  O  O355  1  0.69086516  0.41653979  0.81222059  1
  O  O356  1  0.69316738  0.75030211  0.06111378  1
  O  O357  1  0.69385379  0.75029211  0.31172681  1
  O  O358  1  0.69432664  0.75066174  0.56155516  1
  O  O359  1  0.69111235  0.74973872  0.81262104  1
  O  O360  1  0.30862427  0.24930211  0.18750712  1
  O  O361  1  0.30862934  0.24982040  0.43697045  1
  O  O362  1  0.30757846  0.24990083  0.68869670  1
  O  O363  1  0.31008509  0.25011745  0.93799620  1
  O  O364  1  0.30856690  0.58339706  0.18660799  1
  O  O365  1  0.30614831  0.58322004  0.43874264  1
  O  O366  1  0.30927831  0.58316946  0.68764456  1
  O  O367  1  0.31032913  0.58362407  0.93756500  1
  O  O368  1  0.30476301  0.91674437  0.18830495  1
  O  O369  1  0.30489756  0.91654729  0.43859351  1
  O  O370  1  0.30632276  0.91668012  0.68858115  1
  O  O371  1  0.30628128  0.91681109  0.93900779  1
  O  O372  1  0.80648409  0.24979034  0.18895298  1
  O  O373  1  0.80842934  0.24993742  0.43704003  1
  O  O374  1  0.80595399  0.25029070  0.68832972  1
  O  O375  1  0.80840813  0.24982040  0.93719108  1
  O  O376  1  0.80787857  0.58371897  0.18767726  1
  O  O377  1  0.80614729  0.58346185  0.43852490  1
  O  O378  1  0.80617792  0.58308336  0.68793197  1
  O  O379  1  0.80561753  0.58355746  0.93874917  1
  O  O380  1  0.81052024  0.91672273  0.18738953  1
  O  O381  1  0.81014282  0.91643775  0.43743824  1
  O  O382  1  0.80963532  0.91630530  0.68751308  1
  O  O383  1  0.81042732  0.91611317  0.93760469  1
  O  O384  1  0.23526633  0.24991869  0.03825025  1
  O  O385  1  0.23369232  0.25009160  0.28804540  1
  O  O386  1  0.23500543  0.25042237  0.53842509  1
  O  O387  1  0.23523399  0.25040026  0.79113070  1
  O  O388  1  0.23565879  0.58312715  0.03825280  1
  O  O389  1  0.23470589  0.58341202  0.28798180  1
  O  O390  1  0.23343065  0.58337015  0.54080106  1
  O  O391  1  0.23625362  0.58348267  0.78923653  1
  O  O392  1  0.23238371  0.91624959  0.04005378  1
  O  O393  1  0.23068667  0.91618319  0.28942651  1
  O  O394  1  0.23282039  0.91612319  0.54118576  1
  O  O395  1  0.23378101  0.91666509  0.79088158  1
  O  O396  1  0.73454334  0.25111304  0.03859842  1
  O  O397  1  0.73427143  0.24981295  0.29123112  1
  O  O398  1  0.73258627  0.25003554  0.53705398  1
  O  O399  1  0.73427694  0.25001950  0.79105434  1
  O  O400  1  0.73182006  0.58275890  0.03994843  1
  O  O401  1  0.73304025  0.58319116  0.28834604  1
  O  O402  1  0.73318627  0.58374729  0.54035077  1
  O  O403  1  0.73164764  0.58244438  0.78877031  1
  O  O404  1  0.73597157  0.91631245  0.03822565  1
  O  O405  1  0.73629864  0.91680925  0.28827439  1
  O  O406  1  0.73488765  0.91678992  0.53791655  1
  O  O407  1  0.73584256  0.91657687  0.78870174  1
  O  O408  1  0.26372587  0.08351639  0.21121449  1
  O  O409  1  0.26524015  0.08336416  0.45894957  1
  O  O410  1  0.26755415  0.08401350  0.71309346  1
  O  O411  1  0.26435213  0.08355085  0.96220314  1
  O  O412  1  0.26848716  0.41603428  0.20995310  1
  O  O413  1  0.26771445  0.41744347  0.46210068  1
  O  O414  1  0.26883283  0.41669460  0.71114703  1
  O  O415  1  0.26735097  0.41702792  0.96019312  1
  O  O416  1  0.26555313  0.74975677  0.21179901  1
  O  O417  1  0.26597367  0.74913755  0.46206254  1
  O  O418  1  0.26648648  0.74943377  0.71305196  1
  O  O419  1  0.26469090  0.74985282  0.96192553  1
  O  O420  1  0.76861799  0.08381942  0.20987257  1
  O  O421  1  0.76555411  0.08250430  0.46153368  1
  O  O422  1  0.76826265  0.08385638  0.70998113  1
  O  O423  1  0.76588265  0.08286408  0.96234468  1
  O  O424  1  0.76660053  0.41648243  0.21300134  1
  O  O425  1  0.76386382  0.41726729  0.46173295  1
  O  O426  1  0.76576369  0.41645750  0.71161334  1
  O  O427  1  0.76652355  0.41730139  0.96023756  1
  O  O428  1  0.76679799  0.74963277  0.20989908  1
  O  O429  1  0.76844475  0.75030493  0.46009355  1
  O  O430  1  0.76547595  0.75001458  0.71186558  1
  O  O431  1  0.76572030  0.74891193  0.95901800  1
  O  O432  1  0.01731512  0.08299487  0.16506524  1
  O  O433  1  0.01696255  0.08373080  0.41276125  1
  O  O434  1  0.01547798  0.08344297  0.66561677  1
  O  O435  1  0.01634715  0.08358591  0.91332122  1
  O  O436  1  0.01407331  0.41705327  0.16383485  1
  O  O437  1  0.01549533  0.41625288  0.41251994  1
  O  O438  1  0.01758706  0.41681482  0.66467378  1
  O  O439  1  0.01405580  0.41683969  0.91362457  1
  O  O440  1  0.01767199  0.74937585  0.16511917  1
  O  O441  1  0.01787600  0.75065101  0.41488011  1
  O  O442  1  0.01748671  0.74936652  0.66225535  1
  O  O443  1  0.01791756  0.75071367  0.91464198  1
  O  O444  1  0.51773046  0.08372793  0.16577741  1
  O  O445  1  0.51626461  0.08369193  0.41429814  1
  O  O446  1  0.51829462  0.08337817  0.66445679  1
  O  O447  1  0.51544217  0.08367979  0.91315862  1
  O  O448  1  0.51566377  0.41631807  0.16647683  1
  O  O449  1  0.51565616  0.41691197  0.41324508  1
  O  O450  1  0.51642881  0.41635157  0.66261150  1
  O  O451  1  0.51731095  0.41738297  0.91292102  1
  O  O452  1  0.51543829  0.75023762  0.16641555  1
  O  O453  1  0.51433209  0.74937265  0.41353762  1
  O  O454  1  0.51446686  0.75012887  0.66277320  1
  O  O455  1  0.51714186  0.74896807  0.91283940  1
  O  O456  1  0.48192386  0.25017330  0.08569563  1
  O  O457  1  0.48283679  0.25038705  0.33755237  1
  O  O458  1  0.48493344  0.24998317  0.58452328  1
  O  O459  1  0.48240931  0.25034556  0.83481162  1
  O  O460  1  0.48348853  0.58323096  0.08744422  1
  O  O461  1  0.48392835  0.58309958  0.33476865  1
  O  O462  1  0.48242130  0.58298637  0.58705149  1
  O  O463  1  0.48441445  0.58320300  0.83642731  1
  O  O464  1  0.48359501  0.91668298  0.08465980  1
  O  O465  1  0.48432682  0.91690140  0.33748200  1
  O  O466  1  0.48464228  0.91662930  0.58414630  1
  O  O467  1  0.48405096  0.91632355  0.83447003  1
  O  O468  1  0.98431003  0.25031816  0.08718101  1
  O  O469  1  0.98303476  0.24989992  0.33456554  1
  O  O470  1  0.98378789  0.25074876  0.58482130  1
  O  O471  1  0.98172769  0.24995171  0.83561811  1
  O  O472  1  0.98159621  0.58385027  0.08528719  1
  O  O473  1  0.98509968  0.58342753  0.33761200  1
  O  O474  1  0.98538407  0.58298203  0.58415909  1
  O  O475  1  0.98354326  0.58324151  0.83441940  1
  O  O476  1  0.98309466  0.91696624  0.08743320  1
  O  O477  1  0.98285071  0.91638980  0.33544077  1
  O  O478  1  0.98213959  0.91684489  0.58539701  1
  O  O479  1  0.98229802  0.91639561  0.83484180  1
  O  O480  1  0.08785683  0.31494740  0.07748463  1
  O  O481  1  0.08711407  0.31479670  0.32570572  1
  O  O482  1  0.08734817  0.31669691  0.57778775  1
  O  O483  1  0.08568132  0.31461459  0.82718305  1
  O  O484  1  0.08600738  0.64840005  0.07808568  1
  O  O485  1  0.08839885  0.64922723  0.32886637  1
  O  O486  1  0.08973484  0.64737650  0.57763066  1
  O  O487  1  0.08712873  0.64911949  0.82786692  1
  O  O488  1  0.08675175  0.98162244  0.07860213  1
  O  O489  1  0.08676842  0.98156545  0.32727341  1
  O  O490  1  0.08608905  0.98129822  0.57774531  1
  O  O491  1  0.08573923  0.98231352  0.82737745  1
  O  O492  1  0.58608293  0.31419352  0.07758194  1
  O  O493  1  0.58601315  0.31631570  0.32795053  1
  O  O494  1  0.58886924  0.31479000  0.57734520  1
  O  O495  1  0.58593556  0.31612862  0.82738319  1
  O  O496  1  0.58725378  0.64821756  0.07739143  1
  O  O497  1  0.58826289  0.64735623  0.32674039  1
  O  O498  1  0.58593614  0.64789047  0.57738190  1
  O  O499  1  0.58809804  0.64839120  0.82723278  1
  O  O500  1  0.58701773  0.98305876  0.07814738  1
  O  O501  1  0.58835917  0.98120127  0.32792209  1
  O  O502  1  0.58838400  0.98276320  0.57711115  1
  O  O503  1  0.58823372  0.98052400  0.82721551  1
  O  O504  1  0.41367826  0.01887526  0.17342450  1
  O  O505  1  0.41243329  0.01899230  0.42300256  1
  O  O506  1  0.41428905  0.01800868  0.67336306  1
  O  O507  1  0.41178329  0.01901170  0.92254627  1
  O  O508  1  0.41150224  0.35161701  0.17266443  1
  O  O509  1  0.41215889  0.35087362  0.42272493  1
  O  O510  1  0.41224104  0.35253620  0.67231897  1
  O  O511  1  0.41376801  0.35186239  0.92143709  1
  O  O512  1  0.41191496  0.68397580  0.17285154  1
  O  O513  1  0.41033614  0.68504457  0.42272895  1
  O  O514  1  0.41121258  0.68397388  0.67230997  1
  O  O515  1  0.41351414  0.68393759  0.92159708  1
  O  O516  1  0.91320605  0.01803189  0.17295417  1
  O  O517  1  0.91326189  0.01883219  0.42135245  1
  O  O518  1  0.91167961  0.01773683  0.67196786  1
  O  O519  1  0.91288893  0.01828908  0.92162174  1
  O  O520  1  0.90960228  0.35365297  0.17274081  1
  O  O521  1  0.91225572  0.35017496  0.42168726  1
  O  O522  1  0.91296403  0.35239054  0.67298992  1
  O  O523  1  0.91076496  0.35056959  0.92211218  1
  O  O524  1  0.91378643  0.68430378  0.17281754  1
  O  O525  1  0.91391338  0.68564547  0.42416946  1
  O  O526  1  0.91362743  0.68510422  0.67241812  1
  O  O527  1  0.91430872  0.68518926  0.92286085  1
  O  O528  1  0.15988940  0.01851028  0.20295565  1
  O  O529  1  0.16101566  0.01854598  0.45223782  1
  O  O530  1  0.16386746  0.01906643  0.70286710  1
  O  O531  1  0.16049226  0.01864535  0.95200806  1
  O  O532  1  0.16462964  0.35055503  0.20211410  1
  O  O533  1  0.16393313  0.35294040  0.45214469  1
  O  O534  1  0.16492252  0.35142678  0.70154346  1
  O  O535  1  0.16376620  0.35175376  0.95157638  1
  O  O536  1  0.16158295  0.68553361  0.20196342  1
  O  O537  1  0.16265763  0.68322318  0.45316690  1
  O  O538  1  0.16258716  0.68491160  0.70253705  1
  O  O539  1  0.16126301  0.68440224  0.95204179  1
  O  O540  1  0.66471488  0.01836454  0.20125528  1
  O  O541  1  0.66212953  0.01747253  0.45326084  1
  O  O542  1  0.66449848  0.01831259  0.70126466  1
  O  O543  1  0.66224929  0.01828957  0.95278460  1
  O  O544  1  0.66314579  0.35183191  0.20281656  1
  O  O545  1  0.66070125  0.35074657  0.45252692  1
  O  O546  1  0.66164995  0.35227770  0.70218370  1
  O  O547  1  0.66251215  0.35259839  0.95143322  1
  O  O548  1  0.66284010  0.68440811  0.20294725  1
  O  O549  1  0.66399032  0.68637098  0.45226805  1
  O  O550  1  0.66213570  0.68394604  0.70285720  1
  O  O551  1  0.66156299  0.68379759  0.95269962  1
  O  O552  1  0.33923438  0.31471484  0.04790531  1
  O  O553  1  0.33760935  0.31547266  0.29716257  1
  O  O554  1  0.33866117  0.31572780  0.54626483  1
  O  O555  1  0.33932953  0.31539566  0.79754988  1
  O  O556  1  0.33908567  0.64866627  0.04769459  1
  O  O557  1  0.33805008  0.64856146  0.29645126  1
  O  O558  1  0.33731213  0.64855846  0.54798357  1
  O  O559  1  0.34005138  0.64852973  0.79721428  1
  O  O560  1  0.33573493  0.98180544  0.04875459  1
  O  O561  1  0.33459560  0.98100227  0.29798280  1
  O  O562  1  0.33673460  0.98083036  0.54774873  1
  O  O563  1  0.33762251  0.98167395  0.79758804  1
  O  O564  1  0.83803135  0.31649561  0.04628167  1
  O  O565  1  0.83834410  0.31479268  0.29805641  1
  O  O566  1  0.83590651  0.31527093  0.54725921  1
  O  O567  1  0.83817452  0.31524597  0.79721209  1
  O  O568  1  0.83604605  0.64733196  0.04864450  1
  O  O569  1  0.83706903  0.64756788  0.29782583  1
  O  O570  1  0.83689934  0.64942592  0.54742518  1
  O  O571  1  0.83541008  0.64732519  0.79793286  1
  O  O572  1  0.83999500  0.98085035  0.04761916  1
  O  O573  1  0.83931291  0.98345401  0.29701437  1
  O  O574  1  0.83925198  0.98033687  0.54759843  1
  O  O575  1  0.83899420  0.98300854  0.79685123  1
  O  O576  1  0.41372043  0.14898982  0.17266798  1
  O  O577  1  0.41271712  0.14928194  0.42247702  1
  O  O578  1  0.41396010  0.14793993  0.67306995  1
  O  O579  1  0.41198167  0.14925003  0.92145934  1
  O  O580  1  0.41185920  0.48183157  0.17284142  1
  O  O581  1  0.41158667  0.48094593  0.42306951  1
  O  O582  1  0.41302741  0.48249792  0.67264500  1
  O  O583  1  0.41357103  0.48203817  0.92134922  1
  O  O584  1  0.41082929  0.81406121  0.17362820  1
  O  O585  1  0.41066743  0.81500720  0.42312503  1
  O  O586  1  0.41031061  0.81404472  0.67270001  1
  O  O587  1  0.41358593  0.81404427  0.92261244  1
  O  O588  1  0.91341249  0.14800079  0.17369332  1
  O  O589  1  0.91339171  0.14909687  0.42176161  1
  O  O590  1  0.91122862  0.14784190  0.67270458  1
  O  O591  1  0.91263596  0.14859207  0.92216961  1
  O  O592  1  0.91094766  0.48380058  0.17246291  1
  O  O593  1  0.91165007  0.48047446  0.42238309  1
  O  O594  1  0.91369323  0.48226407  0.67337024  1
  O  O595  1  0.90972703  0.48070345  0.92270028  1
  O  O596  1  0.91397699  0.81449990  0.17246666  1
  O  O597  1  0.91363148  0.81566672  0.42283348  1
  O  O598  1  0.91396746  0.81519720  0.67170714  1
  O  O599  1  0.91380521  0.81529408  0.92196073  1
  O  O600  1  0.08757651  0.18451722  0.07867567  1
  O  O601  1  0.08728959  0.18486067  0.32700474  1
  O  O602  1  0.08784788  0.18639685  0.57786698  1
  O  O603  1  0.08552447  0.18448009  0.82764503  1
  O  O604  1  0.08511790  0.51828615  0.07679339  1
  O  O605  1  0.08873704  0.51893287  0.32751638  1
  O  O606  1  0.08904321  0.51714457  0.57719018  1
  O  O607  1  0.08772719  0.51891835  0.82721705  1
  O  O608  1  0.08632947  0.85125486  0.07854061  1
  O  O609  1  0.08700621  0.85146912  0.32744648  1
  O  O610  1  0.08580347  0.85104138  0.57785966  1
  O  O611  1  0.08656031  0.85204375  0.82775134  1
  O  O612  1  0.58555025  0.18403613  0.07779388  1
  O  O613  1  0.58683333  0.18621566  0.32742647  1
  O  O614  1  0.58883289  0.18454308  0.57727722  1
  O  O615  1  0.58655896  0.18599539  0.82732189  1
  O  O616  1  0.58719436  0.51819738  0.07738371  1
  O  O617  1  0.58759348  0.51725341  0.32754962  1
  O  O618  1  0.58609906  0.51774102  0.57822119  1
  O  O619  1  0.58825484  0.51833151  0.82735295  1
  O  O620  1  0.58787195  0.85279537  0.07773572  1
  O  O621  1  0.58754134  0.85109290  0.32753231  1
  O  O622  1  0.58902827  0.85263148  0.57620729  1
  O  O623  1  0.58737932  0.85024355  0.82729653  1
  O  O624  1  0.33873916  0.18473650  0.04826037  1
  O  O625  1  0.33757778  0.18538892  0.29792685  1
  O  O626  1  0.33848948  0.18552755  0.54702411  1
  O  O627  1  0.33913702  0.18516630  0.79800414  1
  O  O628  1  0.33986907  0.51879296  0.04740195  1
  O  O629  1  0.33818307  0.51820834  0.29634790  1
  O  O630  1  0.33771451  0.51855459  0.54810227  1
  O  O631  1  0.34011133  0.51827745  0.79720589  1
  O  O632  1  0.33634400  0.85162546  0.04816812  1
  O  O633  1  0.33463160  0.85085992  0.29751794  1
  O  O634  1  0.33652447  0.85062461  0.54723944  1
  O  O635  1  0.33732758  0.85113703  0.79764376  1
  O  O636  1  0.83819842  0.18629101  0.04741366  1
  O  O637  1  0.83830631  0.18463642  0.29798572  1
  O  O638  1  0.83630918  0.18514995  0.54704778  1
  O  O639  1  0.83830268  0.18505877  0.79737984  1
  O  O640  1  0.83579647  0.51737045  0.04787530  1
  O  O641  1  0.83644382  0.51746602  0.29750165  1
  O  O642  1  0.83706491  0.51918710  0.54791077  1
  O  O643  1  0.83536993  0.51715404  0.79720670  1
  O  O644  1  0.83949320  0.85081273  0.04755050  1
  O  O645  1  0.84068518  0.85326556  0.29763437  1
  O  O646  1  0.83805629  0.85023554  0.54747401  1
  O  O647  1  0.84008375  0.85271759  0.79766148  1
  O  O648  1  0.16021824  0.14888663  0.20288077  1
  O  O649  1  0.16125732  0.14852366  0.45176752  1
  O  O650  1  0.16403953  0.14919929  0.70293714  1
  O  O651  1  0.16068860  0.14861263  0.95198810  1
  O  O652  1  0.16454003  0.48067552  0.20151592  1
  O  O653  1  0.16429710  0.48301464  0.45300687  1
  O  O654  1  0.16469260  0.48136471  0.70157615  1
  O  O655  1  0.16355295  0.48186138  0.95176151  1
  O  O656  1  0.16184020  0.81559195  0.20248783  1
  O  O657  1  0.16180553  0.81330839  0.45237539  1
  O  O658  1  0.16282789  0.81488772  0.70230477  1
  O  O659  1  0.16071934  0.81441626  0.95221758  1
  O  O660  1  0.66422836  0.14838896  0.20154815  1
  O  O661  1  0.66213001  0.14791560  0.45288429  1
  O  O662  1  0.66380124  0.14821023  0.70191539  1
  O  O663  1  0.66265546  0.14853595  0.95263654  1
  O  O664  1  0.66312066  0.48202331  0.20334034  1
  O  O665  1  0.65948545  0.48087518  0.45245768  1
  O  O666  1  0.66192244  0.48229114  0.70233430  1
  O  O667  1  0.66247302  0.48257993  0.95246923  1
  O  O668  1  0.66324205  0.81465939  0.20216831  1
  O  O669  1  0.66509495  0.81653238  0.45208206  1
  O  O670  1  0.66170667  0.81413842  0.70258001  1
  O  O671  1  0.66185275  0.81393515  0.95129604  1
