# generated using pymatgen
data_Na2MnFe(PO4)2
_symmetry_space_group_name_H-M   'P 1'
_cell_length_a   21.08022270
_cell_length_b   18.93211403
_cell_length_c   20.03971863
_cell_angle_alpha   90.00040912
_cell_angle_beta   89.99790859
_cell_angle_gamma   89.99975959
_symmetry_Int_Tables_number   1
_chemical_formula_structural   Na2MnFe(PO4)2
_chemical_formula_sum   'Na96 Mn48 Fe48 P96 O384'
_cell_volume   7997.71502802
_cell_formula_units_Z   48
loop_
 _symmetry_equiv_pos_site_id
 _symmetry_equiv_pos_as_xyz
  1  'x, y, z'
loop_
 _atom_site_type_symbol
 _atom_site_label
 _atom_site_symmetry_multiplicity
 _atom_site_fract_x
 _atom_site_fract_y
 _atom_site_fract_z
 _atom_site_occupancy
  Na  Na0  1  -0.00053840  0.00007157  0.00007476  1
  Na  Na1  1  0.00177824  0.00029932  0.24976304  1
  Na  Na2  1  0.00079607  0.00019794  0.50039483  1
  Na  Na3  1  -0.00064806  0.00046166  0.74929965  1
  Na  Na4  1  0.00270963  0.33483804  -0.00100247  1
  Na  Na5  1  -0.00046638  0.33267722  0.25036353  1
  Na  Na6  1  -0.00146312  0.33318333  0.50032734  1
  Na  Na7  1  -0.00131022  0.33332377  0.75065532  1
  Na  Na8  1  -0.00125497  0.66622990  -0.00016977  1
  Na  Na9  1  0.00053049  0.66718706  0.24927693  1
  Na  Na10  1  -0.00218559  0.66579905  0.50123115  1
  Na  Na11  1  -0.00097982  0.66690362  0.74978457  1
  Na  Na12  1  0.49881072  -0.00042048  0.00183456  1
  Na  Na13  1  0.49998449  -0.00003819  0.25058356  1
  Na  Na14  1  0.50115468  0.00023978  0.49895081  1
  Na  Na15  1  0.49967907  -0.00003717  0.74932170  1
  Na  Na16  1  0.50122398  0.33364032  -0.00103793  1
  Na  Na17  1  0.49962496  0.33335799  0.25074329  1
  Na  Na18  1  0.50234043  0.33401460  0.49974904  1
  Na  Na19  1  0.50052625  0.33218179  0.75059749  1
  Na  Na20  1  0.50060737  0.66712705  -0.00125550  1
  Na  Na21  1  0.50096598  0.66743630  0.25099675  1
  Na  Na22  1  0.49896111  0.66628159  0.50131654  1
  Na  Na23  1  0.50156920  0.66782585  0.74898941  1
  Na  Na24  1  0.24984839  0.00095872  0.12441290  1
  Na  Na25  1  0.24688019  -0.00006064  0.37565001  1
  Na  Na26  1  0.24726092  -0.00053876  0.62536500  1
  Na  Na27  1  0.25076376  0.00039722  0.87481159  1
  Na  Na28  1  0.24961037  0.33350712  0.12422359  1
  Na  Na29  1  0.25061779  0.33413335  0.37623677  1
  Na  Na30  1  0.25071514  0.33411665  0.62568477  1
  Na  Na31  1  0.24991582  0.33346586  0.87421119  1
  Na  Na32  1  0.25011970  0.66702245  0.12582590  1
  Na  Na33  1  0.24897248  0.66619539  0.37430540  1
  Na  Na34  1  0.25281197  0.66796813  0.62487243  1
  Na  Na35  1  0.25019845  0.66582221  0.87419670  1
  Na  Na36  1  0.75009374  -0.00062919  0.12402042  1
  Na  Na37  1  0.75061532  -0.00057663  0.37544488  1
  Na  Na38  1  0.75122913  0.00027087  0.62499619  1
  Na  Na39  1  0.75185804  0.00094972  0.87473112  1
  Na  Na40  1  0.74890739  0.33273049  0.12584286  1
  Na  Na41  1  0.74936374  0.33315297  0.37577634  1
  Na  Na42  1  0.74888682  0.33274112  0.62363533  1
  Na  Na43  1  0.74891089  0.33284564  0.87401848  1
  Na  Na44  1  0.74982459  0.66740581  0.12579027  1
  Na  Na45  1  0.75084305  0.66745398  0.37579846  1
  Na  Na46  1  0.75141494  0.66733306  0.62466285  1
  Na  Na47  1  0.74916671  0.66679809  0.87435394  1
  Na  Na48  1  0.00013712  0.16592779  -0.00064841  1
  Na  Na49  1  0.00012624  0.16578826  0.24966924  1
  Na  Na50  1  -0.00159254  0.16652902  0.50060461  1
  Na  Na51  1  -0.00043254  0.16578273  0.74990228  1
  Na  Na52  1  0.00225846  0.49961675  -0.00077498  1
  Na  Na53  1  0.00139234  0.50005638  0.25010088  1
  Na  Na54  1  -0.00097438  0.50090814  0.50079831  1
  Na  Na55  1  0.00097435  0.49961619  0.75018984  1
  Na  Na56  1  -0.00191377  0.83366346  0.00027082  1
  Na  Na57  1  0.00108515  0.83296978  0.24962552  1
  Na  Na58  1  -0.00025194  0.83304938  0.50062575  1
  Na  Na59  1  -0.00319672  0.83358925  0.74969519  1
  Na  Na60  1  0.50049744  0.16619322  0.00032812  1
  Na  Na61  1  0.49871169  0.16707292  0.25067211  1
  Na  Na62  1  0.49941005  0.16736472  0.49980097  1
  Na  Na63  1  0.50200749  0.16620300  0.75025099  1
  Na  Na64  1  0.49907715  0.50004378  -0.00079533  1
  Na  Na65  1  0.49853478  0.50056668  0.25050881  1
  Na  Na66  1  0.50064476  0.49953719  0.50044685  1
  Na  Na67  1  0.50040042  0.49987873  0.75009469  1
  Na  Na68  1  0.50159758  0.83279260  0.00020839  1
  Na  Na69  1  0.50253124  0.83286399  0.25090006  1
  Na  Na70  1  0.50257711  0.83240539  0.50003992  1
  Na  Na71  1  0.50023484  0.83339463  0.74878761  1
  Na  Na72  1  0.24965937  0.16583412  0.12542168  1
  Na  Na73  1  0.24893960  0.16599542  0.37587384  1
  Na  Na74  1  0.25015906  0.16589036  0.62589950  1
  Na  Na75  1  0.24939603  0.16648890  0.87338867  1
  Na  Na76  1  0.25011604  0.49976428  0.12441093  1
  Na  Na77  1  0.24923911  0.50026050  0.37571049  1
  Na  Na78  1  0.24958508  0.50030793  0.62502845  1
  Na  Na79  1  0.24977627  0.50012974  0.87447351  1
  Na  Na80  1  0.24852035  0.83458950  0.12492644  1
  Na  Na81  1  0.24796450  0.83389880  0.37443322  1
  Na  Na82  1  0.25010751  0.83327419  0.62526666  1
  Na  Na83  1  0.25278345  0.83246218  0.87495974  1
  Na  Na84  1  0.74988900  0.16635833  0.12522504  1
  Na  Na85  1  0.75176221  0.16628894  0.37515608  1
  Na  Na86  1  0.75186046  0.16651371  0.62535128  1
  Na  Na87  1  0.74853625  0.16757058  0.87364268  1
  Na  Na88  1  0.75052916  0.49966577  0.12571490  1
  Na  Na89  1  0.75040420  0.49990011  0.37635872  1
  Na  Na90  1  0.74993762  0.50021921  0.62330768  1
  Na  Na91  1  0.74905950  0.50059720  0.87443340  1
  Na  Na92  1  0.74877557  0.83355943  0.12458060  1
  Na  Na93  1  0.74907408  0.83311467  0.37542416  1
  Na  Na94  1  0.74945046  0.83316309  0.62469610  1
  Na  Na95  1  0.75108195  0.83230311  0.87520071  1
  Mn  Mn96  1  0.60739908  0.41740115  0.12309169  1
  Mn  Mn97  1  0.89239953  0.58265788  0.12731065  1
  Mn  Mn98  1  0.64241747  0.24921386  0.24793405  1
  Mn  Mn99  1  0.64263475  0.91679634  0.74795686  1
  Mn  Mn100  1  0.14238918  0.91650119  0.99662753  1
  Mn  Mn101  1  0.39291215  0.58401015  0.87646447  1
  Mn  Mn102  1  0.35670351  0.08255658  0.50241007  1
  Mn  Mn103  1  0.35900834  0.75031225  0.00248631  1
  Mn  Mn104  1  0.60752583  0.08322289  0.12288076  1
  Mn  Mn105  1  0.35835294  0.41693874  0.50323242  1
  Mn  Mn106  1  0.60851453  0.08329100  0.37259727  1
  Mn  Mn107  1  0.85861022  0.08281339  0.25226129  1
  Mn  Mn108  1  0.10745409  0.41675139  0.37274425  1
  Mn  Mn109  1  0.39231905  0.91703130  0.62631579  1
  Mn  Mn110  1  0.39232265  0.91582101  0.12814295  1
  Mn  Mn111  1  0.10752349  0.74970737  0.62285223  1
  Mn  Mn112  1  0.64234625  0.91756113  0.99708186  1
  Mn  Mn113  1  0.14266532  0.58383944  0.99754322  1
  Mn  Mn114  1  0.85818852  0.41645163  0.00240229  1
  Mn  Mn115  1  0.10797219  0.74989898  0.12202600  1
  Mn  Mn116  1  0.14162489  0.25027922  0.24807376  1
  Mn  Mn117  1  0.89187415  0.91653379  0.62722000  1
  Mn  Mn118  1  0.85758374  0.41666906  0.50247272  1
  Mn  Mn119  1  0.35774279  0.41605965  0.00193124  1
  Mn  Mn120  1  0.64199437  0.58377714  0.24788355  1
  Mn  Mn121  1  0.89195985  0.58353288  0.87694754  1
  Mn  Mn122  1  0.10722296  0.75040320  0.87240206  1
  Mn  Mn123  1  0.14145576  0.24976048  0.49858796  1
  Mn  Mn124  1  0.35789443  0.08320460  0.75221234  1
  Mn  Mn125  1  0.14197872  0.25066557  0.74711691  1
  Mn  Mn126  1  0.85762033  0.75013018  0.25263148  1
  Mn  Mn127  1  0.14202002  0.58436694  0.49853263  1
  Mn  Mn128  1  0.14199854  0.91531936  0.74866268  1
  Mn  Mn129  1  0.35737736  0.75044692  0.25276692  1
  Mn  Mn130  1  0.64257354  0.58346214  0.49782219  1
  Mn  Mn131  1  0.60878082  0.08340609  0.62221383  1
  Mn  Mn132  1  0.14215106  0.24965730  0.99729920  1
  Mn  Mn133  1  0.39179766  0.25067813  0.12746637  1
  Mn  Mn134  1  0.39189883  0.25026919  0.37767080  1
  Mn  Mn135  1  0.39201325  0.91629093  0.37724072  1
  Mn  Mn136  1  0.85852518  0.41685113  0.25242316  1
  Mn  Mn137  1  0.89190949  0.24995310  0.87755982  1
  Mn  Mn138  1  0.39314198  0.24867709  0.87705424  1
  Mn  Mn139  1  0.89232589  0.91686658  0.12745507  1
  Mn  Mn140  1  0.60851020  0.41661700  0.87182539  1
  Mn  Mn141  1  0.39188030  0.58395259  0.37713858  1
  Mn  Mn142  1  0.64176901  0.58275155  0.99803820  1
  Mn  Mn143  1  0.89245846  0.25036833  0.12633973  1
  Fe  Fe144  1  0.85745918  0.08343243  0.75227021  1
  Fe  Fe145  1  0.14325302  0.58379731  0.74805377  1
  Fe  Fe146  1  0.85718486  0.08352256  0.00130142  1
  Fe  Fe147  1  0.85794659  0.08271240  0.50118777  1
  Fe  Fe148  1  0.85639082  0.74991532  0.00159669  1
  Fe  Fe149  1  0.64338424  0.25049405  0.74731297  1
  Fe  Fe150  1  0.64335578  0.24908911  0.49838187  1
  Fe  Fe151  1  0.35734535  0.75076218  0.50112841  1
  Fe  Fe152  1  0.14202978  0.91660725  0.24846986  1
  Fe  Fe153  1  0.85748143  0.75057637  0.50127632  1
  Fe  Fe154  1  0.14154516  0.91588249  0.49820773  1
  Fe  Fe155  1  0.10610118  0.08390004  0.62353915  1
  Fe  Fe156  1  0.64309367  0.91694030  0.24885250  1
  Fe  Fe157  1  0.35603120  0.08365914  0.25182193  1
  Fe  Fe158  1  0.10654488  0.41622494  0.62405630  1
  Fe  Fe159  1  0.64251205  0.24967392  0.99867009  1
  Fe  Fe160  1  0.35747669  0.08350834  0.00140647  1
  Fe  Fe161  1  0.39326886  0.58259095  0.62714417  1
  Fe  Fe162  1  0.10612260  0.08312902  0.37349032  1
  Fe  Fe163  1  0.85680688  0.41702680  0.75112439  1
  Fe  Fe164  1  0.10831138  0.41624555  0.12351013  1
  Fe  Fe165  1  0.64295095  0.58287244  0.74750706  1
  Fe  Fe166  1  0.10687913  0.75012951  0.37422173  1
  Fe  Fe167  1  0.39236776  0.58362258  0.12691231  1
  Fe  Fe168  1  0.64351410  0.91721890  0.49810129  1
  Fe  Fe169  1  0.60779530  0.74935105  0.37382215  1
  Fe  Fe170  1  0.60736239  0.41683787  0.62402673  1
  Fe  Fe171  1  0.89304137  0.58375473  0.37626515  1
  Fe  Fe172  1  0.14234453  0.58331521  0.24842434  1
  Fe  Fe173  1  0.35679448  0.41631244  0.25140139  1
  Fe  Fe174  1  0.89242817  0.58234271  0.62774213  1
  Fe  Fe175  1  0.10770370  0.08388740  0.12235103  1
  Fe  Fe176  1  0.60727488  0.41725390  0.37290760  1
  Fe  Fe177  1  0.39360770  0.25045741  0.62652277  1
  Fe  Fe178  1  0.89235588  0.24985555  0.37682591  1
  Fe  Fe179  1  0.85636377  0.74966706  0.75190697  1
  Fe  Fe180  1  0.39332839  0.91704885  0.87629854  1
  Fe  Fe181  1  0.35832056  0.74984353  0.75133718  1
  Fe  Fe182  1  0.35742123  0.41708224  0.75108322  1
  Fe  Fe183  1  0.60784255  0.75068963  0.87269285  1
  Fe  Fe184  1  0.89299356  0.91614615  0.37674909  1
  Fe  Fe185  1  0.89204059  0.91666170  0.87655345  1
  Fe  Fe186  1  0.60739903  0.74972384  0.62293731  1
  Fe  Fe187  1  0.60728259  0.74942435  0.12346010  1
  Fe  Fe188  1  0.60778218  0.08238796  0.87365466  1
  Fe  Fe189  1  0.89213454  0.25084168  0.62676353  1
  Fe  Fe190  1  0.10671982  0.08306901  0.87335753  1
  Fe  Fe191  1  0.10772581  0.41669731  0.87199649  1
  P  P192  1  0.05374927  0.24992739  0.10974762  1
  P  P193  1  0.05157274  0.24901935  0.36070951  1
  P  P194  1  0.05141681  0.25037921  0.61058223  1
  P  P195  1  0.05336451  0.24949008  0.85963005  1
  P  P196  1  0.05490049  0.58248199  0.11076936  1
  P  P197  1  0.05281542  0.58465389  0.36012221  1
  P  P198  1  0.05328503  0.58266886  0.61180553  1
  P  P199  1  0.05423534  0.58339106  0.85893164  1
  P  P200  1  0.05498219  0.91751880  0.11061059  1
  P  P201  1  0.05360337  0.91619128  0.36115629  1
  P  P202  1  0.05369458  0.91689201  0.60989307  1
  P  P203  1  0.05122771  0.91712768  0.85986367  1
  P  P204  1  0.55359229  0.25025381  0.10942291  1
  P  P205  1  0.55496053  0.25039525  0.36135442  1
  P  P206  1  0.55475712  0.25087471  0.61056880  1
  P  P207  1  0.55637076  0.24858688  0.86031153  1
  P  P208  1  0.55165145  0.58411212  0.11003932  1
  P  P209  1  0.55352616  0.58351553  0.36062029  1
  P  P210  1  0.55390574  0.58307909  0.61158083  1
  P  P211  1  0.55478070  0.58406957  0.85855587  1
  P  P212  1  0.55485593  0.91578372  0.11165546  1
  P  P213  1  0.55572347  0.91598434  0.36086595  1
  P  P214  1  0.55467235  0.91613303  0.60909550  1
  P  P215  1  0.55256682  0.91720808  0.85976444  1
  P  P216  1  0.44471480  0.08343781  0.14029323  1
  P  P217  1  0.44545967  0.08305787  0.38934118  1
  P  P218  1  0.44698730  0.08416131  0.63950108  1
  P  P219  1  0.44778518  0.08231578  0.89057050  1
  P  P220  1  0.44579655  0.41758705  0.14067487  1
  P  P221  1  0.44641925  0.41694434  0.38934537  1
  P  P222  1  0.44770095  0.41626944  0.64046946  1
  P  P223  1  0.44616527  0.41642075  0.88886952  1
  P  P224  1  0.44791232  0.74925522  0.14066376  1
  P  P225  1  0.44754354  0.75035328  0.39096380  1
  P  P226  1  0.44603037  0.74970613  0.63875070  1
  P  P227  1  0.44728480  0.75106270  0.88818327  1
  P  P228  1  0.94700368  0.08351784  0.13862570  1
  P  P229  1  0.94696063  0.08245575  0.39041251  1
  P  P230  1  0.94503197  0.08393011  0.63923805  1
  P  P231  1  0.94552004  0.08256318  0.88931574  1
  P  P232  1  0.94872393  0.41642555  0.13993120  1
  P  P233  1  0.94657742  0.41708945  0.39037967  1
  P  P234  1  0.94654044  0.41671560  0.64047689  1
  P  P235  1  0.94680435  0.41710634  0.88862362  1
  P  P236  1  0.94537101  0.74995109  0.13891830  1
  P  P237  1  0.94720349  0.75018509  0.39037590  1
  P  P238  1  0.94427800  0.74912221  0.63951863  1
  P  P239  1  0.94423533  0.75055936  0.88939767  1
  P  P240  1  0.19478322  0.08273251  0.23591028  1
  P  P241  1  0.19343694  0.08266171  0.48618918  1
  P  P242  1  0.19425064  0.08287617  0.73552871  1
  P  P243  1  0.19628367  0.08334916  0.98462723  1
  P  P244  1  0.19704807  0.41725112  0.23475054  1
  P  P245  1  0.19529102  0.41684273  0.48668427  1
  P  P246  1  0.19588434  0.41775961  0.73517659  1
  P  P247  1  0.19506562  0.41663475  0.98464555  1
  P  P248  1  0.19476316  0.75017964  0.23631363  1
  P  P249  1  0.19704095  0.75048520  0.48480842  1
  P  P250  1  0.19814690  0.74918680  0.73488456  1
  P  P251  1  0.19752893  0.75007871  0.98425868  1
  P  P252  1  0.69733288  0.08207391  0.23529580  1
  P  P253  1  0.69838936  0.08352005  0.48494151  1
  P  P254  1  0.69717481  0.08364854  0.73608922  1
  P  P255  1  0.69737332  0.08396186  0.98413932  1
  P  P256  1  0.69590822  0.41689319  0.23641485  1
  P  P257  1  0.69449586  0.41584740  0.48571489  1
  P  P258  1  0.69731636  0.41691663  0.73431841  1
  P  P259  1  0.69677591  0.41590713  0.98463673  1
  P  P260  1  0.69486042  0.75093853  0.23591529  1
  P  P261  1  0.69614819  0.75046867  0.48597805  1
  P  P262  1  0.69568238  0.74942939  0.73525923  1
  P  P263  1  0.69563441  0.74992015  0.98530612  1
  P  P264  1  0.30335096  0.24870659  0.01455951  1
  P  P265  1  0.30270104  0.25009227  0.26528742  1
  P  P266  1  0.30359466  0.24973440  0.51654462  1
  P  P267  1  0.30493522  0.25097175  0.76340518  1
  P  P268  1  0.30448961  0.58348031  0.01562538  1
  P  P269  1  0.30298083  0.58248231  0.26379981  1
  P  P270  1  0.30433513  0.58454750  0.51581516  1
  P  P271  1  0.30435583  0.58308100  0.76310506  1
  P  P272  1  0.30507427  0.91777291  0.01390607  1
  P  P273  1  0.30155835  0.91780680  0.26509526  1
  P  P274  1  0.30128590  0.91593623  0.51483512  1
  P  P275  1  0.30441691  0.91595756  0.76531454  1
  P  P276  1  0.80196296  0.24913930  0.01462764  1
  P  P277  1  0.80434284  0.24996470  0.26597277  1
  P  P278  1  0.80454904  0.24929001  0.51424337  1
  P  P279  1  0.80387065  0.25083271  0.76329973  1
  P  P280  1  0.80299746  0.58414215  0.01499734  1
  P  P281  1  0.80375783  0.58348714  0.26642273  1
  P  P282  1  0.80584195  0.58439810  0.51420052  1
  P  P283  1  0.80305523  0.58290063  0.76347638  1
  P  P284  1  0.80482645  0.91672464  0.01343153  1
  P  P285  1  0.80300357  0.91630540  0.26593837  1
  P  P286  1  0.80395797  0.91632417  0.51362480  1
  P  P287  1  0.80399242  0.91635928  0.76532122  1
  O  O288  1  0.05606485  0.24959345  0.18658034  1
  O  O289  1  0.05509659  0.24970540  0.43734388  1
  O  O290  1  0.05516082  0.25024258  0.68729319  1
  O  O291  1  0.05645388  0.24956506  0.93636774  1
  O  O292  1  0.05893316  0.58340000  0.18760265  1
  O  O293  1  0.05614071  0.58412597  0.43689164  1
  O  O294  1  0.05859208  0.58383564  0.68841975  1
  O  O295  1  0.05724074  0.58417406  0.93569755  1
  O  O296  1  0.05888590  0.91682315  0.18747347  1
  O  O297  1  0.05766335  0.91585463  0.43783452  1
  O  O298  1  0.05639393  0.91581097  0.68678318  1
  O  O299  1  0.05513993  0.91630425  0.93649120  1
  O  O300  1  0.55666687  0.24988698  0.18629653  1
  O  O301  1  0.55929475  0.24916213  0.43811980  1
  O  O302  1  0.55972225  0.24979292  0.68732341  1
  O  O303  1  0.56002789  0.24954650  0.93728298  1
  O  O304  1  0.55539651  0.58352587  0.18670829  1
  O  O305  1  0.55637060  0.58344698  0.43757899  1
  O  O306  1  0.55874270  0.58324931  0.68808652  1
  O  O307  1  0.55712784  0.58328181  0.93558151  1
  O  O308  1  0.55898015  0.91701011  0.18824356  1
  O  O309  1  0.56011747  0.91715346  0.43770565  1
  O  O310  1  0.55758184  0.91704225  0.68589323  1
  O  O311  1  0.55591484  0.91714354  0.93671795  1
  O  O312  1  0.44078160  0.08347720  0.06356294  1
  O  O313  1  0.44027926  0.08288766  0.31231626  1
  O  O314  1  0.44349084  0.08342284  0.56288762  1
  O  O315  1  0.44403287  0.08335065  0.81380105  1
  O  O316  1  0.44322018  0.41637362  0.06381821  1
  O  O317  1  0.44094386  0.41673470  0.31267765  1
  O  O318  1  0.44458044  0.41637852  0.56388160  1
  O  O319  1  0.44151450  0.41635425  0.81130068  1
  O  O320  1  0.44464373  0.75015369  0.06384969  1
  O  O321  1  0.44326310  0.75073843  0.31427451  1
  O  O322  1  0.44126165  0.75059131  0.56208536  1
  O  O323  1  0.44243974  0.75026610  0.81155180  1
  O  O324  1  0.94162208  0.08341115  0.06204265  1
  O  O325  1  0.94409152  0.08224165  0.31356869  1
  O  O326  1  0.94056053  0.08295122  0.56253389  1
  O  O327  1  0.94076239  0.08338948  0.81248397  1
  O  O328  1  0.94488354  0.41670671  0.06318548  1
  O  O329  1  0.94430954  0.41700928  0.31342559  1
  O  O330  1  0.94312694  0.41686253  0.56412294  1
  O  O331  1  0.94095543  0.41712483  0.81200652  1
  O  O332  1  0.94061098  0.74988528  0.06222538  1
  O  O333  1  0.94402356  0.75052986  0.31366952  1
  O  O334  1  0.94042532  0.75011260  0.56269206  1
  O  O335  1  0.94000504  0.74954277  0.81255654  1
  O  O336  1  0.19157881  0.08348525  0.06133385  1
  O  O337  1  0.18971445  0.08350891  0.31267280  1
  O  O338  1  0.18930613  0.08391196  0.56296907  1
  O  O339  1  0.18983663  0.08302249  0.81233327  1
  O  O340  1  0.19110908  0.41641653  0.06137518  1
  O  O341  1  0.19339223  0.41671582  0.31160946  1
  O  O342  1  0.19028836  0.41649266  0.56339972  1
  O  O343  1  0.19133715  0.41667492  0.81197011  1
  O  O344  1  0.19385465  0.75040333  0.06094056  1
  O  O345  1  0.19060321  0.74993055  0.31329844  1
  O  O346  1  0.19357830  0.74980560  0.56105771  1
  O  O347  1  0.19396570  0.74973188  0.81175935  1
  O  O348  1  0.69342594  0.08287450  0.06099314  1
  O  O349  1  0.69454758  0.08282284  0.31135787  1
  O  O350  1  0.69511596  0.08368123  0.56216304  1
  O  O351  1  0.69221707  0.08276514  0.81255785  1
  O  O352  1  0.69373444  0.41670506  0.06177863  1
  O  O353  1  0.69163339  0.41729282  0.31306403  1
  O  O354  1  0.69037011  0.41697463  0.56277640  1
  O  O355  1  0.69420431  0.41698447  0.81010978  1
  O  O356  1  0.69092801  0.74976884  0.06212544  1
  O  O357  1  0.69113901  0.74959855  0.31263088  1
  O  O358  1  0.69145355  0.74938779  0.56277008  1
  O  O359  1  0.69111674  0.75033410  0.81202421  1
  O  O360  1  0.30542886  0.25005901  0.18855660  1
  O  O361  1  0.30655473  0.24988888  0.43963652  1
  O  O362  1  0.30957529  0.25029464  0.68681194  1
  O  O363  1  0.30663072  0.24923936  0.93772054  1
  O  O364  1  0.30784382  0.58347520  0.18726801  1
  O  O365  1  0.30685114  0.58330374  0.43883264  1
  O  O366  1  0.30921276  0.58291218  0.68660873  1
  O  O367  1  0.30774686  0.58360261  0.93863675  1
  O  O368  1  0.30560422  0.91708095  0.18846481  1
  O  O369  1  0.30521451  0.91680225  0.43803983  1
  O  O370  1  0.30710004  0.91692844  0.68865861  1
  O  O371  1  0.30969869  0.91687642  0.93710369  1
  O  O372  1  0.80747283  0.25008115  0.18899404  1
  O  O373  1  0.80931395  0.25006644  0.43761759  1
  O  O374  1  0.80853306  0.25076596  0.68642627  1
  O  O375  1  0.80558540  0.24992209  0.93803294  1
  O  O376  1  0.80693803  0.58330973  0.18945239  1
  O  O377  1  0.81001143  0.58375985  0.43767201  1
  O  O378  1  0.80762255  0.58268455  0.68646542  1
  O  O379  1  0.80585986  0.58354948  0.93833101  1
  O  O380  1  0.80671132  0.91624485  0.18902896  1
  O  O381  1  0.80872072  0.91602477  0.43688598  1
  O  O382  1  0.80633276  0.91653775  0.68842846  1
  O  O383  1  0.80840743  0.91676466  0.93669643  1
  O  O384  1  0.23374231  0.24920458  0.03975817  1
  O  O385  1  0.23315004  0.25018061  0.29110319  1
  O  O386  1  0.23380262  0.24986848  0.54140415  1
  O  O387  1  0.23483234  0.25040641  0.78731371  1
  O  O388  1  0.23471815  0.58370675  0.04020855  1
  O  O389  1  0.23265730  0.58291133  0.28791474  1
  O  O390  1  0.23465608  0.58415501  0.54093868  1
  O  O391  1  0.23411949  0.58297504  0.78726081  1
  O  O392  1  0.23502238  0.91758091  0.03787327  1
  O  O393  1  0.23142585  0.91718145  0.28943634  1
  O  O394  1  0.23128453  0.91616105  0.53942966  1
  O  O395  1  0.23466147  0.91622287  0.79068754  1
  O  O396  1  0.73208365  0.24920235  0.03977899  1
  O  O397  1  0.73464907  0.24969473  0.29074363  1
  O  O398  1  0.73405847  0.24972295  0.53782336  1
  O  O399  1  0.73350552  0.25064924  0.78678201  1
  O  O400  1  0.73345249  0.58366739  0.04075801  1
  O  O401  1  0.73406967  0.58378136  0.29129148  1
  O  O402  1  0.73544070  0.58381695  0.53801895  1
  O  O403  1  0.73289989  0.58335616  0.78734341  1
  O  O404  1  0.73478055  0.91668751  0.03803945  1
  O  O405  1  0.73301744  0.91629676  0.29024693  1
  O  O406  1  0.73373743  0.91655347  0.53775032  1
  O  O407  1  0.73440069  0.91639847  0.79080786  1
  O  O408  1  0.26528254  0.08331084  0.21247859  1
  O  O409  1  0.26356008  0.08302271  0.46212699  1
  O  O410  1  0.26451679  0.08269477  0.71201949  1
  O  O411  1  0.26660480  0.08328676  0.96085586  1
  O  O412  1  0.26704254  0.41660689  0.21006295  1
  O  O413  1  0.26550188  0.41719604  0.46317079  1
  O  O414  1  0.26635227  0.41741039  0.71159352  1
  O  O415  1  0.26516051  0.41664460  0.96049053  1
  O  O416  1  0.26473890  0.75070511  0.21195897  1
  O  O417  1  0.26704737  0.75003080  0.45952739  1
  O  O418  1  0.26831028  0.75005719  0.71077276  1
  O  O419  1  0.26737087  0.74947864  0.95965078  1
  O  O420  1  0.76702371  0.08253590  0.20932785  1
  O  O421  1  0.76843546  0.08319514  0.46036683  1
  O  O422  1  0.76763552  0.08334292  0.71241067  1
  O  O423  1  0.76742950  0.08373436  0.95979081  1
  O  O424  1  0.76593429  0.41648474  0.21203014  1
  O  O425  1  0.76461748  0.41645053  0.46225073  1
  O  O426  1  0.76742222  0.41661719  0.70865541  1
  O  O427  1  0.76644498  0.41652741  0.95928929  1
  O  O428  1  0.76489176  0.75042057  0.21155047  1
  O  O429  1  0.76656451  0.75016430  0.46242208  1
  O  O430  1  0.76619004  0.75006036  0.71185388  1
  O  O431  1  0.76594099  0.75009535  0.96172140  1
  O  O432  1  0.01728610  0.08342063  0.16228387  1
  O  O433  1  0.01696412  0.08272342  0.41530092  1
  O  O434  1  0.01548948  0.08336332  0.66279851  1
  O  O435  1  0.01598367  0.08308519  0.91276488  1
  O  O436  1  0.01858830  0.41617183  0.16482839  1
  O  O437  1  0.01612508  0.41717994  0.41614919  1
  O  O438  1  0.01664893  0.41663126  0.66531691  1
  O  O439  1  0.01745187  0.41717790  0.91129258  1
  O  O440  1  0.01544885  0.75009580  0.16266397  1
  O  O441  1  0.01723144  0.74999188  0.41547129  1
  O  O442  1  0.01423348  0.74999616  0.66364373  1
  O  O443  1  0.01434253  0.74975974  0.91354370  1
  O  O444  1  0.51484803  0.08358597  0.16437598  1
  O  O445  1  0.51539645  0.08327933  0.41267958  1
  O  O446  1  0.51693947  0.08349588  0.66435269  1
  O  O447  1  0.51782180  0.08286126  0.91521822  1
  O  O448  1  0.51537525  0.41678132  0.16613251  1
  O  O449  1  0.51679969  0.41700357  0.41274776  1
  O  O450  1  0.51777819  0.41636036  0.66537130  1
  O  O451  1  0.51579787  0.41667818  0.91222854  1
  O  O452  1  0.51783272  0.74982853  0.16555447  1
  O  O453  1  0.51773373  0.74961022  0.41494244  1
  O  O454  1  0.51665577  0.75019973  0.66205335  1
  O  O455  1  0.51765172  0.75037155  0.91201836  1
  O  O456  1  0.48388169  0.25031423  0.08447887  1
  O  O457  1  0.48477522  0.25031914  0.33724690  1
  O  O458  1  0.48435621  0.25068042  0.58701095  1
  O  O459  1  0.48610653  0.24893307  0.83635375  1
  O  O460  1  0.48188924  0.58379186  0.08475629  1
  O  O461  1  0.48389854  0.58405421  0.33538293  1
  O  O462  1  0.48353339  0.58292619  0.58775410  1
  O  O463  1  0.48495434  0.58398884  0.83346483  1
  O  O464  1  0.48493051  0.91590749  0.08725569  1
  O  O465  1  0.48546458  0.91633437  0.33693819  1
  O  O466  1  0.48495350  0.91648635  0.58402236  1
  O  O467  1  0.48283114  0.91700429  0.83449055  1
  O  O468  1  0.98441511  0.25030480  0.08341892  1
  O  O469  1  0.98160233  0.24912071  0.33577951  1
  O  O470  1  0.98133717  0.25036550  0.58600335  1
  O  O471  1  0.98360861  0.24948321  0.83463846  1
  O  O472  1  0.98499578  0.58278832  0.08612046  1
  O  O473  1  0.98279780  0.58389556  0.33536871  1
  O  O474  1  0.98276436  0.58276081  0.58849319  1
  O  O475  1  0.98434940  0.58351732  0.83425572  1
  O  O476  1  0.98498249  0.91704103  0.08641886  1
  O  O477  1  0.98331070  0.91637801  0.33672598  1
  O  O478  1  0.98379389  0.91652364  0.58508122  1
  O  O479  1  0.98127330  0.91710276  0.83503614  1
  O  O480  1  0.08844666  0.31503022  0.07810807  1
  O  O481  1  0.08551580  0.31408532  0.32789124  1
  O  O482  1  0.08519249  0.31550697  0.57797054  1
  O  O483  1  0.08744160  0.31462855  0.82712183  1
  O  O484  1  0.08850030  0.64742939  0.07738151  1
  O  O485  1  0.08649486  0.64991164  0.32760268  1
  O  O486  1  0.08621962  0.64759256  0.57782614  1
  O  O487  1  0.08841714  0.64833094  0.82599107  1
  O  O488  1  0.08835005  0.98284532  0.07792649  1
  O  O489  1  0.08721338  0.98138268  0.32819132  1
  O  O490  1  0.08742344  0.98223907  0.57789516  1
  O  O491  1  0.08526989  0.98215697  0.82753558  1
  O  O492  1  0.58792254  0.31520360  0.07707648  1
  O  O493  1  0.58828329  0.31585266  0.32883512  1
  O  O494  1  0.58813079  0.31609095  0.57781779  1
  O  O495  1  0.59008206  0.31314285  0.82678498  1
  O  O496  1  0.58570779  0.64930448  0.07766903  1
  O  O497  1  0.58788325  0.64864101  0.32867223  1
  O  O498  1  0.58715924  0.64814916  0.57798923  1
  O  O499  1  0.58892888  0.64934092  0.82667280  1
  O  O500  1  0.58842123  0.98070982  0.07787573  1
  O  O501  1  0.58952214  0.98048004  0.32720045  1
  O  O502  1  0.58921839  0.98100843  0.57637753  1
  O  O503  1  0.58652051  0.98242100  0.82746428  1
  O  O504  1  0.41107677  0.01839910  0.17351431  1
  O  O505  1  0.41214416  0.01786731  0.42258369  1
  O  O506  1  0.41280371  0.01914741  0.67209676  1
  O  O507  1  0.41394637  0.01708216  0.92287193  1
  O  O508  1  0.41090062  0.35298885  0.17349447  1
  O  O509  1  0.41326741  0.35201563  0.42310745  1
  O  O510  1  0.41363501  0.35124259  0.67317404  1
  O  O511  1  0.41267379  0.35130946  0.92161966  1
  O  O512  1  0.41403673  0.68403952  0.17288784  1
  O  O513  1  0.41314012  0.68559818  0.42357790  1
  O  O514  1  0.41310187  0.68444104  0.67215156  1
  O  O515  1  0.41378488  0.68612226  0.92169557  1
  O  O516  1  0.91379832  0.01853615  0.17239126  1
  O  O517  1  0.91315926  0.01726243  0.42309089  1
  O  O518  1  0.91149596  0.01902811  0.67284464  1
  O  O519  1  0.91232182  0.01744362  0.92240886  1
  O  O520  1  0.91453652  0.35138078  0.17228529  1
  O  O521  1  0.91234002  0.35191020  0.42239431  1
  O  O522  1  0.91243797  0.35169561  0.67328700  1
  O  O523  1  0.91404065  0.35193045  0.92233193  1
  O  O524  1  0.91204021  0.68492387  0.17229094  1
  O  O525  1  0.91296692  0.68524114  0.42282699  1
  O  O526  1  0.91078886  0.68382198  0.67232691  1
  O  O527  1  0.91011744  0.68585779  0.92269056  1
  O  O528  1  0.16179940  0.01752281  0.20263027  1
  O  O529  1  0.16004203  0.01727149  0.45356761  1
  O  O530  1  0.16046746  0.01792044  0.70263540  1
  O  O531  1  0.16259695  0.01844266  0.95123396  1
  O  O532  1  0.16281489  0.35230333  0.20202705  1
  O  O533  1  0.16217335  0.35172249  0.45319629  1
  O  O534  1  0.16227606  0.35292830  0.70152208  1
  O  O535  1  0.16133376  0.35168498  0.95137871  1
  O  O536  1  0.16160102  0.68485845  0.20338088  1
  O  O537  1  0.16268675  0.68557335  0.45168177  1
  O  O538  1  0.16486077  0.68400138  0.70198030  1
  O  O539  1  0.16321423  0.68518233  0.95183493  1
  O  O540  1  0.66339471  0.01674635  0.20274559  1
  O  O541  1  0.66433795  0.01857602  0.45285193  1
  O  O542  1  0.66396605  0.01868999  0.70228841  1
  O  O543  1  0.66349969  0.01895432  0.95086734  1
  O  O544  1  0.66208840  0.35188357  0.20353886  1
  O  O545  1  0.66125632  0.35056735  0.45322876  1
  O  O546  1  0.66295329  0.35187292  0.70129780  1
  O  O547  1  0.66301075  0.35059849  0.95277570  1
  O  O548  1  0.66080656  0.68625414  0.20224022  1
  O  O549  1  0.66268595  0.68553392  0.45228473  1
  O  O550  1  0.66265242  0.68426365  0.70188931  1
  O  O551  1  0.66216605  0.68508086  0.95192110  1
  O  O552  1  0.33749285  0.31381120  0.04704892  1
  O  O553  1  0.33697908  0.31532437  0.29746697  1
  O  O554  1  0.33810073  0.31468743  0.54884012  1
  O  O555  1  0.33807953  0.31646283  0.79638962  1
  O  O556  1  0.33884566  0.64830673  0.04828023  1
  O  O557  1  0.33643336  0.64748439  0.29746028  1
  O  O558  1  0.33850864  0.65000412  0.54719283  1
  O  O559  1  0.33773456  0.64826719  0.79635909  1
  O  O560  1  0.33840772  0.98307477  0.04662337  1
  O  O561  1  0.33500467  0.98299711  0.29795390  1
  O  O562  1  0.33517683  0.98075403  0.54802289  1
  O  O563  1  0.33883102  0.98084094  0.79815972  1
  O  O564  1  0.83591377  0.31422747  0.04751686  1
  O  O565  1  0.83848545  0.31488642  0.29861449  1
  O  O566  1  0.83787913  0.31425553  0.54800055  1
  O  O567  1  0.83684470  0.31608803  0.79653529  1
  O  O568  1  0.83696578  0.64942523  0.04717972  1
  O  O569  1  0.83814414  0.64848678  0.29866246  1
  O  O570  1  0.83896550  0.64958249  0.54737821  1
  O  O571  1  0.83659334  0.64796689  0.79638436  1
  O  O572  1  0.83827357  0.98205245  0.04625646  1
  O  O573  1  0.83721998  0.98122341  0.29847101  1
  O  O574  1  0.83737796  0.98145181  0.54671106  1
  O  O575  1  0.83847178  0.98139400  0.79747380  1
  O  O576  1  0.41083132  0.14840609  0.17335482  1
  O  O577  1  0.41177077  0.14800057  0.42238786  1
  O  O578  1  0.41354061  0.14943428  0.67222109  1
  O  O579  1  0.41348523  0.14709652  0.92363111  1
  O  O580  1  0.41192362  0.48310092  0.17254703  1
  O  O581  1  0.41327963  0.48208648  0.42272765  1
  O  O582  1  0.41346487  0.48131073  0.67315201  1
  O  O583  1  0.41235850  0.48148271  0.92125602  1
  O  O584  1  0.41375951  0.81409094  0.17366881  1
  O  O585  1  0.41407006  0.81550741  0.42413422  1
  O  O586  1  0.41257585  0.81453735  0.67241086  1
  O  O587  1  0.41439183  0.81630181  0.92155239  1
  O  O588  1  0.91375427  0.14862553  0.17193698  1
  O  O589  1  0.91267379  0.14735774  0.42284524  1
  O  O590  1  0.91191317  0.14914108  0.67237826  1
  O  O591  1  0.91196650  0.14743733  0.92287433  1
  O  O592  1  0.91475805  0.48136201  0.17282226  1
  O  O593  1  0.91232132  0.48216133  0.42238726  1
  O  O594  1  0.91250478  0.48174238  0.67364812  1
  O  O595  1  0.91389767  0.48210970  0.92233155  1
  O  O596  1  0.91204794  0.81502673  0.17231351  1
  O  O597  1  0.91317399  0.81527939  0.42323440  1
  O  O598  1  0.91000406  0.81385885  0.67265397  1
  O  O599  1  0.91104141  0.81601361  0.92204768  1
  O  O600  1  0.08789942  0.18466479  0.07753282  1
  O  O601  1  0.08542319  0.18393057  0.32817286  1
  O  O602  1  0.08510846  0.18528135  0.57786875  1
  O  O603  1  0.08730285  0.18429474  0.82733717  1
  O  O604  1  0.08844026  0.51710542  0.07845599  1
  O  O605  1  0.08735033  0.51986130  0.32735978  1
  O  O606  1  0.08634048  0.51743041  0.57870567  1
  O  O607  1  0.08851957  0.51832780  0.82667120  1
  O  O608  1  0.08870325  0.85264840  0.07729581  1
  O  O609  1  0.08712037  0.85111535  0.32789649  1
  O  O610  1  0.08798620  0.85217234  0.57705437  1
  O  O611  1  0.08496605  0.85198293  0.82679069  1
  O  O612  1  0.58788718  0.18520398  0.07691116  1
  O  O613  1  0.58825760  0.18554586  0.32776126  1
  O  O614  1  0.58830855  0.18597208  0.57673045  1
  O  O615  1  0.58965906  0.18311890  0.82777262  1
  O  O616  1  0.58572199  0.51906903  0.07725511  1
  O  O617  1  0.58733245  0.51840336  0.32810733  1
  O  O618  1  0.58725237  0.51794752  0.57830829  1
  O  O619  1  0.58909003  0.51937786  0.82609008  1
  O  O620  1  0.58848057  0.85048384  0.07892204  1
  O  O621  1  0.58899877  0.85035604  0.32860461  1
  O  O622  1  0.58891474  0.85090299  0.57723325  1
  O  O623  1  0.58681098  0.85227313  0.82730654  1
  O  O624  1  0.33723460  0.18357092  0.04689393  1
  O  O625  1  0.33678436  0.18481539  0.29758880  1
  O  O626  1  0.33784679  0.18470054  0.54875129  1
  O  O627  1  0.33852519  0.18601904  0.79690280  1
  O  O628  1  0.33841806  0.51831361  0.04793022  1
  O  O629  1  0.33612628  0.51718506  0.29694790  1
  O  O630  1  0.33901195  0.51992676  0.54869313  1
  O  O631  1  0.33773210  0.51787130  0.79658936  1
  O  O632  1  0.33853426  0.85274389  0.04746237  1
  O  O633  1  0.33560440  0.85282607  0.29804127  1
  O  O634  1  0.33524884  0.85069645  0.54696413  1
  O  O635  1  0.33870030  0.85071853  0.79730431  1
  O  O636  1  0.83602712  0.18394921  0.04693636  1
  O  O637  1  0.83871120  0.18490978  0.29816983  1
  O  O638  1  0.83775154  0.18410740  0.54734447  1
  O  O639  1  0.83716402  0.18578757  0.79658157  1
  O  O640  1  0.83743838  0.51905486  0.04740749  1
  O  O641  1  0.83804643  0.51855568  0.29883411  1
  O  O642  1  0.83932891  0.51944562  0.54785313  1
  O  O643  1  0.83620912  0.51770057  0.79659917  1
  O  O644  1  0.83824925  0.85156934  0.04640358  1
  O  O645  1  0.83700611  0.85144021  0.29885575  1
  O  O646  1  0.83714602  0.85126766  0.54706458  1
  O  O647  1  0.83822884  0.85119129  0.79737348  1
  O  O648  1  0.16138403  0.14766909  0.20219844  1
  O  O649  1  0.15969465  0.14743013  0.45251290  1
  O  O650  1  0.16082376  0.14794515  0.70207718  1
  O  O651  1  0.16264569  0.14823402  0.95124828  1
  O  O652  1  0.16320186  0.48232782  0.20220342  1
  O  O653  1  0.16192455  0.48200628  0.45358963  1
  O  O654  1  0.16249025  0.48287389  0.70228896  1
  O  O655  1  0.16145736  0.48169978  0.95157927  1
  O  O656  1  0.16104051  0.81534130  0.20367725  1
  O  O657  1  0.16277152  0.81555856  0.45213127  1
  O  O658  1  0.16395905  0.81403243  0.70226879  1
  O  O659  1  0.16386252  0.81523999  0.95133259  1
  O  O660  1  0.66290291  0.14705742  0.20239520  1
  O  O661  1  0.66467986  0.14858739  0.45258922  1
  O  O662  1  0.66417512  0.14885764  0.70264433  1
  O  O663  1  0.66335443  0.14890790  0.95183932  1
  O  O664  1  0.66260227  0.48203727  0.20301881  1
  O  O665  1  0.66072491  0.48079758  0.45245889  1
  O  O666  1  0.66329281  0.48202409  0.70102087  1
  O  O667  1  0.66235015  0.48075746  0.95235783  1
  O  O668  1  0.66152824  0.81636771  0.20333008  1
  O  O669  1  0.66280280  0.81550774  0.45305429  1
  O  O670  1  0.66207051  0.81427568  0.70177806  1
  O  O671  1  0.66222384  0.81507138  0.95189407  1
