# generated using pymatgen
data_Na2MnFe(PO4)2
_symmetry_space_group_name_H-M   'P 1'
_cell_length_a   21.08329997
_cell_length_b   18.93513736
_cell_length_c   20.04227669
_cell_angle_alpha   90.00040814
_cell_angle_beta   89.99726632
_cell_angle_gamma   89.99821821
_symmetry_Int_Tables_number   1
_chemical_formula_structural   Na2MnFe(PO4)2
_chemical_formula_sum   'Na96 Mn48 Fe48 P96 O384'
_cell_volume   8001.18109870
_cell_formula_units_Z   48
loop_
 _symmetry_equiv_pos_site_id
 _symmetry_equiv_pos_as_xyz
  1  'x, y, z'
loop_
 _atom_site_type_symbol
 _atom_site_label
 _atom_site_symmetry_multiplicity
 _atom_site_fract_x
 _atom_site_fract_y
 _atom_site_fract_z
 _atom_site_occupancy
  Na  Na0  1  0.00129862  0.00009714  -0.00167826  1
  Na  Na1  1  0.00136685  0.00049325  0.24950859  1
  Na  Na2  1  0.00025459  0.00027311  0.50089341  1
  Na  Na3  1  0.00059534  0.00066431  0.75055108  1
  Na  Na4  1  -0.00198921  0.33211049  0.00005043  1
  Na  Na5  1  0.00040530  0.33307978  0.24974410  1
  Na  Na6  1  -0.00081191  0.33299750  0.49999782  1
  Na  Na7  1  -0.00075306  0.33372216  0.75063508  1
  Na  Na8  1  -0.00089135  0.66618100  0.00118220  1
  Na  Na9  1  0.00021457  0.66699469  0.24950957  1
  Na  Na10  1  0.00018815  0.66678792  0.49968848  1
  Na  Na11  1  -0.00160524  0.66606433  0.74996501  1
  Na  Na12  1  0.49883844  0.00048843  -0.00045159  1
  Na  Na13  1  0.50075657  0.00080420  0.25129352  1
  Na  Na14  1  0.50108177  0.00081340  0.49921978  1
  Na  Na15  1  0.49849808  -0.00018531  0.75049854  1
  Na  Na16  1  0.49933500  0.33282225  0.00027003  1
  Na  Na17  1  0.50070151  0.33385893  0.24957501  1
  Na  Na18  1  0.50173934  0.33369507  0.50048151  1
  Na  Na19  1  0.49946453  0.33249267  0.74973221  1
  Na  Na20  1  0.50104031  0.66739858  -0.00068110  1
  Na  Na21  1  0.50081371  0.66727122  0.24910744  1
  Na  Na22  1  0.50010418  0.66706870  0.50054653  1
  Na  Na23  1  0.50017103  0.66676832  0.75068217  1
  Na  Na24  1  0.24828788  0.00015375  0.12456672  1
  Na  Na25  1  0.24907664  0.00089035  0.37541524  1
  Na  Na26  1  0.24912077  0.00007032  0.62543916  1
  Na  Na27  1  0.24842963  -0.00017529  0.87465117  1
  Na  Na28  1  0.25031345  0.33362699  0.12491831  1
  Na  Na29  1  0.24869924  0.33330020  0.37582511  1
  Na  Na30  1  0.24875413  0.33319195  0.62573564  1
  Na  Na31  1  0.25090189  0.33383599  0.87417169  1
  Na  Na32  1  0.25129391  0.66702962  0.12547777  1
  Na  Na33  1  0.24927154  0.66609966  0.37501889  1
  Na  Na34  1  0.25194572  0.66758986  0.62509163  1
  Na  Na35  1  0.25261756  0.66760313  0.87437010  1
  Na  Na36  1  0.75038794  0.00034157  0.12564154  1
  Na  Na37  1  0.74927377  -0.00027601  0.37414863  1
  Na  Na38  1  0.75061112  0.00078272  0.62522834  1
  Na  Na39  1  0.75215352  0.00136083  0.87496946  1
  Na  Na40  1  0.75119455  0.33327648  0.12515383  1
  Na  Na41  1  0.75012268  0.33263131  0.37403051  1
  Na  Na42  1  0.75147835  0.33291992  0.62375447  1
  Na  Na43  1  0.75141855  0.33315853  0.87582433  1
  Na  Na44  1  0.74877153  0.66688166  0.12449534  1
  Na  Na45  1  0.75072345  0.66762770  0.37530380  1
  Na  Na46  1  0.74902704  0.66618406  0.62489193  1
  Na  Na47  1  0.74787570  0.66613460  0.87569743  1
  Na  Na48  1  -0.00012642  0.16573367  0.00022292  1
  Na  Na49  1  0.00060608  0.16609164  0.24914932  1
  Na  Na50  1  -0.00180693  0.16673941  0.50064314  1
  Na  Na51  1  -0.00293679  0.16698408  0.74987156  1
  Na  Na52  1  0.00092847  0.49974042  0.00023710  1
  Na  Na53  1  0.00131799  0.50025105  0.24915753  1
  Na  Na54  1  0.00137299  0.49941510  0.49987210  1
  Na  Na55  1  -0.00006753  0.49967611  0.74994661  1
  Na  Na56  1  -0.00029840  0.83343522  -0.00039609  1
  Na  Na57  1  -0.00107072  0.83402056  0.25002613  1
  Na  Na58  1  0.00037965  0.83322200  0.50019325  1
  Na  Na59  1  0.00012546  0.83400669  0.75090573  1
  Na  Na60  1  0.49912159  0.16664149  -0.00070299  1
  Na  Na61  1  0.50090236  0.16621253  0.25038856  1
  Na  Na62  1  0.50167346  0.16583228  0.50046812  1
  Na  Na63  1  0.50013467  0.16652018  0.74973725  1
  Na  Na64  1  0.50079375  0.49908173  0.00002792  1
  Na  Na65  1  0.50095088  0.49888518  0.24930770  1
  Na  Na66  1  0.49945870  0.50038731  0.50017624  1
  Na  Na67  1  0.49997430  0.50032768  0.75102317  1
  Na  Na68  1  0.50025353  0.83270519  0.00003582  1
  Na  Na69  1  0.50032399  0.83328197  0.25020503  1
  Na  Na70  1  0.50095419  0.83322536  0.49935711  1
  Na  Na71  1  0.49763472  0.83452844  0.74997013  1
  Na  Na72  1  0.24834167  0.16693767  0.12402391  1
  Na  Na73  1  0.24779106  0.16662561  0.37568095  1
  Na  Na74  1  0.24959328  0.16542948  0.62544578  1
  Na  Na75  1  0.25024683  0.16577892  0.87568766  1
  Na  Na76  1  0.25048688  0.49910177  0.12545518  1
  Na  Na77  1  0.24881614  0.49969880  0.37591931  1
  Na  Na78  1  0.24911008  0.49945414  0.62557361  1
  Na  Na79  1  0.24963129  0.50011794  0.87337369  1
  Na  Na80  1  0.25112923  0.83292198  0.12543616  1
  Na  Na81  1  0.24995767  0.83374644  0.37487358  1
  Na  Na82  1  0.25218281  0.83329451  0.62500838  1
  Na  Na83  1  0.25111652  0.83403740  0.87424989  1
  Na  Na84  1  0.75120718  0.16625814  0.12509138  1
  Na  Na85  1  0.75159246  0.16598935  0.37492831  1
  Na  Na86  1  0.75107241  0.16662904  0.62375923  1
  Na  Na87  1  0.75199460  0.16641149  0.87526774  1
  Na  Na88  1  0.74772911  0.50092015  0.12504609  1
  Na  Na89  1  0.74991078  0.50015784  0.37452214  1
  Na  Na90  1  0.75070415  0.49993652  0.62399227  1
  Na  Na91  1  0.74978807  0.49973252  0.87620164  1
  Na  Na92  1  0.75119611  0.83255756  0.12508809  1
  Na  Na93  1  0.74808438  0.83435630  0.37422362  1
  Na  Na94  1  0.74988140  0.83294453  0.62600953  1
  Na  Na95  1  0.74886980  0.83411055  0.87506927  1
  Mn  Mn96  1  0.64234668  0.91696161  0.99786042  1
  Mn  Mn97  1  0.85795450  0.41764378  0.25222474  1
  Mn  Mn98  1  0.60856496  0.41645640  0.62316886  1
  Mn  Mn99  1  0.85698695  0.75043154  0.00205166  1
  Mn  Mn100  1  0.14180206  0.91616508  0.49856480  1
  Mn  Mn101  1  0.60802171  0.41626345  0.87207475  1
  Mn  Mn102  1  0.64262483  0.24991169  0.24773639  1
  Mn  Mn103  1  0.64225385  0.58346541  0.24799784  1
  Mn  Mn104  1  0.64179531  0.58373940  0.49718205  1
  Mn  Mn105  1  0.35682784  0.08348757  0.00236243  1
  Mn  Mn106  1  0.89237631  0.91667020  0.37802951  1
  Mn  Mn107  1  0.14222123  0.91668993  0.24751171  1
  Mn  Mn108  1  0.60707928  0.75095128  0.62311450  1
  Mn  Mn109  1  0.89191510  0.58363772  0.12769372  1
  Mn  Mn110  1  0.64328880  0.24940024  0.49731243  1
  Mn  Mn111  1  0.35741400  0.41598558  0.75212410  1
  Mn  Mn112  1  0.39196820  0.24997104  0.37706574  1
  Mn  Mn113  1  0.14055386  0.24979266  0.49829250  1
  Mn  Mn114  1  0.39277765  0.58281601  0.87776425  1
  Mn  Mn115  1  0.14199812  0.58378072  0.49805044  1
  Mn  Mn116  1  0.35819149  0.75008739  0.50166941  1
  Mn  Mn117  1  0.10798608  0.75015650  0.62313684  1
  Mn  Mn118  1  0.14144574  0.24913608  0.74819544  1
  Mn  Mn119  1  0.64179957  0.91750906  0.74748112  1
  Mn  Mn120  1  0.10839591  0.74940784  0.87274638  1
  Mn  Mn121  1  0.85850389  0.41656827  0.50131196  1
  Mn  Mn122  1  0.89178576  0.58339628  0.62758597  1
  Mn  Mn123  1  0.85718109  0.74943228  0.75281975  1
  Mn  Mn124  1  0.60780009  0.08308996  0.87270242  1
  Mn  Mn125  1  0.39182266  0.24944977  0.12778071  1
  Mn  Mn126  1  0.85779246  0.41680887  0.00269763  1
  Mn  Mn127  1  0.39216530  0.58300659  0.37691997  1
  Mn  Mn128  1  0.35774441  0.08362115  0.50236794  1
  Mn  Mn129  1  0.14211847  0.58453970  0.74796369  1
  Mn  Mn130  1  0.85786066  0.75104297  0.50169901  1
  Mn  Mn131  1  0.39202903  0.91735617  0.12727485  1
  Mn  Mn132  1  0.89277978  0.91622917  0.87733572  1
  Mn  Mn133  1  0.85856791  0.08262289  0.25220145  1
  Mn  Mn134  1  0.14185136  0.25042590  0.99685852  1
  Mn  Mn135  1  0.39246469  0.24956866  0.62743717  1
  Mn  Mn136  1  0.64230334  0.91656525  0.24699887  1
  Mn  Mn137  1  0.10847855  0.41617919  0.12245662  1
  Mn  Mn138  1  0.39278602  0.58315909  0.12716606  1
  Mn  Mn139  1  0.64292580  0.24968817  0.99787661  1
  Mn  Mn140  1  0.10824298  0.75075208  0.12284766  1
  Mn  Mn141  1  0.35755824  0.41626383  0.50234968  1
  Mn  Mn142  1  0.39287899  0.91705597  0.37710412  1
  Mn  Mn143  1  0.14276030  0.58399814  0.99720783  1
  Fe  Fe144  1  0.35786747  0.74980000  0.00185226  1
  Fe  Fe145  1  0.14301599  0.58312821  0.24888226  1
  Fe  Fe146  1  0.60760806  0.41669696  0.37294245  1
  Fe  Fe147  1  0.89200989  0.58296444  0.87665019  1
  Fe  Fe148  1  0.60627352  0.75072744  0.87310502  1
  Fe  Fe149  1  0.35713332  0.08296156  0.75139176  1
  Fe  Fe150  1  0.85772309  0.41668152  0.75185147  1
  Fe  Fe151  1  0.10674583  0.41638258  0.87357408  1
  Fe  Fe152  1  0.39282193  0.91706601  0.62641327  1
  Fe  Fe153  1  0.14224878  0.25021435  0.24867058  1
  Fe  Fe154  1  0.60734105  0.08348213  0.12310507  1
  Fe  Fe155  1  0.14356548  0.91648410  0.74810388  1
  Fe  Fe156  1  0.64258958  0.91700243  0.49918120  1
  Fe  Fe157  1  0.60694956  0.41617516  0.12297522  1
  Fe  Fe158  1  0.35778214  0.74989691  0.25215337  1
  Fe  Fe159  1  0.10685209  0.08343222  0.37336087  1
  Fe  Fe160  1  0.64222496  0.58321428  0.99819556  1
  Fe  Fe161  1  0.10711193  0.08293838  0.12322560  1
  Fe  Fe162  1  0.89324472  0.91684339  0.12603363  1
  Fe  Fe163  1  0.39260413  0.24964101  0.87626139  1
  Fe  Fe164  1  0.10629453  0.41614878  0.62397123  1
  Fe  Fe165  1  0.60786424  0.08308343  0.62366815  1
  Fe  Fe166  1  0.89247862  0.25043573  0.87654955  1
  Fe  Fe167  1  0.60806737  0.08370521  0.37321552  1
  Fe  Fe168  1  0.39267257  0.58359027  0.62696190  1
  Fe  Fe169  1  0.89221492  0.91695375  0.62699710  1
  Fe  Fe170  1  0.35797651  0.75071712  0.75174815  1
  Fe  Fe171  1  0.64304883  0.58222104  0.74849425  1
  Fe  Fe172  1  0.10648126  0.08394871  0.87261284  1
  Fe  Fe173  1  0.39192698  0.91722982  0.87704052  1
  Fe  Fe174  1  0.85719597  0.08358821  0.75153523  1
  Fe  Fe175  1  0.85761745  0.08230208  0.50153369  1
  Fe  Fe176  1  0.85830727  0.08280103  0.00216029  1
  Fe  Fe177  1  0.10735206  0.41654669  0.37300234  1
  Fe  Fe178  1  0.60770892  0.74971332  0.37268204  1
  Fe  Fe179  1  0.35667164  0.08391545  0.25169858  1
  Fe  Fe180  1  0.89368579  0.25036345  0.37583674  1
  Fe  Fe181  1  0.35729513  0.41701882  0.00130075  1
  Fe  Fe182  1  0.14268246  0.91577163  0.99819180  1
  Fe  Fe183  1  0.10743985  0.74977492  0.37252564  1
  Fe  Fe184  1  0.10599873  0.08380202  0.62406728  1
  Fe  Fe185  1  0.60730916  0.75032732  0.12287444  1
  Fe  Fe186  1  0.64361773  0.25036436  0.74864506  1
  Fe  Fe187  1  0.85731187  0.74985938  0.25181429  1
  Fe  Fe188  1  0.89229339  0.24987379  0.62731144  1
  Fe  Fe189  1  0.89349537  0.24937530  0.12698098  1
  Fe  Fe190  1  0.89379963  0.58308297  0.37595709  1
  Fe  Fe191  1  0.35718155  0.41615261  0.25218646  1
  P  P192  1  0.05382221  0.24921168  0.11092403  1
  P  P193  1  0.05277779  0.24962026  0.35966810  1
  P  P194  1  0.05134804  0.24962123  0.61089750  1
  P  P195  1  0.05163410  0.24980818  0.86024129  1
  P  P196  1  0.05493512  0.58363159  0.11098777  1
  P  P197  1  0.05342122  0.58337636  0.35936130  1
  P  P198  1  0.05301904  0.58287215  0.61023016  1
  P  P199  1  0.05196200  0.58267177  0.86017591  1
  P  P200  1  0.05313040  0.91710009  0.10907388  1
  P  P201  1  0.05347785  0.91685922  0.36028051  1
  P  P202  1  0.05318363  0.91757704  0.61195312  1
  P  P203  1  0.05582434  0.91716879  0.86049307  1
  P  P204  1  0.55351352  0.24941187  0.11001071  1
  P  P205  1  0.55383428  0.25005526  0.36006304  1
  P  P206  1  0.55548549  0.24896299  0.61139589  1
  P  P207  1  0.55306976  0.24959496  0.85935237  1
  P  P208  1  0.55430544  0.58336497  0.10937343  1
  P  P209  1  0.55330329  0.58336056  0.35971334  1
  P  P210  1  0.55349242  0.58328568  0.61145179  1
  P  P211  1  0.55534446  0.58408813  0.86079687  1
  P  P212  1  0.55325304  0.91730517  0.10999659  1
  P  P213  1  0.55559470  0.91678222  0.36133970  1
  P  P214  1  0.55255940  0.91797432  0.60965905  1
  P  P215  1  0.55180020  0.91634835  0.86023128  1
  P  P216  1  0.44704128  0.08335183  0.14094337  1
  P  P217  1  0.44692672  0.08384361  0.38899269  1
  P  P218  1  0.44737115  0.08251739  0.64041253  1
  P  P219  1  0.44483848  0.08351687  0.88855134  1
  P  P220  1  0.44592952  0.41646964  0.13934097  1
  P  P221  1  0.44672749  0.41630693  0.38902251  1
  P  P222  1  0.44695125  0.41722066  0.64024929  1
  P  P223  1  0.44614337  0.41533928  0.89045305  1
  P  P224  1  0.44618466  0.75010094  0.13931180  1
  P  P225  1  0.44707757  0.74987155  0.38867645  1
  P  P226  1  0.44578835  0.75043361  0.64035928  1
  P  P227  1  0.44543793  0.75099997  0.88934168  1
  P  P228  1  0.94689697  0.08254481  0.13837282  1
  P  P229  1  0.94737152  0.08387253  0.39044458  1
  P  P230  1  0.94506419  0.08284703  0.63936122  1
  P  P231  1  0.94550042  0.08396734  0.88905303  1
  P  P232  1  0.94688298  0.41601853  0.13998945  1
  P  P233  1  0.94827000  0.41707221  0.38912240  1
  P  P234  1  0.94660521  0.41597820  0.64039811  1
  P  P235  1  0.94600187  0.41699119  0.88894613  1
  P  P236  1  0.94592045  0.75115631  0.14041233  1
  P  P237  1  0.94709207  0.74907165  0.38857538  1
  P  P238  1  0.94636839  0.75121808  0.64026624  1
  P  P239  1  0.94669745  0.74884775  0.89028122  1
  P  P240  1  0.19538027  0.08436621  0.23549588  1
  P  P241  1  0.19410085  0.08321002  0.48596531  1
  P  P242  1  0.19549918  0.08260319  0.73587973  1
  P  P243  1  0.19382070  0.08239021  0.98531360  1
  P  P244  1  0.19628803  0.41630629  0.23653252  1
  P  P245  1  0.19407847  0.41640000  0.48588635  1
  P  P246  1  0.19406419  0.41635443  0.73563833  1
  P  P247  1  0.19741553  0.41690497  0.98376894  1
  P  P248  1  0.19702830  0.74934538  0.23623033  1
  P  P249  1  0.19625612  0.75022119  0.48417714  1
  P  P250  1  0.19845841  0.75120656  0.73505289  1
  P  P251  1  0.19866822  0.75067020  0.98489802  1
  P  P252  1  0.69538312  0.08357641  0.23512450  1
  P  P253  1  0.69664231  0.08223351  0.48556670  1
  P  P254  1  0.69751265  0.08473579  0.73460441  1
  P  P255  1  0.69744683  0.08336050  0.98591069  1
  P  P256  1  0.69508076  0.41659294  0.23507300  1
  P  P257  1  0.69655268  0.41643642  0.48379530  1
  P  P258  1  0.69871534  0.41621502  0.73513447  1
  P  P259  1  0.69531835  0.41669884  0.98625995  1
  P  P260  1  0.69614300  0.74980049  0.23509556  1
  P  P261  1  0.69570688  0.75136936  0.48466636  1
  P  P262  1  0.69487494  0.74919946  0.73656637  1
  P  P263  1  0.69412032  0.74979631  0.98535511  1
  P  P264  1  0.30418547  0.25096511  0.01371385  1
  P  P265  1  0.30161345  0.24954817  0.26509991  1
  P  P266  1  0.30235522  0.24982040  0.51561465  1
  P  P267  1  0.30354048  0.24844500  0.76552916  1
  P  P268  1  0.30381442  0.58296216  0.01489318  1
  P  P269  1  0.30263352  0.58275476  0.26495556  1
  P  P270  1  0.30393368  0.58297952  0.51591554  1
  P  P271  1  0.30496395  0.58395881  0.76374891  1
  P  P272  1  0.30318532  0.91638320  0.01397536  1
  P  P273  1  0.30362582  0.91761789  0.26491157  1
  P  P274  1  0.30403349  0.91723201  0.51566604  1
  P  P275  1  0.30467127  0.91745784  0.76403101  1
  P  P276  1  0.80605826  0.24894837  0.01479773  1
  P  P277  1  0.80578073  0.24975290  0.26444345  1
  P  P278  1  0.80642626  0.24895461  0.51354772  1
  P  P279  1  0.80440693  0.25005281  0.76418096  1
  P  P280  1  0.80284161  0.58351504  0.01426489  1
  P  P281  1  0.80397246  0.58453783  0.26572582  1
  P  P282  1  0.80464225  0.58363360  0.51346419  1
  P  P283  1  0.80251028  0.58227245  0.76590126  1
  P  P284  1  0.80414069  0.91757344  0.01574590  1
  P  P285  1  0.80495656  0.91583272  0.26372525  1
  P  P286  1  0.80257688  0.91730325  0.51559995  1
  P  P287  1  0.80420540  0.91759487  0.76409908  1
  O  O288  1  0.05859399  0.25000344  0.18759086  1
  O  O289  1  0.05532577  0.24969491  0.43638141  1
  O  O290  1  0.05491025  0.24945703  0.68755570  1
  O  O291  1  0.05517498  0.24962834  0.93692582  1
  O  O292  1  0.05992300  0.58374853  0.18769268  1
  O  O293  1  0.05642097  0.58364346  0.43609750  1
  O  O294  1  0.05616719  0.58383685  0.68700834  1
  O  O295  1  0.05589608  0.58366184  0.93690689  1
  O  O296  1  0.05682245  0.91644656  0.18584152  1
  O  O297  1  0.05610824  0.91647084  0.43704100  1
  O  O298  1  0.05830145  0.91670945  0.68858692  1
  O  O299  1  0.05965189  0.91575512  0.93726721  1
  O  O300  1  0.55668995  0.24971945  0.18671538  1
  O  O301  1  0.55683005  0.24977514  0.43688812  1
  O  O302  1  0.55987053  0.24987655  0.68810412  1
  O  O303  1  0.55717043  0.24956054  0.93605170  1
  O  O304  1  0.55678626  0.58342756  0.18616887  1
  O  O305  1  0.55553916  0.58365727  0.43657782  1
  O  O306  1  0.55865317  0.58265471  0.68810775  1
  O  O307  1  0.55904028  0.58295621  0.93756374  1
  O  O308  1  0.55604957  0.91713153  0.18678946  1
  O  O309  1  0.55906877  0.91696690  0.43809687  1
  O  O310  1  0.55587609  0.91736784  0.68641625  1
  O  O311  1  0.55592174  0.91710779  0.93687616  1
  O  O312  1  0.44249462  0.08344618  0.06422563  1
  O  O313  1  0.44129692  0.08408278  0.31242985  1
  O  O314  1  0.44396954  0.08330984  0.56365733  1
  O  O315  1  0.44103372  0.08342627  0.81185676  1
  O  O316  1  0.44092684  0.41648075  0.06270727  1
  O  O317  1  0.44121138  0.41606841  0.31231781  1
  O  O318  1  0.44399722  0.41665330  0.56344054  1
  O  O319  1  0.44290361  0.41624506  0.81368245  1
  O  O320  1  0.44114813  0.75003979  0.06258683  1
  O  O321  1  0.44175901  0.74979041  0.31196831  1
  O  O322  1  0.44357671  0.75027582  0.56351085  1
  O  O323  1  0.44096303  0.75046837  0.81261306  1
  O  O324  1  0.94283871  0.08241840  0.06170656  1
  O  O325  1  0.94419939  0.08276119  0.31363436  1
  O  O326  1  0.94110650  0.08230643  0.56266396  1
  O  O327  1  0.94082139  0.08332929  0.81233346  1
  O  O328  1  0.94373066  0.41687564  0.06319864  1
  O  O329  1  0.94465132  0.41722779  0.31246589  1
  O  O330  1  0.94346781  0.41677374  0.56372297  1
  O  O331  1  0.94157857  0.41714727  0.81223704  1
  O  O332  1  0.94262965  0.75006673  0.06363196  1
  O  O333  1  0.94215407  0.74999493  0.31198493  1
  O  O334  1  0.94355830  0.75085671  0.56344841  1
  O  O335  1  0.94331847  0.74966423  0.81352327  1
  O  O336  1  0.18980495  0.08334327  0.06215568  1
  O  O337  1  0.19067468  0.08364118  0.31223456  1
  O  O338  1  0.18939658  0.08343127  0.56272251  1
  O  O339  1  0.19072163  0.08404404  0.81257482  1
  O  O340  1  0.19376492  0.41639494  0.06056379  1
  O  O341  1  0.19132701  0.41626426  0.31323646  1
  O  O342  1  0.18939412  0.41603049  0.56266309  1
  O  O343  1  0.18956891  0.41630896  0.81240190  1
  O  O344  1  0.19475227  0.75017421  0.06160061  1
  O  O345  1  0.19169108  0.75000067  0.31286601  1
  O  O346  1  0.19322849  0.75034712  0.56099944  1
  O  O347  1  0.19450216  0.75030057  0.81172087  1
  O  O348  1  0.69207683  0.08336086  0.06251885  1
  O  O349  1  0.69104064  0.08378385  0.31191622  1
  O  O350  1  0.69202651  0.08306951  0.56223812  1
  O  O351  1  0.69382323  0.08389799  0.81135043  1
  O  O352  1  0.69094527  0.41596357  0.06300588  1
  O  O353  1  0.69086409  0.41635932  0.31185662  1
  O  O354  1  0.69357975  0.41646453  0.56063047  1
  O  O355  1  0.69503846  0.41596014  0.81185326  1
  O  O356  1  0.69044057  0.75067968  0.06220536  1
  O  O357  1  0.69132762  0.74992779  0.31181389  1
  O  O358  1  0.69258752  0.75022880  0.56149898  1
  O  O359  1  0.69070621  0.75064615  0.81330515  1
  O  O360  1  0.30517818  0.24952361  0.18834732  1
  O  O361  1  0.30582879  0.24978470  0.43883044  1
  O  O362  1  0.30653709  0.24908764  0.68873238  1
  O  O363  1  0.30849164  0.25001013  0.93703810  1
  O  O364  1  0.30641690  0.58275574  0.18827554  1
  O  O365  1  0.30685880  0.58271031  0.43907443  1
  O  O366  1  0.30890165  0.58308439  0.68699793  1
  O  O367  1  0.30657105  0.58296722  0.93807239  1
  O  O368  1  0.30616215  0.91767754  0.18808690  1
  O  O369  1  0.30733493  0.91765384  0.43887411  1
  O  O370  1  0.30910804  0.91765561  0.68734179  1
  O  O371  1  0.30771601  0.91721870  0.93726464  1
  O  O372  1  0.81011730  0.24961322  0.18764834  1
  O  O373  1  0.81069483  0.24998694  0.43676304  1
  O  O374  1  0.80858864  0.25010950  0.68737445  1
  O  O375  1  0.80992678  0.24983780  0.93792526  1
  O  O376  1  0.80646285  0.58364474  0.18886784  1
  O  O377  1  0.80969941  0.58340633  0.43679798  1
  O  O378  1  0.80608607  0.58313089  0.68909973  1
  O  O379  1  0.80796903  0.58317892  0.93763366  1
  O  O380  1  0.80939172  0.91674141  0.18706251  1
  O  O381  1  0.80615952  0.91674352  0.43880426  1
  O  O382  1  0.80817232  0.91677568  0.68736200  1
  O  O383  1  0.80710422  0.91703600  0.93891009  1
  O  O384  1  0.23411205  0.25034658  0.03784318  1
  O  O385  1  0.23166586  0.24995944  0.29005590  1
  O  O386  1  0.23264776  0.24949390  0.54056400  1
  O  O387  1  0.23375513  0.24940357  0.79051162  1
  O  O388  1  0.23433044  0.58316319  0.04063589  1
  O  O389  1  0.23260782  0.58281992  0.28977253  1
  O  O390  1  0.23420579  0.58345769  0.54088959  1
  O  O391  1  0.23497711  0.58394021  0.78822781  1
  O  O392  1  0.23298870  0.91660828  0.03819690  1
  O  O393  1  0.23403360  0.91724098  0.29042274  1
  O  O394  1  0.23427275  0.91668676  0.54048265  1
  O  O395  1  0.23429475  0.91726860  0.78789406  1
  O  O396  1  0.73601018  0.24967507  0.03893862  1
  O  O397  1  0.73569094  0.24936118  0.28825349  1
  O  O398  1  0.73623584  0.24967842  0.53734195  1
  O  O399  1  0.73419082  0.24982358  0.78861087  1
  O  O400  1  0.73249365  0.58378918  0.03782833  1
  O  O401  1  0.73432337  0.58391355  0.29089065  1
  O  O402  1  0.73446540  0.58354150  0.53722942  1
  O  O403  1  0.73245418  0.58280343  0.79041324  1
  O  O404  1  0.73446444  0.91679478  0.04085295  1
  O  O405  1  0.73488685  0.91670023  0.28765182  1
  O  O406  1  0.73257309  0.91684701  0.54031641  1
  O  O407  1  0.73425183  0.91783704  0.78866220  1
  O  O408  1  0.26565084  0.08350899  0.21143321  1
  O  O409  1  0.26430003  0.08347059  0.46230692  1
  O  O410  1  0.26589503  0.08267571  0.71226958  1
  O  O411  1  0.26399229  0.08312820  0.96158198  1
  O  O412  1  0.26664109  0.41610470  0.21267677  1
  O  O413  1  0.26425545  0.41653232  0.46220289  1
  O  O414  1  0.26430373  0.41596014  0.71208193  1
  O  O415  1  0.26744108  0.41701610  0.95932525  1
  O  O416  1  0.26750987  0.74995303  0.21279770  1
  O  O417  1  0.26604565  0.75013632  0.45932302  1
  O  O418  1  0.26855441  0.75101815  0.71075298  1
  O  O419  1  0.26869610  0.75039383  0.96028960  1
  O  O420  1  0.76564983  0.08337697  0.21170543  1
  O  O421  1  0.76700803  0.08276337  0.46163573  1
  O  O422  1  0.76766571  0.08406861  0.71030770  1
  O  O423  1  0.76782216  0.08344718  0.96247345  1
  O  O424  1  0.76518928  0.41726371  0.21117098  1
  O  O425  1  0.76630839  0.41625895  0.45888625  1
  O  O426  1  0.76862432  0.41636221  0.71002768  1
  O  O427  1  0.76541782  0.41628876  0.96233087  1
  O  O428  1  0.76647568  0.74955079  0.21151919  1
  O  O429  1  0.76547126  0.75115220  0.45968854  1
  O  O430  1  0.76483106  0.74920676  0.71209713  1
  O  O431  1  0.76418117  0.75062815  0.96112150  1
  O  O432  1  0.01709064  0.08292526  0.16275585  1
  O  O433  1  0.01737094  0.08352629  0.41515447  1
  O  O434  1  0.01532774  0.08349621  0.66371304  1
  O  O435  1  0.01599917  0.08316190  0.91237732  1
  O  O436  1  0.01658824  0.41642664  0.16491765  1
  O  O437  1  0.01827228  0.41647269  0.41397339  1
  O  O438  1  0.01665979  0.41629896  0.66512922  1
  O  O439  1  0.01619289  0.41622687  0.91336237  1
  O  O440  1  0.01580191  0.75066408  0.16506370  1
  O  O441  1  0.01742739  0.74958586  0.41242925  1
  O  O442  1  0.01596299  0.75041322  0.66577956  1
  O  O443  1  0.01640803  0.74943014  0.91536061  1
  O  O444  1  0.51728792  0.08348346  0.16467721  1
  O  O445  1  0.51743744  0.08348918  0.41216567  1
  O  O446  1  0.51741943  0.08306906  0.66513708  1
  O  O447  1  0.51478199  0.08342638  0.91321463  1
  O  O448  1  0.51654881  0.41645102  0.16233274  1
  O  O449  1  0.51710502  0.41667579  0.41245956  1
  O  O450  1  0.51658762  0.41645420  0.66565071  1
  O  O451  1  0.51601667  0.41595113  0.91501518  1
  O  O452  1  0.51676971  0.75007920  0.16237048  1
  O  O453  1  0.51736579  0.75010374  0.41229831  1
  O  O454  1  0.51538640  0.75068529  0.66597741  1
  O  O455  1  0.51581878  0.75032828  0.91295421  1
  O  O456  1  0.48378994  0.24936420  0.08493473  1
  O  O457  1  0.48425542  0.25004336  0.33455936  1
  O  O458  1  0.48547636  0.24937549  0.58707991  1
  O  O459  1  0.48285007  0.24956438  0.83534617  1
  O  O460  1  0.48466676  0.58337199  0.08389160  1
  O  O461  1  0.48397743  0.58303697  0.33348817  1
  O  O462  1  0.48316423  0.58385856  0.58773683  1
  O  O463  1  0.48521107  0.58333678  0.83682300  1
  O  O464  1  0.48368715  0.91703639  0.08446091  1
  O  O465  1  0.48572578  0.91684655  0.33645414  1
  O  O466  1  0.48262271  0.91720734  0.58474478  1
  O  O467  1  0.48166596  0.91690377  0.83604360  1
  O  O468  1  0.98350770  0.24913182  0.08712390  1
  O  O469  1  0.98282240  0.24970564  0.33443276  1
  O  O470  1  0.98136174  0.24956607  0.58607514  1
  O  O471  1  0.98161660  0.25017399  0.83550068  1
  O  O472  1  0.98469110  0.58337688  0.08754676  1
  O  O473  1  0.98345455  0.58336510  0.33426379  1
  O  O474  1  0.98340571  0.58308544  0.58493911  1
  O  O475  1  0.98197113  0.58286778  0.83546962  1
  O  O476  1  0.98311025  0.91673966  0.08450803  1
  O  O477  1  0.98388012  0.91721343  0.33479151  1
  O  O478  1  0.98294905  0.91746341  0.58788257  1
  O  O479  1  0.98563780  0.91712502  0.83665957  1
  O  O480  1  0.08690310  0.31427916  0.07722904  1
  O  O481  1  0.08703753  0.31453958  0.32702616  1
  O  O482  1  0.08512105  0.31469520  0.57824195  1
  O  O483  1  0.08570876  0.31474750  0.82782412  1
  O  O484  1  0.08799132  0.64884108  0.07763408  1
  O  O485  1  0.08763974  0.64827528  0.32659834  1
  O  O486  1  0.08722715  0.64786520  0.57764638  1
  O  O487  1  0.08600694  0.64763042  0.82715109  1
  O  O488  1  0.08712636  0.98210778  0.07668155  1
  O  O489  1  0.08765966  0.98216821  0.32828085  1
  O  O490  1  0.08648627  0.98281862  0.57904065  1
  O  O491  1  0.08923599  0.98254273  0.82794710  1
  O  O492  1  0.58751654  0.31452922  0.07747117  1
  O  O493  1  0.58798815  0.31519236  0.32780937  1
  O  O494  1  0.58937259  0.31369524  0.57799657  1
  O  O495  1  0.58696370  0.31459491  0.82637765  1
  O  O496  1  0.58855428  0.64850679  0.07718782  1
  O  O497  1  0.58757511  0.64855177  0.32760373  1
  O  O498  1  0.58694698  0.64840121  0.57832094  1
  O  O499  1  0.58840754  0.64951813  0.82819486  1
  O  O500  1  0.58724875  0.98261734  0.07772106  1
  O  O501  1  0.58937983  0.98186486  0.32852920  1
  O  O502  1  0.58658308  0.98320276  0.57740323  1
  O  O503  1  0.58578104  0.98125548  0.82715997  1
  O  O504  1  0.41334516  0.01835259  0.17392648  1
  O  O505  1  0.41371939  0.01880533  0.42245898  1
  O  O506  1  0.41349554  0.01724981  0.67274905  1
  O  O507  1  0.41111494  0.01844776  0.92164127  1
  O  O508  1  0.41267909  0.35154378  0.17307205  1
  O  O509  1  0.41369509  0.35125310  0.42269524  1
  O  O510  1  0.41238777  0.35222125  0.67246341  1
  O  O511  1  0.41233784  0.35003624  0.92262443  1
  O  O512  1  0.41295070  0.68507227  0.17280227  1
  O  O513  1  0.41391207  0.68480242  0.42203961  1
  O  O514  1  0.41155886  0.68547410  0.67284405  1
  O  O515  1  0.41195907  0.68602859  0.92287352  1
  O  O516  1  0.91375255  0.01738302  0.17172751  1
  O  O517  1  0.91307394  0.01916697  0.42361919  1
  O  O518  1  0.91178585  0.01792024  0.67300458  1
  O  O519  1  0.91193440  0.01915739  0.92272396  1
  O  O520  1  0.91304791  0.35073401  0.17202826  1
  O  O521  1  0.91419994  0.35204332  0.42161030  1
  O  O522  1  0.91274246  0.35080760  0.67287529  1
  O  O523  1  0.91213180  0.35195123  0.92167957  1
  O  O524  1  0.91146398  0.68645921  0.17337483  1
  O  O525  1  0.91396415  0.68382600  0.42161139  1
  O  O526  1  0.91175133  0.68620368  0.67238914  1
  O  O527  1  0.91274071  0.68363610  0.92245295  1
  O  O528  1  0.16139057  0.01957580  0.20200702  1
  O  O529  1  0.16081352  0.01812353  0.45267182  1
  O  O530  1  0.16205278  0.01741150  0.70302221  1
  O  O531  1  0.16071934  0.01705455  0.95261762  1
  O  O532  1  0.16297694  0.35118627  0.20313381  1
  O  O533  1  0.16052772  0.35149528  0.45245117  1
  O  O534  1  0.16036738  0.35136319  0.70245825  1
  O  O535  1  0.16321420  0.35201807  0.95094300  1
  O  O536  1  0.16413883  0.68417685  0.20292131  1
  O  O537  1  0.16203471  0.68519810  0.45179565  1
  O  O538  1  0.16461172  0.68627114  0.70206504  1
  O  O539  1  0.16496470  0.68559665  0.95184369  1
  O  O540  1  0.66174886  0.01869212  0.20183074  1
  O  O541  1  0.66332890  0.01702735  0.45265297  1
  O  O542  1  0.66317906  0.01996192  0.70158362  1
  O  O543  1  0.66423579  0.01833605  0.95227386  1
  O  O544  1  0.66185602  0.35146218  0.20172524  1
  O  O545  1  0.66230594  0.35143981  0.45141118  1
  O  O546  1  0.66494767  0.35110440  0.70241426  1
  O  O547  1  0.66203422  0.35174437  0.95265053  1
  O  O548  1  0.66241417  0.68493165  0.20192815  1
  O  O549  1  0.66137196  0.68655254  0.45166946  1
  O  O550  1  0.66143457  0.68380970  0.70413245  1
  O  O551  1  0.66073319  0.68449122  0.95282987  1
  O  O552  1  0.33732791  0.31635027  0.04655858  1
  O  O553  1  0.33586983  0.31449367  0.29767176  1
  O  O554  1  0.33629797  0.31493093  0.54805648  1
  O  O555  1  0.33835875  0.31314440  0.79803538  1
  O  O556  1  0.33818495  0.64810834  0.04697786  1
  O  O557  1  0.33652411  0.64791728  0.29753419  1
  O  O558  1  0.33853139  0.64803100  0.54784584  1
  O  O559  1  0.33868173  0.64912390  0.79631362  1
  O  O560  1  0.33651346  0.98143121  0.04747564  1
  O  O561  1  0.33744176  0.98300581  0.29716362  1
  O  O562  1  0.33787417  0.98219695  0.54862164  1
  O  O563  1  0.33778237  0.98258848  0.79764352  1
  O  O564  1  0.84015629  0.31365407  0.04804023  1
  O  O565  1  0.83913184  0.31492462  0.29756318  1
  O  O566  1  0.84023928  0.31365562  0.54717714  1
  O  O567  1  0.83786910  0.31512359  0.79743770  1
  O  O568  1  0.83617137  0.64859354  0.04745968  1
  O  O569  1  0.83804352  0.64979101  0.29769540  1
  O  O570  1  0.83771700  0.64879397  0.54684826  1
  O  O571  1  0.83673586  0.64699716  0.79902931  1
  O  O572  1  0.83816463  0.98274463  0.04808827  1
  O  O573  1  0.83865040  0.98065809  0.29729268  1
  O  O574  1  0.83658464  0.98248288  0.54794079  1
  O  O575  1  0.83803067  0.98280773  0.79652429  1
  O  O576  1  0.41308607  0.14824134  0.17405292  1
  O  O577  1  0.41400698  0.14884413  0.42285548  1
  O  O578  1  0.41279075  0.14711211  0.67337287  1
  O  O579  1  0.41129962  0.14872616  0.92151185  1
  O  O580  1  0.41281826  0.48148796  0.17296700  1
  O  O581  1  0.41328377  0.48135006  0.42219211  1
  O  O582  1  0.41311031  0.48240627  0.67255349  1
  O  O583  1  0.41186089  0.48020730  0.92339036  1
  O  O584  1  0.41291763  0.81504650  0.17282466  1
  O  O585  1  0.41370485  0.81488063  0.42197100  1
  O  O586  1  0.41145642  0.81571802  0.67229734  1
  O  O587  1  0.41228060  0.81620466  0.92250509  1
  O  O588  1  0.91326234  0.14747040  0.17158998  1
  O  O589  1  0.91341026  0.14906290  0.42244136  1
  O  O590  1  0.91123069  0.14797821  0.67214887  1
  O  O591  1  0.91260187  0.14922119  0.92223059  1
  O  O592  1  0.91261394  0.48095617  0.17257131  1
  O  O593  1  0.91477115  0.48225556  0.42199198  1
  O  O594  1  0.91244128  0.48078963  0.67344747  1
  O  O595  1  0.91289349  0.48223166  0.92227910  1
  O  O596  1  0.91221748  0.81659603  0.17250117  1
  O  O597  1  0.91362720  0.81398857  0.42234447  1
  O  O598  1  0.91246936  0.81641857  0.67253625  1
  O  O599  1  0.91245148  0.81396584  0.92264438  1
  O  O600  1  0.08715526  0.18417595  0.07786912  1
  O  O601  1  0.08674663  0.18443180  0.32722945  1
  O  O602  1  0.08512193  0.18453961  0.57815364  1
  O  O603  1  0.08514588  0.18461021  0.82730515  1
  O  O604  1  0.08832705  0.51857266  0.07781596  1
  O  O605  1  0.08747289  0.51818879  0.32694637  1
  O  O606  1  0.08694751  0.51751532  0.57838669  1
  O  O607  1  0.08582016  0.51747835  0.82797086  1
  O  O608  1  0.08730640  0.85214205  0.07620120  1
  O  O609  1  0.08754962  0.85187052  0.32756625  1
  O  O610  1  0.08660746  0.85268610  0.57825606  1
  O  O611  1  0.08962331  0.85242103  0.82691407  1
  O  O612  1  0.58752300  0.18414289  0.07759812  1
  O  O613  1  0.58816570  0.18498204  0.32780956  1
  O  O614  1  0.58877744  0.18347174  0.57868984  1
  O  O615  1  0.58707888  0.18469729  0.82650072  1
  O  O616  1  0.58861677  0.51822706  0.07719630  1
  O  O617  1  0.58793001  0.51828622  0.32792826  1
  O  O618  1  0.58666376  0.51832868  0.57773670  1
  O  O619  1  0.58937259  0.51938421  0.82722954  1
  O  O620  1  0.58752947  0.85218564  0.07789368  1
  O  O621  1  0.58915357  0.85156092  0.32841309  1
  O  O622  1  0.58710984  0.85324553  0.57696686  1
  O  O623  1  0.58527061  0.85121156  0.82741823  1
  O  O624  1  0.33775304  0.18605627  0.04730207  1
  O  O625  1  0.33521099  0.18420910  0.29770812  1
  O  O626  1  0.33667483  0.18487105  0.54799391  1
  O  O627  1  0.33722273  0.18306478  0.79774026  1
  O  O628  1  0.33785057  0.51766846  0.04705815  1
  O  O629  1  0.33627091  0.51755353  0.29770482  1
  O  O630  1  0.33800265  0.51800190  0.54851830  1
  O  O631  1  0.33843859  0.51891674  0.79708377  1
  O  O632  1  0.33677245  0.85129754  0.04678530  1
  O  O633  1  0.33816375  0.85252954  0.29687391  1
  O  O634  1  0.33860102  0.85228307  0.54776277  1
  O  O635  1  0.33825810  0.85245795  0.79732575  1
  O  O636  1  0.83947728  0.18360912  0.04746128  1
  O  O637  1  0.83966200  0.18490952  0.29759215  1
  O  O638  1  0.83935636  0.18350401  0.54645977  1
  O  O639  1  0.83812449  0.18495247  0.79711344  1
  O  O640  1  0.83596796  0.51855340  0.04796411  1
  O  O641  1  0.83867639  0.51977203  0.29829644  1
  O  O642  1  0.83793816  0.51848906  0.54672717  1
  O  O643  1  0.83624344  0.51697050  0.79828488  1
  O  O644  1  0.83876987  0.85277836  0.04814830  1
  O  O645  1  0.83779739  0.85036381  0.29680468  1
  O  O646  1  0.83693500  0.85256278  0.54846638  1
  O  O647  1  0.83767397  0.85260219  0.79750906  1
  O  O648  1  0.16220539  0.14968501  0.20250254  1
  O  O649  1  0.16034471  0.14801177  0.45255399  1
  O  O650  1  0.16190923  0.14736387  0.70203495  1
  O  O651  1  0.15989147  0.14715071  0.95176846  1
  O  O652  1  0.16320914  0.48149138  0.20323288  1
  O  O653  1  0.16062454  0.48143931  0.45262464  1
  O  O654  1  0.16078051  0.48145694  0.70243783  1
  O  O655  1  0.16326712  0.48190397  0.95133504  1
  O  O656  1  0.16379776  0.81439908  0.20255527  1
  O  O657  1  0.16204741  0.81518855  0.45170793  1
  O  O658  1  0.16483542  0.81642111  0.70245196  1
  O  O659  1  0.16483043  0.81568687  0.95233207  1
  O  O660  1  0.66201599  0.14846913  0.20161874  1
  O  O661  1  0.66305900  0.14707319  0.45179545  1
  O  O662  1  0.66408185  0.14991175  0.70189669  1
  O  O663  1  0.66422617  0.14832086  0.95229111  1
  O  O664  1  0.66098238  0.48141647  0.20222290  1
  O  O665  1  0.66224754  0.48143599  0.45145153  1
  O  O666  1  0.66465741  0.48138815  0.70268911  1
  O  O667  1  0.66207087  0.48194402  0.95336693  1
  O  O668  1  0.66276486  0.81475904  0.20155821  1
  O  O669  1  0.66176580  0.81669571  0.45276489  1
  O  O670  1  0.66142440  0.81427937  0.70316219  1
  O  O671  1  0.66001588  0.81455929  0.95206016  1
