# generated using pymatgen
data_Na2MnFe(PO4)2
_symmetry_space_group_name_H-M   'P 1'
_cell_length_a   21.08669492
_cell_length_b   18.93955143
_cell_length_c   20.04571705
_cell_angle_alpha   90.00053364
_cell_angle_beta   89.99582021
_cell_angle_gamma   89.99772357
_symmetry_Int_Tables_number   1
_chemical_formula_structural   Na2MnFe(PO4)2
_chemical_formula_sum   'Na96 Mn48 Fe48 P96 O384'
_cell_volume   8005.70896909
_cell_formula_units_Z   48
loop_
 _symmetry_equiv_pos_site_id
 _symmetry_equiv_pos_as_xyz
  1  'x, y, z'
loop_
 _atom_site_type_symbol
 _atom_site_label
 _atom_site_symmetry_multiplicity
 _atom_site_fract_x
 _atom_site_fract_y
 _atom_site_fract_z
 _atom_site_occupancy
  Na  Na0  1  0.00013792  0.00016394  -0.00023207  1
  Na  Na1  1  -0.00066835  -0.00049686  0.25120049  1
  Na  Na2  1  -0.00110404  -0.00041069  0.50002944  1
  Na  Na3  1  -0.00005357  0.00051703  0.74950944  1
  Na  Na4  1  -0.00259354  0.33311711  -0.00142027  1
  Na  Na5  1  -0.00241941  0.33284218  0.25020990  1
  Na  Na6  1  -0.00335077  0.33235472  0.50092138  1
  Na  Na7  1  -0.00329948  0.33254839  0.74917550  1
  Na  Na8  1  -0.00000498  0.66664955  -0.00021399  1
  Na  Na9  1  -0.00005750  0.66615629  0.25027850  1
  Na  Na10  1  0.00112401  0.66587205  0.50093935  1
  Na  Na11  1  0.00069031  0.66608338  0.74939919  1
  Na  Na12  1  0.49997461  0.00010282  -0.00109682  1
  Na  Na13  1  0.50025972  0.00061904  0.25035575  1
  Na  Na14  1  0.49663388  -0.00106113  0.50029528  1
  Na  Na15  1  0.49819660  0.00003139  0.74988525  1
  Na  Na16  1  0.50265625  0.33405598  -0.00021323  1
  Na  Na17  1  0.50209761  0.33344410  0.25117516  1
  Na  Na18  1  0.50148306  0.33330158  0.50111567  1
  Na  Na19  1  0.50129580  0.33376137  0.74859025  1
  Na  Na20  1  0.49887074  0.66636096  -0.00048060  1
  Na  Na21  1  0.49801537  0.66650714  0.25070312  1
  Na  Na22  1  0.49830053  0.66634447  0.50012058  1
  Na  Na23  1  0.49977634  0.66649037  0.74936256  1
  Na  Na24  1  0.24836633  -0.00085341  0.12403792  1
  Na  Na25  1  0.24993831  0.00028428  0.37596200  1
  Na  Na26  1  0.25032249  0.00060002  0.62569452  1
  Na  Na27  1  0.25102072  0.00077332  0.87388200  1
  Na  Na28  1  0.24963744  0.33266422  0.12440108  1
  Na  Na29  1  0.25078676  0.33378455  0.37510871  1
  Na  Na30  1  0.25248818  0.33448030  0.62544008  1
  Na  Na31  1  0.25242004  0.33385659  0.87525941  1
  Na  Na32  1  0.25027361  0.66713030  0.12457333  1
  Na  Na33  1  0.24859443  0.66630045  0.37416354  1
  Na  Na34  1  0.25082506  0.66664795  0.62631518  1
  Na  Na35  1  0.25051043  0.66611572  0.87581343  1
  Na  Na36  1  0.75042086  -0.00071342  0.12557706  1
  Na  Na37  1  0.75293017  0.00075054  0.37573257  1
  Na  Na38  1  0.75202975  0.00042962  0.62455756  1
  Na  Na39  1  0.75082163  0.00003141  0.87480513  1
  Na  Na40  1  0.74887274  0.33286734  0.12399410  1
  Na  Na41  1  0.74975549  0.33310634  0.37535546  1
  Na  Na42  1  0.74942862  0.33301812  0.62560864  1
  Na  Na43  1  0.75019607  0.33383275  0.87487418  1
  Na  Na44  1  0.75185724  0.66723585  0.12467142  1
  Na  Na45  1  0.75073375  0.66620656  0.37516259  1
  Na  Na46  1  0.75056047  0.66638707  0.62522458  1
  Na  Na47  1  0.75001300  0.66632062  0.87407850  1
  Na  Na48  1  -0.00107697  0.16682577  -0.00096854  1
  Na  Na49  1  -0.00257461  0.16764546  0.25029218  1
  Na  Na50  1  -0.00243377  0.16716943  0.50047412  1
  Na  Na51  1  -0.00096396  0.16634473  0.74910313  1
  Na  Na52  1  -0.00206715  0.50080114  -0.00156465  1
  Na  Na53  1  -0.00183818  0.50042423  0.25138295  1
  Na  Na54  1  -0.00190910  0.50075141  0.50136016  1
  Na  Na55  1  -0.00111336  0.50022342  0.74907856  1
  Na  Na56  1  -0.00021641  0.83322341  0.00059382  1
  Na  Na57  1  0.00125644  0.83326591  0.25004027  1
  Na  Na58  1  0.00161375  0.83361219  0.50015837  1
  Na  Na59  1  0.00033400  0.83341158  0.74989918  1
  Na  Na60  1  0.50067096  0.16682300  -0.00016434  1
  Na  Na61  1  0.50186197  0.16655373  0.25128998  1
  Na  Na62  1  0.50105531  0.16657629  0.50084748  1
  Na  Na63  1  0.50035677  0.16672618  0.74884891  1
  Na  Na64  1  0.50083228  0.49992990  -0.00129128  1
  Na  Na65  1  0.50037452  0.49997057  0.25078992  1
  Na  Na66  1  0.49859059  0.50066421  0.50092787  1
  Na  Na67  1  0.50069287  0.49956821  0.74927156  1
  Na  Na68  1  0.50037706  0.83244216  -0.00024460  1
  Na  Na69  1  0.49714805  0.83433348  0.24998826  1
  Na  Na70  1  0.49774122  0.83347839  0.49989187  1
  Na  Na71  1  0.49728318  0.83427088  0.74945027  1
  Na  Na72  1  0.24962306  0.16654526  0.12425668  1
  Na  Na73  1  0.25077439  0.16580637  0.37598512  1
  Na  Na74  1  0.25091956  0.16621844  0.62594084  1
  Na  Na75  1  0.25091878  0.16680451  0.87490474  1
  Na  Na76  1  0.25076707  0.49987684  0.12436839  1
  Na  Na77  1  0.25040337  0.50013152  0.37392076  1
  Na  Na78  1  0.25083811  0.50012063  0.62567414  1
  Na  Na79  1  0.25167976  0.50011375  0.87513003  1
  Na  Na80  1  0.24877564  0.83324122  0.12425182  1
  Na  Na81  1  0.24800370  0.83381342  0.37543248  1
  Na  Na82  1  0.25130338  0.83275705  0.62599462  1
  Na  Na83  1  0.25037139  0.83327838  0.87505768  1
  Na  Na84  1  0.74930645  0.16722222  0.12435187  1
  Na  Na85  1  0.74958573  0.16690223  0.37529468  1
  Na  Na86  1  0.74949310  0.16681581  0.62426442  1
  Na  Na87  1  0.75041774  0.16656117  0.87509110  1
  Na  Na88  1  0.75025044  0.50081566  0.12437422  1
  Na  Na89  1  0.75271514  0.49939367  0.37582092  1
  Na  Na90  1  0.75206253  0.49935537  0.62561212  1
  Na  Na91  1  0.74974063  0.50053284  0.87522653  1
  Na  Na92  1  0.75169278  0.83268950  0.12542738  1
  Na  Na93  1  0.75119078  0.83370087  0.37517917  1
  Na  Na94  1  0.75123873  0.83305411  0.62536695  1
  Na  Na95  1  0.75045927  0.83335383  0.87361446  1
  Mn  Mn96  1  0.60856390  0.41735253  0.37356990  1
  Mn  Mn97  1  0.60676395  0.75045887  0.62236819  1
  Mn  Mn98  1  0.39129056  0.58327290  0.37757115  1
  Mn  Mn99  1  0.14314637  0.91657233  0.74796098  1
  Mn  Mn100  1  0.35794519  0.08349408  0.00207572  1
  Mn  Mn101  1  0.35798955  0.08261290  0.25193364  1
  Mn  Mn102  1  0.10714896  0.08383239  0.37333802  1
  Mn  Mn103  1  0.60765558  0.75000247  0.12294019  1
  Mn  Mn104  1  0.10705129  0.41634759  0.37368719  1
  Mn  Mn105  1  0.64219333  0.91679759  0.49792784  1
  Mn  Mn106  1  0.14182481  0.25064889  0.49814273  1
  Mn  Mn107  1  0.35788549  0.75009248  0.00183419  1
  Mn  Mn108  1  0.60715876  0.75052640  0.37290607  1
  Mn  Mn109  1  0.64286423  0.58340104  0.49839348  1
  Mn  Mn110  1  0.64226843  0.58458359  0.99779919  1
  Mn  Mn111  1  0.85915233  0.75002704  0.25284775  1
  Mn  Mn112  1  0.10844023  0.75045581  0.62321704  1
  Mn  Mn113  1  0.85827457  0.08238889  0.00243219  1
  Mn  Mn114  1  0.85736717  0.41742883  0.00214142  1
  Mn  Mn115  1  0.39320116  0.25002632  0.62721124  1
  Mn  Mn116  1  0.85791244  0.74971753  0.75256814  1
  Mn  Mn117  1  0.60764878  0.08295935  0.87175195  1
  Mn  Mn118  1  0.39265372  0.24971308  0.37744931  1
  Mn  Mn119  1  0.10696328  0.41664291  0.12262549  1
  Mn  Mn120  1  0.39195084  0.91656730  0.12777455  1
  Mn  Mn121  1  0.14166400  0.58318494  0.24722927  1
  Mn  Mn122  1  0.64230885  0.24973268  0.99720625  1
  Mn  Mn123  1  0.64191023  0.91709567  0.74698737  1
  Mn  Mn124  1  0.14255555  0.25104472  0.74811514  1
  Mn  Mn125  1  0.35844533  0.41639016  0.25205255  1
  Mn  Mn126  1  0.14104769  0.24964677  0.24813434  1
  Mn  Mn127  1  0.85746314  0.41658764  0.25204988  1
  Mn  Mn128  1  0.10737198  0.41570623  0.62321635  1
  Mn  Mn129  1  0.35645375  0.74973800  0.50215637  1
  Mn  Mn130  1  0.60779370  0.08224806  0.37369359  1
  Mn  Mn131  1  0.64253376  0.58343128  0.24774702  1
  Mn  Mn132  1  0.85749831  0.08338887  0.25209633  1
  Mn  Mn133  1  0.14135155  0.25024591  0.99725665  1
  Mn  Mn134  1  0.35919987  0.41637099  0.00231086  1
  Mn  Mn135  1  0.14149061  0.91700117  0.99732049  1
  Mn  Mn136  1  0.10724214  0.41663469  0.87199021  1
  Mn  Mn137  1  0.64261016  0.91587346  0.99806098  1
  Mn  Mn138  1  0.85902793  0.75004418  0.50248157  1
  Mn  Mn139  1  0.14203327  0.58256877  0.99770047  1
  Mn  Mn140  1  0.39317304  0.25034628  0.12767033  1
  Mn  Mn141  1  0.10708509  0.08393071  0.12294741  1
  Mn  Mn142  1  0.89257780  0.91603587  0.87722985  1
  Mn  Mn143  1  0.64215779  0.91661176  0.24825808  1
  Fe  Fe144  1  0.60721268  0.08288570  0.62317552  1
  Fe  Fe145  1  0.14281200  0.91673561  0.49869386  1
  Fe  Fe146  1  0.39296007  0.91660658  0.87671480  1
  Fe  Fe147  1  0.89178842  0.25012210  0.12680640  1
  Fe  Fe148  1  0.14277343  0.58288480  0.49903229  1
  Fe  Fe149  1  0.60790634  0.08313304  0.12338103  1
  Fe  Fe150  1  0.60739406  0.74973865  0.87305403  1
  Fe  Fe151  1  0.89320886  0.91642997  0.12721450  1
  Fe  Fe152  1  0.85608609  0.41639493  0.75172024  1
  Fe  Fe153  1  0.35856951  0.41660011  0.75195248  1
  Fe  Fe154  1  0.85716026  0.08374293  0.75125185  1
  Fe  Fe155  1  0.85812790  0.75010146  0.00132722  1
  Fe  Fe156  1  0.35598503  0.75057473  0.25138059  1
  Fe  Fe157  1  0.60771189  0.41709789  0.12351070  1
  Fe  Fe158  1  0.85738644  0.41626736  0.50242569  1
  Fe  Fe159  1  0.35757841  0.08396976  0.75198067  1
  Fe  Fe160  1  0.64305277  0.24997324  0.74842624  1
  Fe  Fe161  1  0.39199238  0.58330379  0.62724095  1
  Fe  Fe162  1  0.39158179  0.91653334  0.62658283  1
  Fe  Fe163  1  0.39090283  0.91691052  0.37689507  1
  Fe  Fe164  1  0.35767915  0.41643403  0.50176358  1
  Fe  Fe165  1  0.85753105  0.08357940  0.50245264  1
  Fe  Fe166  1  0.35756191  0.74948834  0.75265254  1
  Fe  Fe167  1  0.89311988  0.58374127  0.62761135  1
  Fe  Fe168  1  0.89267767  0.58365447  0.87601155  1
  Fe  Fe169  1  0.64264475  0.58303928  0.74790106  1
  Fe  Fe170  1  0.89337789  0.91661085  0.62628722  1
  Fe  Fe171  1  0.35698635  0.08386385  0.50240489  1
  Fe  Fe172  1  0.10736001  0.74968662  0.37334136  1
  Fe  Fe173  1  0.39381731  0.25023058  0.87635050  1
  Fe  Fe174  1  0.60744564  0.41720917  0.87244716  1
  Fe  Fe175  1  0.60752420  0.41692027  0.62307298  1
  Fe  Fe176  1  0.89270331  0.58352155  0.12682417  1
  Fe  Fe177  1  0.64305192  0.25000146  0.24824163  1
  Fe  Fe178  1  0.39295079  0.58294529  0.12649071  1
  Fe  Fe179  1  0.39371902  0.58310394  0.87618126  1
  Fe  Fe180  1  0.89319410  0.58356253  0.37765989  1
  Fe  Fe181  1  0.10679520  0.08376200  0.62347332  1
  Fe  Fe182  1  0.14222619  0.91700806  0.24862851  1
  Fe  Fe183  1  0.10695198  0.08358022  0.87270187  1
  Fe  Fe184  1  0.14365382  0.58281558  0.74904522  1
  Fe  Fe185  1  0.89149391  0.24958254  0.62744369  1
  Fe  Fe186  1  0.89096134  0.25003307  0.37712716  1
  Fe  Fe187  1  0.89368991  0.91636997  0.37740617  1
  Fe  Fe188  1  0.64403115  0.24983244  0.49879934  1
  Fe  Fe189  1  0.10720320  0.74977073  0.87351492  1
  Fe  Fe190  1  0.10664391  0.74959403  0.12322026  1
  Fe  Fe191  1  0.89211235  0.24996995  0.87593543  1
  P  P192  1  0.05090867  0.25027818  0.10955714  1
  P  P193  1  0.05077221  0.25019044  0.36065415  1
  P  P194  1  0.05151643  0.24943473  0.61048841  1
  P  P195  1  0.05146113  0.24968167  0.85921883  1
  P  P196  1  0.05174195  0.58349719  0.10988588  1
  P  P197  1  0.05365366  0.58336267  0.36195203  1
  P  P198  1  0.05462961  0.58270741  0.61140919  1
  P  P199  1  0.05283230  0.58383953  0.85911781  1
  P  P200  1  0.05335874  0.91619345  0.11147892  1
  P  P201  1  0.05449002  0.91627353  0.36134502  1
  P  P202  1  0.05349343  0.91782038  0.61001227  1
  P  P203  1  0.05350395  0.91648345  0.85976999  1
  P  P204  1  0.55547092  0.24994563  0.11139366  1
  P  P205  1  0.55611677  0.24982737  0.36151493  1
  P  P206  1  0.55653123  0.24987700  0.61105252  1
  P  P207  1  0.55338966  0.25058903  0.85880870  1
  P  P208  1  0.55231536  0.58306997  0.10998431  1
  P  P209  1  0.55320008  0.58360341  0.36041960  1
  P  P210  1  0.55310478  0.58266950  0.61126686  1
  P  P211  1  0.55338920  0.58366718  0.85916699  1
  P  P212  1  0.55317356  0.91727555  0.10989597  1
  P  P213  1  0.55112101  0.91669231  0.36025576  1
  P  P214  1  0.55138994  0.91751544  0.60996389  1
  P  P215  1  0.55234290  0.91560853  0.85971104  1
  P  P216  1  0.44848655  0.08370562  0.14010573  1
  P  P217  1  0.44558248  0.08277456  0.39117267  1
  P  P218  1  0.44570653  0.08299735  0.63925937  1
  P  P219  1  0.44553303  0.08389665  0.88831889  1
  P  P220  1  0.44877863  0.41724181  0.14006960  1
  P  P221  1  0.44652413  0.41631343  0.39144216  1
  P  P222  1  0.44605498  0.41713941  0.63920823  1
  P  P223  1  0.44726135  0.41645543  0.88801887  1
  P  P224  1  0.44563663  0.74903290  0.14055524  1
  P  P225  1  0.44433991  0.75102271  0.38899509  1
  P  P226  1  0.44476928  0.74979014  0.64027526  1
  P  P227  1  0.44652572  0.74963372  0.88833774  1
  P  P228  1  0.94627523  0.08320309  0.14010590  1
  P  P229  1  0.94528260  0.08342029  0.39076060  1
  P  P230  1  0.94546603  0.08310144  0.63915497  1
  P  P231  1  0.94616817  0.08388731  0.88816789  1
  P  P232  1  0.94597513  0.41700495  0.13972669  1
  P  P233  1  0.94520292  0.41655537  0.39115101  1
  P  P234  1  0.94387235  0.41657891  0.63955413  1
  P  P235  1  0.94429697  0.41694523  0.88764528  1
  P  P236  1  0.94669449  0.74985138  0.13889754  1
  P  P237  1  0.94863353  0.75003966  0.39035257  1
  P  P238  1  0.94710976  0.75016094  0.64013215  1
  P  P239  1  0.94743694  0.74892658  0.89010047  1
  P  P240  1  0.19640048  0.08242423  0.23510899  1
  P  P241  1  0.19609370  0.08304116  0.48699516  1
  P  P242  1  0.19596163  0.08386972  0.73573782  1
  P  P243  1  0.19551886  0.08351370  0.98357766  1
  P  P244  1  0.19657828  0.41643971  0.23461250  1
  P  P245  1  0.19791203  0.41752383  0.48546440  1
  P  P246  1  0.19844783  0.41734545  0.73541822  1
  P  P247  1  0.19695647  0.41664737  0.98433438  1
  P  P248  1  0.19498056  0.75092711  0.23539477  1
  P  P249  1  0.19544429  0.74966372  0.48507426  1
  P  P250  1  0.19699137  0.74897679  0.73704922  1
  P  P251  1  0.19447755  0.74968117  0.98522685  1
  P  P252  1  0.69611528  0.08374847  0.23477108  1
  P  P253  1  0.69701049  0.08347328  0.48655258  1
  P  P254  1  0.69725482  0.08405670  0.73411705  1
  P  P255  1  0.69589596  0.08269063  0.98552299  1
  P  P256  1  0.69637018  0.41627996  0.23442592  1
  P  P257  1  0.69720541  0.41631806  0.48690725  1
  P  P258  1  0.69535531  0.41692474  0.73589716  1
  P  P259  1  0.69452211  0.41729931  0.98502117  1
  P  P260  1  0.69742487  0.75001651  0.23499559  1
  P  P261  1  0.69721403  0.75011588  0.48497670  1
  P  P262  1  0.69515360  0.74915600  0.73570883  1
  P  P263  1  0.69789821  0.75020208  0.98389765  1
  P  P264  1  0.30473461  0.24998354  0.01405703  1
  P  P265  1  0.30299686  0.24952860  0.26531573  1
  P  P266  1  0.30352552  0.25003764  0.51543669  1
  P  P267  1  0.30476561  0.25022207  0.76548054  1
  P  P268  1  0.30562082  0.58325375  0.01441383  1
  P  P269  1  0.30428273  0.58427411  0.26325674  1
  P  P270  1  0.30252852  0.58275160  0.51580178  1
  P  P271  1  0.30485594  0.58313563  0.76481706  1
  P  P272  1  0.30425762  0.91664949  0.01376139  1
  P  P273  1  0.30196575  0.91575854  0.26542131  1
  P  P274  1  0.30323270  0.91732859  0.51484167  1
  P  P275  1  0.30581837  0.91681685  0.76434996  1
  P  P276  1  0.80513467  0.25002003  0.01406462  1
  P  P277  1  0.80342002  0.25004916  0.26451830  1
  P  P278  1  0.80434025  0.24995224  0.51476200  1
  P  P279  1  0.80358490  0.24980022  0.76399002  1
  P  P280  1  0.80523445  0.58472257  0.01397747  1
  P  P281  1  0.80546091  0.58346084  0.26494031  1
  P  P282  1  0.80586162  0.58288702  0.51511987  1
  P  P283  1  0.80382884  0.58246910  0.76430932  1
  P  P284  1  0.80453177  0.91536361  0.01559336  1
  P  P285  1  0.80554092  0.91652082  0.26514100  1
  P  P286  1  0.80563643  0.91704794  0.51474465  1
  P  P287  1  0.80474798  0.91764133  0.76344077  1
  O  O288  1  0.05480739  0.25025974  0.18627268  1
  O  O289  1  0.05530197  0.25021002  0.43731073  1
  O  O290  1  0.05616929  0.25025047  0.68706858  1
  O  O291  1  0.05507449  0.25039712  0.93590279  1
  O  O292  1  0.05533031  0.58280096  0.18663080  1
  O  O293  1  0.05862966  0.58257055  0.43860849  1
  O  O294  1  0.06006023  0.58248536  0.68801130  1
  O  O295  1  0.05634728  0.58289132  0.93582199  1
  O  O296  1  0.05780942  0.91682416  0.18815615  1
  O  O297  1  0.05926050  0.91713529  0.43803625  1
  O  O298  1  0.05735603  0.91726229  0.68668944  1
  O  O299  1  0.05574734  0.91664355  0.93658777  1
  O  O300  1  0.55893702  0.24990750  0.18820272  1
  O  O301  1  0.56054883  0.24991023  0.43831903  1
  O  O302  1  0.56020478  0.24982475  0.68782311  1
  O  O303  1  0.55680716  0.24982052  0.93556325  1
  O  O304  1  0.55587371  0.58374259  0.18666616  1
  O  O305  1  0.55680841  0.58370158  0.43719688  1
  O  O306  1  0.55826955  0.58288788  0.68786543  1
  O  O307  1  0.55669139  0.58397680  0.93586574  1
  O  O308  1  0.55615896  0.91678204  0.18665976  1
  O  O309  1  0.55549279  0.91650345  0.43692979  1
  O  O310  1  0.55549721  0.91732183  0.68661532  1
  O  O311  1  0.55646273  0.91599812  0.93634778  1
  O  O312  1  0.44444302  0.08370238  0.06339676  1
  O  O313  1  0.44304442  0.08372387  0.31436463  1
  O  O314  1  0.44082795  0.08376859  0.56258665  1
  O  O315  1  0.44171268  0.08407027  0.81153518  1
  O  O316  1  0.44543656  0.41648083  0.06330920  1
  O  O317  1  0.44348561  0.41611242  0.31463757  1
  O  O318  1  0.44105247  0.41666147  0.56257696  1
  O  O319  1  0.44271985  0.41638599  0.81132485  1
  O  O320  1  0.44314871  0.75012520  0.06371885  1
  O  O321  1  0.44011999  0.75060196  0.31231973  1
  O  O322  1  0.44178894  0.74956070  0.56347802  1
  O  O323  1  0.44194411  0.74966047  0.81166585  1
  O  O324  1  0.94410707  0.08289826  0.06327305  1
  O  O325  1  0.94267559  0.08370106  0.31399338  1
  O  O326  1  0.94110201  0.08346931  0.56245567  1
  O  O327  1  0.94138624  0.08349398  0.81151226  1
  O  O328  1  0.94350034  0.41713317  0.06289663  1
  O  O329  1  0.94268496  0.41626513  0.31436063  1
  O  O330  1  0.94038074  0.41644426  0.56276480  1
  O  O331  1  0.94025070  0.41680538  0.81090663  1
  O  O332  1  0.94252159  0.75002032  0.06225323  1
  O  O333  1  0.94537982  0.75003651  0.31365318  1
  O  O334  1  0.94475765  0.74997018  0.56338607  1
  O  O335  1  0.94379943  0.74962728  0.81341356  1
  O  O336  1  0.19189780  0.08341664  0.06037687  1
  O  O337  1  0.19323134  0.08326970  0.31191614  1
  O  O338  1  0.19100056  0.08377959  0.56366076  1
  O  O339  1  0.19053268  0.08390405  0.81237851  1
  O  O340  1  0.19295188  0.41664455  0.06106303  1
  O  O341  1  0.19286142  0.41669801  0.31139874  1
  O  O342  1  0.19381311  0.41674180  0.56214255  1
  O  O343  1  0.19409892  0.41659838  0.81203182  1
  O  O344  1  0.18981100  0.74961654  0.06199930  1
  O  O345  1  0.19045644  0.74983622  0.31216056  1
  O  O346  1  0.19351060  0.74980555  0.56194994  1
  O  O347  1  0.19189086  0.74956895  0.81366403  1
  O  O348  1  0.69156586  0.08268500  0.06223450  1
  O  O349  1  0.69363852  0.08270383  0.31160998  1
  O  O350  1  0.69176990  0.08219746  0.56314457  1
  O  O351  1  0.69360709  0.08311916  0.81089196  1
  O  O352  1  0.69040851  0.41749115  0.06177737  1
  O  O353  1  0.69409696  0.41728104  0.31128450  1
  O  O354  1  0.69228809  0.41737168  0.56357164  1
  O  O355  1  0.69094782  0.41722815  0.81265985  1
  O  O356  1  0.69378220  0.74996141  0.06060049  1
  O  O357  1  0.69354356  0.75005629  0.31173651  1
  O  O358  1  0.69337974  0.75026921  0.56177017  1
  O  O359  1  0.69071729  0.74989428  0.81245352  1
  O  O360  1  0.30647554  0.24964733  0.18851854  1
  O  O361  1  0.30643473  0.24981346  0.43873361  1
  O  O362  1  0.30767902  0.25015954  0.68870600  1
  O  O363  1  0.30996748  0.25030213  0.93738089  1
  O  O364  1  0.30863543  0.58330057  0.18654775  1
  O  O365  1  0.30570494  0.58338725  0.43903516  1
  O  O366  1  0.30893884  0.58317911  0.68806472  1
  O  O367  1  0.31042188  0.58313869  0.93765807  1
  O  O368  1  0.30563813  0.91642471  0.18864870  1
  O  O369  1  0.30726749  0.91687205  0.43813050  1
  O  O370  1  0.30907796  0.91680559  0.68746564  1
  O  O371  1  0.30921635  0.91658841  0.93702743  1
  O  O372  1  0.80820412  0.25009815  0.18780862  1
  O  O373  1  0.80803609  0.24995056  0.43796985  1
  O  O374  1  0.80773862  0.24958478  0.68723944  1
  O  O375  1  0.80929154  0.24988921  0.93725681  1
  O  O376  1  0.80968299  0.58381204  0.18811890  1
  O  O377  1  0.80997004  0.58396087  0.43829983  1
  O  O378  1  0.80878228  0.58363119  0.68764270  1
  O  O379  1  0.80913403  0.58395009  0.93721572  1
  O  O380  1  0.81005767  0.91611841  0.18837307  1
  O  O381  1  0.81006843  0.91611968  0.43797596  1
  O  O382  1  0.80932811  0.91669685  0.68675539  1
  O  O383  1  0.80736152  0.91635397  0.93874128  1
  O  O384  1  0.23451006  0.24980130  0.03749744  1
  O  O385  1  0.23336846  0.24965551  0.29062589  1
  O  O386  1  0.23396354  0.25027029  0.54114958  1
  O  O387  1  0.23499510  0.25041872  0.79058247  1
  O  O388  1  0.23537825  0.58329684  0.03791080  1
  O  O389  1  0.23425610  0.58378395  0.28747814  1
  O  O390  1  0.23254185  0.58348612  0.54067141  1
  O  O391  1  0.23454416  0.58303368  0.78895373  1
  O  O392  1  0.23409501  0.91640710  0.03732301  1
  O  O393  1  0.23197412  0.91650443  0.29009065  1
  O  O394  1  0.23297180  0.91659022  0.53911471  1
  O  O395  1  0.23580886  0.91689722  0.78881176  1
  O  O396  1  0.73500890  0.25012793  0.03771640  1
  O  O397  1  0.73315162  0.24998459  0.28825824  1
  O  O398  1  0.73407781  0.24989425  0.53892190  1
  O  O399  1  0.73324235  0.25032718  0.78807614  1
  O  O400  1  0.73521533  0.58409359  0.03827914  1
  O  O401  1  0.73543688  0.58306578  0.28901987  1
  O  O402  1  0.73580796  0.58324405  0.53927959  1
  O  O403  1  0.73336261  0.58294655  0.78768887  1
  O  O404  1  0.73493187  0.91587348  0.04086844  1
  O  O405  1  0.73544262  0.91696891  0.28906995  1
  O  O406  1  0.73554444  0.91653270  0.53877399  1
  O  O407  1  0.73468122  0.91715024  0.78752598  1
  O  O408  1  0.26592618  0.08245508  0.20948381  1
  O  O409  1  0.26648172  0.08325776  0.46342590  1
  O  O410  1  0.26669555  0.08360574  0.71315692  1
  O  O411  1  0.26544213  0.08350307  0.95931170  1
  O  O412  1  0.26635709  0.41638894  0.20977344  1
  O  O413  1  0.26797060  0.41700293  0.46093170  1
  O  O414  1  0.26870684  0.41707741  0.71151217  1
  O  O415  1  0.26690619  0.41694833  0.96013974  1
  O  O416  1  0.26523755  0.75044005  0.21140064  1
  O  O417  1  0.26494035  0.74974284  0.45929699  1
  O  O418  1  0.26738142  0.74952348  0.71350225  1
  O  O419  1  0.26469817  0.74976165  0.96172559  1
  O  O420  1  0.76572309  0.08348361  0.20932676  1
  O  O421  1  0.76740643  0.08378789  0.46303982  1
  O  O422  1  0.76739783  0.08379194  0.70983682  1
  O  O423  1  0.76592769  0.08299292  0.96142197  1
  O  O424  1  0.76586673  0.41662413  0.20868426  1
  O  O425  1  0.76751575  0.41616024  0.46311558  1
  O  O426  1  0.76584313  0.41642235  0.71241051  1
  O  O427  1  0.76467399  0.41715423  0.96123358  1
  O  O428  1  0.76728419  0.74993003  0.21058249  1
  O  O429  1  0.76707876  0.75005683  0.46047637  1
  O  O430  1  0.76531531  0.74938710  0.71189841  1
  O  O431  1  0.76801172  0.75002245  0.95955755  1
  O  O432  1  0.01558015  0.08352858  0.16634830  1
  O  O433  1  0.01498882  0.08340799  0.41603600  1
  O  O434  1  0.01589171  0.08342851  0.66289127  1
  O  O435  1  0.01643477  0.08351267  0.91213198  1
  O  O436  1  0.01525251  0.41686736  0.16601305  1
  O  O437  1  0.01476949  0.41661228  0.41689455  1
  O  O438  1  0.01392182  0.41639145  0.66393334  1
  O  O439  1  0.01419285  0.41712433  0.91223612  1
  O  O440  1  0.01681074  0.74961634  0.16353738  1
  O  O441  1  0.01851420  0.74996771  0.41547563  1
  O  O442  1  0.01673563  0.74998321  0.66561740  1
  O  O443  1  0.01747914  0.74973190  0.91462959  1
  O  O444  1  0.51841387  0.08352773  0.16478566  1
  O  O445  1  0.51526252  0.08264326  0.41648571  1
  O  O446  1  0.51621997  0.08359563  0.66265324  1
  O  O447  1  0.51549686  0.08349702  0.91277888  1
  O  O448  1  0.51864481  0.41703122  0.16514360  1
  O  O449  1  0.51626234  0.41683291  0.41638552  1
  O  O450  1  0.51664065  0.41641089  0.66228625  1
  O  O451  1  0.51760816  0.41692506  0.91187627  1
  O  O452  1  0.51521398  0.75035353  0.16603338  1
  O  O453  1  0.51417672  0.75018626  0.41380759  1
  O  O454  1  0.51457995  0.75029358  0.66514612  1
  O  O455  1  0.51675901  0.74926023  0.91251411  1
  O  O456  1  0.48576752  0.25022605  0.08613946  1
  O  O457  1  0.48597907  0.24986259  0.33773191  1
  O  O458  1  0.48638566  0.25000002  0.58698985  1
  O  O459  1  0.48340302  0.25028964  0.83410089  1
  O  O460  1  0.48250225  0.58309432  0.08474274  1
  O  O461  1  0.48337627  0.58314846  0.33592450  1
  O  O462  1  0.48259601  0.58316136  0.58793511  1
  O  O463  1  0.48322295  0.58323727  0.83469534  1
  O  O464  1  0.48353816  0.91648174  0.08450954  1
  O  O465  1  0.48102185  0.91748589  0.33602519  1
  O  O466  1  0.48112401  0.91655103  0.58601963  1
  O  O467  1  0.48216366  0.91662983  0.83555943  1
  O  O468  1  0.98087497  0.25004532  0.08500332  1
  O  O469  1  0.98050481  0.25007622  0.33684723  1
  O  O470  1  0.98111525  0.24961883  0.58704939  1
  O  O471  1  0.98138551  0.24985771  0.83461431  1
  O  O472  1  0.98180503  0.58367435  0.08508988  1
  O  O473  1  0.98323655  0.58323051  0.33838526  1
  O  O474  1  0.98394758  0.58309934  0.58878105  1
  O  O475  1  0.98266484  0.58325723  0.83472338  1
  O  O476  1  0.98315818  0.91647840  0.08722683  1
  O  O477  1  0.98399856  0.91672106  0.33792586  1
  O  O478  1  0.98334721  0.91687361  0.58579584  1
  O  O479  1  0.98397089  0.91639463  0.83412688  1
  O  O480  1  0.08456972  0.31530885  0.07660322  1
  O  O481  1  0.08427198  0.31521299  0.32766757  1
  O  O482  1  0.08491844  0.31450624  0.57719789  1
  O  O483  1  0.08517529  0.31478371  0.82625940  1
  O  O484  1  0.08590922  0.64852325  0.07768152  1
  O  O485  1  0.08674239  0.64857509  0.32871563  1
  O  O486  1  0.08798130  0.64766463  0.57798824  1
  O  O487  1  0.08660040  0.64917114  0.82687679  1
  O  O488  1  0.08682603  0.98109905  0.07798042  1
  O  O489  1  0.08784404  0.98113587  0.32761600  1
  O  O490  1  0.08681307  0.98304281  0.57717635  1
  O  O491  1  0.08766884  0.98153902  0.82748468  1
  O  O492  1  0.58937632  0.31508403  0.07873146  1
  O  O493  1  0.58977753  0.31476341  0.32833871  1
  O  O494  1  0.59021462  0.31500353  0.57819557  1
  O  O495  1  0.58746298  0.31565511  0.82647666  1
  O  O496  1  0.58609694  0.64825872  0.07711758  1
  O  O497  1  0.58687649  0.64859517  0.32752083  1
  O  O498  1  0.58631550  0.64766111  0.57773635  1
  O  O499  1  0.58718291  0.64865142  0.82629348  1
  O  O500  1  0.58702416  0.98253180  0.07762455  1
  O  O501  1  0.58542536  0.98159611  0.32779923  1
  O  O502  1  0.58471317  0.98274199  0.57708353  1
  O  O503  1  0.58631424  0.98051060  0.82665263  1
  O  O504  1  0.41441143  0.01859983  0.17264442  1
  O  O505  1  0.41081247  0.01772774  0.42285487  1
  O  O506  1  0.41234435  0.01795812  0.67231080  1
  O  O507  1  0.41176724  0.01876342  0.92106856  1
  O  O508  1  0.41489759  0.35228718  0.17300533  1
  O  O509  1  0.41261353  0.35124680  0.42409088  1
  O  O510  1  0.41270015  0.35222385  0.67286850  1
  O  O511  1  0.41442720  0.35122481  0.92150001  1
  O  O512  1  0.41198539  0.68341644  0.17225039  1
  O  O513  1  0.41033117  0.68616445  0.42214289  1
  O  O514  1  0.41100334  0.68458120  0.67292375  1
  O  O515  1  0.41298956  0.68453171  0.92129075  1
  O  O516  1  0.91215760  0.01804892  0.17226724  1
  O  O517  1  0.91121510  0.01818982  0.42294928  1
  O  O518  1  0.91243579  0.01779570  0.67225702  1
  O  O519  1  0.91288520  0.01884309  0.92167653  1
  O  O520  1  0.91144030  0.35185048  0.17163232  1
  O  O521  1  0.91065177  0.35155447  0.42338560  1
  O  O522  1  0.90982758  0.35158700  0.67231745  1
  O  O523  1  0.91064697  0.35188266  0.92055202  1
  O  O524  1  0.91313512  0.68475042  0.17192130  1
  O  O525  1  0.91457161  0.68509304  0.42293199  1
  O  O526  1  0.91280199  0.68513564  0.67245949  1
  O  O527  1  0.91378691  0.68362563  0.92246457  1
  O  O528  1  0.16227976  0.01708726  0.20323472  1
  O  O529  1  0.16306489  0.01778600  0.45387115  1
  O  O530  1  0.16281214  0.01887188  0.70213306  1
  O  O531  1  0.16153686  0.01847255  0.95089747  1
  O  O532  1  0.16251395  0.35131017  0.20230274  1
  O  O533  1  0.16381435  0.35261944  0.45254668  1
  O  O534  1  0.16471942  0.35240221  0.70212026  1
  O  O535  1  0.16314215  0.35162940  0.95151183  1
  O  O536  1  0.16119890  0.68618794  0.20171710  1
  O  O537  1  0.16118278  0.68449001  0.45300731  1
  O  O538  1  0.16396811  0.68382774  0.70380277  1
  O  O539  1  0.16109475  0.68466646  0.95191653  1
  O  O540  1  0.66165732  0.01894327  0.20210459  1
  O  O541  1  0.66412337  0.01850174  0.45249107  1
  O  O542  1  0.66309589  0.01931121  0.70088404  1
  O  O543  1  0.66261069  0.01758475  0.95228243  1
  O  O544  1  0.66221682  0.35095448  0.20272977  1
  O  O545  1  0.66387379  0.35116626  0.45405400  1
  O  O546  1  0.66193450  0.35191844  0.70275953  1
  O  O547  1  0.66095274  0.35233396  0.95178766  1
  O  O548  1  0.66366488  0.68497114  0.20211294  1
  O  O549  1  0.66334366  0.68495314  0.45263413  1
  O  O550  1  0.66192083  0.68382692  0.70289911  1
  O  O551  1  0.66368766  0.68533571  0.95103903  1
  O  O552  1  0.33805574  0.31504879  0.04746476  1
  O  O553  1  0.33743742  0.31450871  0.29758760  1
  O  O554  1  0.33799790  0.31510780  0.54754179  1
  O  O555  1  0.33916019  0.31523998  0.79775922  1
  O  O556  1  0.33897888  0.64831302  0.04755580  1
  O  O557  1  0.33721627  0.64979548  0.29610989  1
  O  O558  1  0.33684052  0.64758225  0.54859139  1
  O  O559  1  0.33828219  0.64819705  0.79808289  1
  O  O560  1  0.33733508  0.98176124  0.04714867  1
  O  O561  1  0.33641887  0.98045152  0.29833193  1
  O  O562  1  0.33675764  0.98233705  0.54797468  1
  O  O563  1  0.33955340  0.98199879  0.79691928  1
  O  O564  1  0.83851084  0.31513231  0.04721701  1
  O  O565  1  0.83679616  0.31497675  0.29801880  1
  O  O566  1  0.83775086  0.31487333  0.54810825  1
  O  O567  1  0.83722860  0.31478850  0.79702495  1
  O  O568  1  0.83865593  0.64999742  0.04672904  1
  O  O569  1  0.83920830  0.64831387  0.29832057  1
  O  O570  1  0.83980540  0.64767726  0.54850268  1
  O  O571  1  0.83756574  0.64713439  0.79810008  1
  O  O572  1  0.83910781  0.98010653  0.04829605  1
  O  O573  1  0.83934371  0.98148278  0.29800666  1
  O  O574  1  0.83901750  0.98237559  0.54748580  1
  O  O575  1  0.83783986  0.98307099  0.79620890  1
  O  O576  1  0.41481085  0.14864452  0.17308109  1
  O  O577  1  0.41151542  0.14774672  0.42403603  1
  O  O578  1  0.41227014  0.14791639  0.67289237  1
  O  O579  1  0.41247273  0.14929666  0.92129716  1
  O  O580  1  0.41470939  0.48239270  0.17220785  1
  O  O581  1  0.41183417  0.48119313  0.42366841  1
  O  O582  1  0.41300335  0.48217423  0.67275043  1
  O  O583  1  0.41386378  0.48154860  0.92110375  1
  O  O584  1  0.41020984  0.81341474  0.17310915  1
  O  O585  1  0.41097968  0.81639346  0.42176843  1
  O  O586  1  0.41031037  0.81474438  0.67246983  1
  O  O587  1  0.41323058  0.81474491  0.92162474  1
  O  O588  1  0.91158719  0.14836424  0.17174555  1
  O  O589  1  0.91080533  0.14830241  0.42322632  1
  O  O590  1  0.91166724  0.14791929  0.67258980  1
  O  O591  1  0.91272652  0.14892586  0.92120226  1
  O  O592  1  0.91174914  0.48219433  0.17177116  1
  O  O593  1  0.91088001  0.48168725  0.42326063  1
  O  O594  1  0.91020258  0.48175304  0.67235151  1
  O  O595  1  0.91065525  0.48213237  0.92048864  1
  O  O596  1  0.91347918  0.81496880  0.17227988  1
  O  O597  1  0.91476024  0.81516824  0.42282148  1
  O  O598  1  0.91307000  0.81538074  0.67219296  1
  O  O599  1  0.91307482  0.81360401  0.92312453  1
  O  O600  1  0.08485909  0.18524346  0.07692627  1
  O  O601  1  0.08432850  0.18509718  0.32770157  1
  O  O602  1  0.08496983  0.18439234  0.57756934  1
  O  O603  1  0.08535820  0.18465763  0.82678574  1
  O  O604  1  0.08535322  0.51849433  0.07678201  1
  O  O605  1  0.08670032  0.51842501  0.32810675  1
  O  O606  1  0.08734674  0.51763950  0.57746556  1
  O  O607  1  0.08706573  0.51915830  0.82588269  1
  O  O608  1  0.08667301  0.85100692  0.07848468  1
  O  O609  1  0.08757329  0.85103930  0.32824597  1
  O  O610  1  0.08790286  0.85299456  0.57733288  1
  O  O611  1  0.08779210  0.85122849  0.82784530  1
  O  O612  1  0.58914140  0.18474425  0.07850130  1
  O  O613  1  0.58958814  0.18474916  0.32844870  1
  O  O614  1  0.59002478  0.18472072  0.57806632  1
  O  O615  1  0.58765336  0.18573393  0.82595715  1
  O  O616  1  0.58650991  0.51814646  0.07755030  1
  O  O617  1  0.58736385  0.51853283  0.32810010  1
  O  O618  1  0.58622639  0.51748454  0.57793242  1
  O  O619  1  0.58746436  0.51868042  0.82644656  1
  O  O620  1  0.58756496  0.85222486  0.07749656  1
  O  O621  1  0.58458375  0.85168878  0.32707946  1
  O  O622  1  0.58536495  0.85263125  0.57708934  1
  O  O623  1  0.58550251  0.85038775  0.82679383  1
  O  O624  1  0.33806835  0.18493358  0.04736004  1
  O  O625  1  0.33708921  0.18438272  0.29760782  1
  O  O626  1  0.33767926  0.18496369  0.54794370  1
  O  O627  1  0.33878960  0.18503995  0.79779259  1
  O  O628  1  0.33928561  0.51836447  0.04773365  1
  O  O629  1  0.33808241  0.51952166  0.29673956  1
  O  O630  1  0.33660647  0.51772183  0.54826804  1
  O  O631  1  0.33860936  0.51812814  0.79779117  1
  O  O632  1  0.33755760  0.85161545  0.04697697  1
  O  O633  1  0.33547106  0.85046368  0.29803047  1
  O  O634  1  0.33703261  0.85238954  0.54799770  1
  O  O635  1  0.33943470  0.85170801  0.79730301  1
  O  O636  1  0.83861205  0.18511660  0.04740980  1
  O  O637  1  0.83689270  0.18517439  0.29801314  1
  O  O638  1  0.83786301  0.18489981  0.54791808  1
  O  O639  1  0.83684147  0.18461294  0.79712800  1
  O  O640  1  0.83909999  0.51989866  0.04736569  1
  O  O641  1  0.83927510  0.51847963  0.29778008  1
  O  O642  1  0.83926343  0.51762601  0.54778481  1
  O  O643  1  0.83679205  0.51717002  0.79734466  1
  O  O644  1  0.83861297  0.84999114  0.04741514  1
  O  O645  1  0.83920237  0.85163011  0.29854692  1
  O  O646  1  0.83970074  0.85239258  0.54821709  1
  O  O647  1  0.83839832  0.85275183  0.79687041  1
  O  O648  1  0.16216787  0.14745243  0.20257510  1
  O  O649  1  0.16281575  0.14793337  0.45321734  1
  O  O650  1  0.16295247  0.14891687  0.70208902  1
  O  O651  1  0.16138639  0.14846546  0.95089964  1
  O  O652  1  0.16271073  0.48159612  0.20197742  1
  O  O653  1  0.16441398  0.48283590  0.45293505  1
  O  O654  1  0.16478491  0.48243660  0.70282173  1
  O  O655  1  0.16305656  0.48170496  0.95165619  1
  O  O656  1  0.16171472  0.81633157  0.20275452  1
  O  O657  1  0.16102465  0.81478329  0.45310193  1
  O  O658  1  0.16372999  0.81391444  0.70327110  1
  O  O659  1  0.16092159  0.81459133  0.95189558  1
  O  O660  1  0.66209683  0.14905180  0.20283809  1
  O  O661  1  0.66368044  0.14866666  0.45378372  1
  O  O662  1  0.66346135  0.14926006  0.70188728  1
  O  O663  1  0.66228624  0.14769674  0.95236586  1
  O  O664  1  0.66181841  0.48106952  0.20175543  1
  O  O665  1  0.66423930  0.48129657  0.45305177  1
  O  O666  1  0.66229046  0.48200874  0.70222460  1
  O  O667  1  0.66107574  0.48231508  0.95180363  1
  O  O668  1  0.66364350  0.81515314  0.20238592  1
  O  O669  1  0.66331270  0.81521077  0.45238060  1
  O  O670  1  0.66179224  0.81420146  0.70230984  1
  O  O671  1  0.66398305  0.81519925  0.95105945  1
