# generated using pymatgen
data_Na2MnFe(PO4)2
_symmetry_space_group_name_H-M   'P 1'
_cell_length_a   21.08230571
_cell_length_b   18.93432370
_cell_length_c   20.04157595
_cell_angle_alpha   90.00055919
_cell_angle_beta   90.00065169
_cell_angle_gamma   90.00304847
_symmetry_Int_Tables_number   1
_chemical_formula_structural   Na2MnFe(PO4)2
_chemical_formula_sum   'Na96 Mn48 Fe48 P96 O384'
_cell_volume   8000.18025618
_cell_formula_units_Z   48
loop_
 _symmetry_equiv_pos_site_id
 _symmetry_equiv_pos_as_xyz
  1  'x, y, z'
loop_
 _atom_site_type_symbol
 _atom_site_label
 _atom_site_symmetry_multiplicity
 _atom_site_fract_x
 _atom_site_fract_y
 _atom_site_fract_z
 _atom_site_occupancy
  Na  Na0  1  0.00196726  0.00124043  -0.00103319  1
  Na  Na1  1  0.00118805  0.00048798  0.24990322  1
  Na  Na2  1  0.00034332  0.00073206  0.50083248  1
  Na  Na3  1  0.00032586  0.00059872  0.75051443  1
  Na  Na4  1  -0.00143506  0.33249106  -0.00020152  1
  Na  Na5  1  0.00056973  0.33241016  0.24973367  1
  Na  Na6  1  0.00067408  0.33329227  0.50011956  1
  Na  Na7  1  -0.00279160  0.33243562  0.75030495  1
  Na  Na8  1  0.00079805  0.66780211  0.00020695  1
  Na  Na9  1  0.00272405  0.66815844  0.24870090  1
  Na  Na10  1  0.00062349  0.66686728  0.50010220  1
  Na  Na11  1  -0.00067419  0.66707342  0.75046883  1
  Na  Na12  1  0.50118451  0.00100530  -0.00001732  1
  Na  Na13  1  0.50018158  0.00037694  0.24957918  1
  Na  Na14  1  0.49962023  -0.00013764  0.50060560  1
  Na  Na15  1  0.49927254  -0.00024033  0.74978795  1
  Na  Na16  1  0.50099479  0.33305305  -0.00034643  1
  Na  Na17  1  0.50136592  0.33293488  0.25042099  1
  Na  Na18  1  0.49946458  0.33253570  0.50060917  1
  Na  Na19  1  0.49908483  0.33224016  0.74987856  1
  Na  Na20  1  0.49763884  0.66645486  -0.00041580  1
  Na  Na21  1  0.49941805  0.66759119  0.24933615  1
  Na  Na22  1  0.50018963  0.66726326  0.50004016  1
  Na  Na23  1  0.50075392  0.66724033  0.75091880  1
  Na  Na24  1  0.24845582  0.00001249  0.12485976  1
  Na  Na25  1  0.25037750  0.00093490  0.37529673  1
  Na  Na26  1  0.25030891  0.00066020  0.62507891  1
  Na  Na27  1  0.24908227  0.00047430  0.87487630  1
  Na  Na28  1  0.25004656  0.33227706  0.12409822  1
  Na  Na29  1  0.24876564  0.33198857  0.37458271  1
  Na  Na30  1  0.25163491  0.33307157  0.62539311  1
  Na  Na31  1  0.25205032  0.33295451  0.87463305  1
  Na  Na32  1  0.24949739  0.66779312  0.12457318  1
  Na  Na33  1  0.24793648  0.66676024  0.37586712  1
  Na  Na34  1  0.25054316  0.66738781  0.62549002  1
  Na  Na35  1  0.25091532  0.66761270  0.87461066  1
  Na  Na36  1  0.74862300  -0.00024302  0.12574340  1
  Na  Na37  1  0.74926231  0.00012792  0.37323935  1
  Na  Na38  1  0.74995746  0.00080519  0.62580748  1
  Na  Na39  1  0.74879342  -0.00035130  0.87579385  1
  Na  Na40  1  0.75089486  0.33306054  0.12408285  1
  Na  Na41  1  0.75011618  0.33263063  0.37421544  1
  Na  Na42  1  0.75177623  0.33338518  0.62585727  1
  Na  Na43  1  0.75173665  0.33365815  0.87620880  1
  Na  Na44  1  0.75069698  0.66799428  0.12560789  1
  Na  Na45  1  0.74783926  0.66637004  0.37571502  1
  Na  Na46  1  0.75035504  0.66747384  0.62406708  1
  Na  Na47  1  0.74954868  0.66659896  0.87430907  1
  Na  Na48  1  0.00100395  0.16687781  -0.00056186  1
  Na  Na49  1  0.00305657  0.16579905  0.25037100  1
  Na  Na50  1  0.00130931  0.16617780  0.50013412  1
  Na  Na51  1  0.00033523  0.16631697  0.74984385  1
  Na  Na52  1  -0.00164637  0.50043666  0.00011461  1
  Na  Na53  1  0.00109219  0.49899113  0.24891147  1
  Na  Na54  1  -0.00220425  0.50062874  0.50024570  1
  Na  Na55  1  -0.00257540  0.50005604  0.75021670  1
  Na  Na56  1  0.00094659  0.83314054  -0.00085794  1
  Na  Na57  1  0.00131738  0.83341572  0.24920881  1
  Na  Na58  1  0.00226046  0.83222271  0.50062215  1
  Na  Na59  1  -0.00048395  0.83333049  0.75129479  1
  Na  Na60  1  0.49885605  0.16741127  0.00037243  1
  Na  Na61  1  0.50205839  0.16528176  0.24952371  1
  Na  Na62  1  0.49922417  0.16709334  0.50064641  1
  Na  Na63  1  0.50035086  0.16597032  0.74944557  1
  Na  Na64  1  0.50248196  0.49839708  -0.00114496  1
  Na  Na65  1  0.50126980  0.49933553  0.25007012  1
  Na  Na66  1  0.49876603  0.50089818  0.50107603  1
  Na  Na67  1  0.50021328  0.50018753  0.74987736  1
  Na  Na68  1  0.49842417  0.83346794  -0.00018280  1
  Na  Na69  1  0.49807067  0.83383409  0.24982221  1
  Na  Na70  1  0.50175320  0.83238805  0.49959977  1
  Na  Na71  1  0.49888561  0.83419236  0.75125130  1
  Na  Na72  1  0.24922935  0.16685330  0.12467053  1
  Na  Na73  1  0.24764430  0.16735513  0.37436178  1
  Na  Na74  1  0.24958115  0.16650517  0.62601171  1
  Na  Na75  1  0.25056104  0.16675866  0.87482694  1
  Na  Na76  1  0.24833778  0.50077783  0.12430658  1
  Na  Na77  1  0.24920641  0.50041977  0.37550019  1
  Na  Na78  1  0.25270663  0.49911475  0.62538347  1
  Na  Na79  1  0.25064210  0.49996121  0.87428500  1
  Na  Na80  1  0.24975503  0.83353133  0.12459796  1
  Na  Na81  1  0.25050729  0.83252314  0.37580006  1
  Na  Na82  1  0.24986470  0.83342892  0.62443162  1
  Na  Na83  1  0.25065863  0.83284188  0.87513139  1
  Na  Na84  1  0.74900854  0.16687389  0.12455676  1
  Na  Na85  1  0.74802483  0.16695132  0.37357666  1
  Na  Na86  1  0.75132006  0.16554140  0.62563907  1
  Na  Na87  1  0.74969976  0.16621007  0.87641482  1
  Na  Na88  1  0.74883880  0.50005026  0.12476984  1
  Na  Na89  1  0.75163363  0.49902433  0.37505451  1
  Na  Na90  1  0.75194373  0.49922082  0.62605215  1
  Na  Na91  1  0.74965983  0.49978160  0.87474100  1
  Na  Na92  1  0.75056957  0.83354212  0.12638784  1
  Na  Na93  1  0.74803176  0.83400676  0.37423255  1
  Na  Na94  1  0.74837555  0.83391550  0.62431942  1
  Na  Na95  1  0.75203528  0.83261148  0.87477641  1
  Mn  Mn96  1  0.89142540  0.58324953  0.87746940  1
  Mn  Mn97  1  0.60782914  0.41704272  0.62300910  1
  Mn  Mn98  1  0.35792388  0.75022626  0.50266663  1
  Mn  Mn99  1  0.89248164  0.91667247  0.37765328  1
  Mn  Mn100  1  0.39171938  0.58207446  0.12750053  1
  Mn  Mn101  1  0.60854507  0.41643334  0.37335125  1
  Mn  Mn102  1  0.39147045  0.91738868  0.12690475  1
  Mn  Mn103  1  0.14209771  0.58304819  0.99672877  1
  Mn  Mn104  1  0.10704147  0.41670140  0.87240858  1
  Mn  Mn105  1  0.35802613  0.41584187  0.50212250  1
  Mn  Mn106  1  0.89266449  0.24932603  0.37683614  1
  Mn  Mn107  1  0.39306389  0.58312117  0.87729101  1
  Mn  Mn108  1  0.35784066  0.08311441  0.75266091  1
  Mn  Mn109  1  0.85828355  0.74982274  0.25246364  1
  Mn  Mn110  1  0.60816594  0.08296269  0.62254993  1
  Mn  Mn111  1  0.64140727  0.58263856  0.24758380  1
  Mn  Mn112  1  0.35782478  0.41739654  0.25206659  1
  Mn  Mn113  1  0.85772591  0.08271114  0.00293129  1
  Mn  Mn114  1  0.89215986  0.24990680  0.62735467  1
  Mn  Mn115  1  0.85776103  0.08348763  0.25150967  1
  Mn  Mn116  1  0.64242623  0.24946135  0.99752723  1
  Mn  Mn117  1  0.85747463  0.75065588  0.50187858  1
  Mn  Mn118  1  0.64249412  0.58448247  0.99788135  1
  Mn  Mn119  1  0.89253974  0.58381315  0.12771913  1
  Mn  Mn120  1  0.14255368  0.58287919  0.74750968  1
  Mn  Mn121  1  0.35742864  0.08312419  0.25231691  1
  Mn  Mn122  1  0.85760750  0.41662058  0.25175576  1
  Mn  Mn123  1  0.89236605  0.91715723  0.87778917  1
  Mn  Mn124  1  0.39216798  0.24922760  0.37672532  1
  Mn  Mn125  1  0.64221706  0.91653833  0.74824725  1
  Mn  Mn126  1  0.64249103  0.58330869  0.49798851  1
  Mn  Mn127  1  0.14257621  0.25088323  0.74816048  1
  Mn  Mn128  1  0.10805942  0.41686298  0.37263537  1
  Mn  Mn129  1  0.64134692  0.91698660  0.24749116  1
  Mn  Mn130  1  0.60760593  0.75049046  0.87291814  1
  Mn  Mn131  1  0.14218825  0.91745229  0.49778588  1
  Mn  Mn132  1  0.14231790  0.91671553  0.24765628  1
  Mn  Mn133  1  0.14173747  0.58236852  0.49867599  1
  Mn  Mn134  1  0.39159007  0.58356475  0.37709144  1
  Mn  Mn135  1  0.64242948  0.24943000  0.49824120  1
  Mn  Mn136  1  0.60693021  0.74995839  0.12210919  1
  Mn  Mn137  1  0.89282898  0.58372707  0.37673550  1
  Mn  Mn138  1  0.89187906  0.91604087  0.62671225  1
  Mn  Mn139  1  0.14258536  0.91646167  0.74781689  1
  Mn  Mn140  1  0.39255131  0.91602079  0.62713837  1
  Mn  Mn141  1  0.35855137  0.41649220  0.00240965  1
  Mn  Mn142  1  0.10784316  0.41616428  0.12189419  1
  Mn  Mn143  1  0.10747009  0.41679752  0.62331837  1
  Fe  Fe144  1  0.10796031  0.75037225  0.37290936  1
  Fe  Fe145  1  0.10769608  0.08284944  0.37361888  1
  Fe  Fe146  1  0.39237765  0.91787616  0.87754766  1
  Fe  Fe147  1  0.64272548  0.91601846  0.99875253  1
  Fe  Fe148  1  0.35679071  0.08318394  0.00140655  1
  Fe  Fe149  1  0.85727307  0.75015259  0.75115313  1
  Fe  Fe150  1  0.35707810  0.08387975  0.50117843  1
  Fe  Fe151  1  0.35617575  0.75061748  0.00155353  1
  Fe  Fe152  1  0.35777056  0.74994495  0.75157530  1
  Fe  Fe153  1  0.10770107  0.75105457  0.12247191  1
  Fe  Fe154  1  0.10729121  0.75004022  0.87268972  1
  Fe  Fe155  1  0.14299372  0.25004204  0.49906258  1
  Fe  Fe156  1  0.39358922  0.24935971  0.87670463  1
  Fe  Fe157  1  0.60679811  0.08335825  0.12269437  1
  Fe  Fe158  1  0.10720661  0.74983799  0.62436103  1
  Fe  Fe159  1  0.10706556  0.08307849  0.62304385  1
  Fe  Fe160  1  0.89367783  0.24878082  0.12672668  1
  Fe  Fe161  1  0.60805028  0.41557261  0.87264964  1
  Fe  Fe162  1  0.85756368  0.08348448  0.75220183  1
  Fe  Fe163  1  0.10743099  0.08369960  0.87322374  1
  Fe  Fe164  1  0.89234430  0.24933649  0.87677233  1
  Fe  Fe165  1  0.85817185  0.41591287  0.50173293  1
  Fe  Fe166  1  0.64228576  0.25013962  0.24761995  1
  Fe  Fe167  1  0.60753741  0.74984325  0.62404736  1
  Fe  Fe168  1  0.85669297  0.41709780  0.00206316  1
  Fe  Fe169  1  0.64323509  0.25002841  0.74895217  1
  Fe  Fe170  1  0.60710480  0.08282905  0.37388607  1
  Fe  Fe171  1  0.35622185  0.74984276  0.25174415  1
  Fe  Fe172  1  0.39288302  0.58355154  0.62732026  1
  Fe  Fe173  1  0.60669296  0.08365524  0.87369482  1
  Fe  Fe174  1  0.85791033  0.75019754  0.00177594  1
  Fe  Fe175  1  0.14239236  0.58312179  0.24833136  1
  Fe  Fe176  1  0.39307637  0.24997409  0.12656034  1
  Fe  Fe177  1  0.14261917  0.91730240  0.99797715  1
  Fe  Fe178  1  0.39283299  0.91709384  0.37670339  1
  Fe  Fe179  1  0.64216709  0.91739213  0.49790800  1
  Fe  Fe180  1  0.60757675  0.41597406  0.12332914  1
  Fe  Fe181  1  0.64326055  0.58316907  0.74785253  1
  Fe  Fe182  1  0.85738248  0.08329289  0.50095575  1
  Fe  Fe183  1  0.10772550  0.08308085  0.12273295  1
  Fe  Fe184  1  0.14314622  0.24985597  0.99760545  1
  Fe  Fe185  1  0.85667303  0.41632680  0.75235956  1
  Fe  Fe186  1  0.39234335  0.25016662  0.62691973  1
  Fe  Fe187  1  0.14259132  0.25076885  0.24728548  1
  Fe  Fe188  1  0.89355216  0.91756456  0.12573734  1
  Fe  Fe189  1  0.60644746  0.75035078  0.37304239  1
  Fe  Fe190  1  0.89196981  0.58401963  0.62663172  1
  Fe  Fe191  1  0.35848102  0.41700762  0.75198085  1
  P  P192  1  0.05459013  0.24903934  0.10991927  1
  P  P193  1  0.05575646  0.24909228  0.36071222  1
  P  P194  1  0.05400161  0.24941542  0.60991094  1
  P  P195  1  0.05318993  0.24960968  0.86096308  1
  P  P196  1  0.05486919  0.58411309  0.11060024  1
  P  P197  1  0.05412759  0.58391736  0.35911937  1
  P  P198  1  0.05162114  0.58370026  0.61071331  1
  P  P199  1  0.05299032  0.58403547  0.85973593  1
  P  P200  1  0.05355104  0.91721094  0.10902270  1
  P  P201  1  0.05372044  0.91697474  0.36013793  1
  P  P202  1  0.05348842  0.91658102  0.61077246  1
  P  P203  1  0.05509634  0.91686870  0.86130810  1
  P  P204  1  0.55373631  0.24983333  0.11082030  1
  P  P205  1  0.55427701  0.24856988  0.35974109  1
  P  P206  1  0.55335135  0.25010282  0.61156374  1
  P  P207  1  0.55335078  0.24920141  0.85962106  1
  P  P208  1  0.55276286  0.58250783  0.10940036  1
  P  P209  1  0.55301471  0.58413176  0.36020697  1
  P  P210  1  0.55364542  0.58419622  0.61163980  1
  P  P211  1  0.55493458  0.58272794  0.85936849  1
  P  P212  1  0.55335574  0.91717675  0.10904770  1
  P  P213  1  0.55314111  0.91713106  0.36111326  1
  P  P214  1  0.55435289  0.91564867  0.60973076  1
  P  P215  1  0.55309079  0.91768901  0.86170549  1
  P  P216  1  0.44610007  0.08409264  0.13850820  1
  P  P217  1  0.44709724  0.08266023  0.39042043  1
  P  P218  1  0.44541818  0.08377375  0.63881687  1
  P  P219  1  0.44681069  0.08348603  0.89053780  1
  P  P220  1  0.44807706  0.41524803  0.13994836  1
  P  P221  1  0.44724981  0.41631554  0.39021165  1
  P  P222  1  0.44598910  0.41665446  0.64061828  1
  P  P223  1  0.44751075  0.41553248  0.88861992  1
  P  P224  1  0.44377125  0.75021936  0.13934478  1
  P  P225  1  0.44590452  0.75090174  0.38867795  1
  P  P226  1  0.44759070  0.74956178  0.64089496  1
  P  P227  1  0.44451499  0.75117215  0.88954055  1
  P  P228  1  0.94838114  0.08330341  0.13947974  1
  P  P229  1  0.94766393  0.08339083  0.39040612  1
  P  P230  1  0.94591352  0.08314035  0.63955413  1
  P  P231  1  0.94647025  0.08416039  0.88903846  1
  P  P232  1  0.94544413  0.41529043  0.13851916  1
  P  P233  1  0.94640956  0.41620139  0.39031232  1
  P  P234  1  0.94437368  0.41723451  0.63982782  1
  P  P235  1  0.94401481  0.41571897  0.88969192  1
  P  P236  1  0.94692902  0.75174213  0.13842912  1
  P  P237  1  0.94862381  0.75024376  0.38994128  1
  P  P238  1  0.94699708  0.74961767  0.64056938  1
  P  P239  1  0.94582220  0.75006129  0.88951881  1
  P  P240  1  0.19472122  0.08392979  0.23524579  1
  P  P241  1  0.19603548  0.08436358  0.48588992  1
  P  P242  1  0.19480415  0.08361988  0.73562154  1
  P  P243  1  0.19566358  0.08380407  0.98546829  1
  P  P244  1  0.19658895  0.41676411  0.23449104  1
  P  P245  1  0.19684094  0.41557203  0.48545765  1
  P  P246  1  0.19853737  0.41658903  0.73505337  1
  P  P247  1  0.19707246  0.41524697  0.98415999  1
  P  P248  1  0.19562187  0.74972350  0.23535064  1
  P  P249  1  0.19452416  0.74989348  0.48613213  1
  P  P250  1  0.19660471  0.75000778  0.73555644  1
  P  P251  1  0.19545214  0.75124616  0.98517493  1
  P  P252  1  0.69416663  0.08413251  0.23505693  1
  P  P253  1  0.69730695  0.08252156  0.48420483  1
  P  P254  1  0.69649065  0.08439345  0.73700840  1
  P  P255  1  0.69464372  0.08214093  0.98591515  1
  P  P256  1  0.69584489  0.41543561  0.23403576  1
  P  P257  1  0.69867393  0.41640256  0.48559642  1
  P  P258  1  0.69647009  0.41575433  0.73667984  1
  P  P259  1  0.69580294  0.41645256  0.98546740  1
  P  P260  1  0.69497012  0.75011131  0.23588196  1
  P  P261  1  0.69440099  0.75122696  0.48550401  1
  P  P262  1  0.69728039  0.74952762  0.73454910  1
  P  P263  1  0.69815850  0.75133861  0.98517109  1
  P  P264  1  0.30470198  0.24866075  0.01405575  1
  P  P265  1  0.30311065  0.24995787  0.26349614  1
  P  P266  1  0.30292505  0.24850070  0.51540052  1
  P  P267  1  0.30576928  0.25053814  0.76477728  1
  P  P268  1  0.30332087  0.58407270  0.01464681  1
  P  P269  1  0.30147193  0.58429254  0.26493453  1
  P  P270  1  0.30394196  0.58359311  0.51618298  1
  P  P271  1  0.30526377  0.58361375  0.76393706  1
  P  P272  1  0.30292768  0.91764526  0.01349195  1
  P  P273  1  0.30369691  0.91604058  0.26575023  1
  P  P274  1  0.30463639  0.91789726  0.51381976  1
  P  P275  1  0.30435769  0.91590648  0.76573344  1
  P  P276  1  0.80542756  0.25016713  0.01458274  1
  P  P277  1  0.80334391  0.24944392  0.26335403  1
  P  P278  1  0.80355172  0.24897289  0.51468669  1
  P  P279  1  0.80318945  0.24947041  0.76605480  1
  P  P280  1  0.80349211  0.58364172  0.01513452  1
  P  P281  1  0.80290744  0.58349526  0.26533571  1
  P  P282  1  0.80423755  0.58294082  0.51543546  1
  P  P283  1  0.80347550  0.58375649  0.76349601  1
  P  P284  1  0.80285543  0.91617171  0.01602375  1
  P  P285  1  0.80473458  0.91699144  0.26378847  1
  P  P286  1  0.80162548  0.91784556  0.51451206  1
  P  P287  1  0.80369208  0.91683778  0.76491655  1
  O  O288  1  0.05911158  0.25011403  0.18668048  1
  O  O289  1  0.05953951  0.25006662  0.43747369  1
  O  O290  1  0.05673920  0.25039428  0.68672551  1
  O  O291  1  0.05820899  0.25034831  0.93759950  1
  O  O292  1  0.05911847  0.58330029  0.18735046  1
  O  O293  1  0.05643149  0.58282434  0.43595662  1
  O  O294  1  0.05558398  0.58274898  0.68739857  1
  O  O295  1  0.05615513  0.58339621  0.93653116  1
  O  O296  1  0.05676502  0.91686761  0.18571783  1
  O  O297  1  0.05634214  0.91709069  0.43696055  1
  O  O298  1  0.05607373  0.91673180  0.68753063  1
  O  O299  1  0.05907339  0.91700600  0.93806678  1
  O  O300  1  0.55791940  0.24977592  0.18750484  1
  O  O301  1  0.55700778  0.24946312  0.43660659  1
  O  O302  1  0.55868669  0.24980191  0.68815791  1
  O  O303  1  0.55674749  0.24963558  0.93632547  1
  O  O304  1  0.55555308  0.58361172  0.18619497  1
  O  O305  1  0.55615082  0.58359875  0.43704266  1
  O  O306  1  0.55905659  0.58341196  0.68828702  1
  O  O307  1  0.55763722  0.58361306  0.93619819  1
  O  O308  1  0.55603467  0.91636067  0.18590426  1
  O  O309  1  0.55752361  0.91721437  0.43777811  1
  O  O310  1  0.55719012  0.91678336  0.68660016  1
  O  O311  1  0.55809546  0.91637243  0.93826424  1
  O  O312  1  0.44110689  0.08338686  0.06193755  1
  O  O313  1  0.44352474  0.08325119  0.31363387  1
  O  O314  1  0.44120698  0.08373431  0.56216111  1
  O  O315  1  0.44363444  0.08294088  0.81374295  1
  O  O316  1  0.44446175  0.41593498  0.06318322  1
  O  O317  1  0.44401657  0.41639744  0.31340993  1
  O  O318  1  0.44328532  0.41646318  0.56378538  1
  O  O319  1  0.44262614  0.41649640  0.81201214  1
  O  O320  1  0.43918347  0.75042205  0.06253809  1
  O  O321  1  0.44087933  0.75005405  0.31202704  1
  O  O322  1  0.44405408  0.75007894  0.56413517  1
  O  O323  1  0.44099689  0.75044855  0.81276449  1
  O  O324  1  0.94463951  0.08351352  0.06277269  1
  O  O325  1  0.94351763  0.08358610  0.31372087  1
  O  O326  1  0.94098360  0.08318718  0.56289122  1
  O  O327  1  0.94144926  0.08363284  0.81237612  1
  O  O328  1  0.94115040  0.41641700  0.06176533  1
  O  O329  1  0.94338409  0.41582226  0.31347184  1
  O  O330  1  0.94076649  0.41618543  0.56299338  1
  O  O331  1  0.93972943  0.41648666  0.81282247  1
  O  O332  1  0.94189591  0.75073938  0.06174557  1
  O  O333  1  0.94476665  0.75048677  0.31322002  1
  O  O334  1  0.94332360  0.75033237  0.56385101  1
  O  O335  1  0.94049167  0.75005656  0.81286956  1
  O  O336  1  0.19143490  0.08356265  0.06221864  1
  O  O337  1  0.19096759  0.08302499  0.31202321  1
  O  O338  1  0.19152786  0.08319518  0.56262127  1
  O  O339  1  0.19051658  0.08386460  0.81241492  1
  O  O340  1  0.19361773  0.41571599  0.06091192  1
  O  O341  1  0.19394052  0.41652425  0.31127807  1
  O  O342  1  0.19382943  0.41637588  0.56221075  1
  O  O343  1  0.19389427  0.41647960  0.81168827  1
  O  O344  1  0.19089586  0.75096152  0.06195499  1
  O  O345  1  0.19134854  0.75058412  0.31213908  1
  O  O346  1  0.19005978  0.75003500  0.56292006  1
  O  O347  1  0.19162172  0.74993017  0.81224042  1
  O  O348  1  0.69046097  0.08336480  0.06267019  1
  O  O349  1  0.69017476  0.08310393  0.31180168  1
  O  O350  1  0.69399175  0.08310097  0.56103143  1
  O  O351  1  0.69135108  0.08363774  0.81362864  1
  O  O352  1  0.69088625  0.41601955  0.06214132  1
  O  O353  1  0.69333231  0.41593458  0.31088984  1
  O  O354  1  0.69458934  0.41651686  0.56231772  1
  O  O355  1  0.69197161  0.41575552  0.81341418  1
  O  O356  1  0.69396112  0.75086388  0.06182965  1
  O  O357  1  0.69007340  0.75029310  0.31263766  1
  O  O358  1  0.69069010  0.75022177  0.56229150  1
  O  O359  1  0.69361769  0.75014537  0.81128287  1
  O  O360  1  0.30852948  0.24968300  0.18687050  1
  O  O361  1  0.30620339  0.24890278  0.43861469  1
  O  O362  1  0.30958215  0.24959955  0.68798745  1
  O  O363  1  0.30979432  0.24939811  0.93735844  1
  O  O364  1  0.30524095  0.58357477  0.18822245  1
  O  O365  1  0.30657257  0.58407163  0.43932775  1
  O  O366  1  0.30920335  0.58373053  0.68716682  1
  O  O367  1  0.30691025  0.58318292  0.93787506  1
  O  O368  1  0.30617945  0.91724335  0.18888361  1
  O  O369  1  0.30872909  0.91711443  0.43710262  1
  O  O370  1  0.30718362  0.91663667  0.68889483  1
  O  O371  1  0.30758458  0.91795488  0.93684474  1
  O  O372  1  0.80875949  0.24878702  0.18672957  1
  O  O373  1  0.80608357  0.24909626  0.43790242  1
  O  O374  1  0.80658842  0.24909967  0.68933148  1
  O  O375  1  0.80926312  0.24895234  0.93781937  1
  O  O376  1  0.80651978  0.58400987  0.18853273  1
  O  O377  1  0.80708409  0.58374679  0.43863387  1
  O  O378  1  0.80794247  0.58403230  0.68683363  1
  O  O379  1  0.80577555  0.58359287  0.93827941  1
  O  O380  1  0.80985602  0.91720635  0.18712538  1
  O  O381  1  0.80536165  0.91686379  0.43778418  1
  O  O382  1  0.80634286  0.91713056  0.68814878  1
  O  O383  1  0.80670699  0.91710806  0.93926730  1
  O  O384  1  0.23415558  0.24911911  0.03721294  1
  O  O385  1  0.23268194  0.24984892  0.28676514  1
  O  O386  1  0.23298930  0.24939117  0.54037377  1
  O  O387  1  0.23566799  0.24998487  0.78886909  1
  O  O388  1  0.23352036  0.58408294  0.03932294  1
  O  O389  1  0.23156553  0.58376186  0.28980351  1
  O  O390  1  0.23425759  0.58334768  0.54141334  1
  O  O391  1  0.23534003  0.58361857  0.78857435  1
  O  O392  1  0.23264666  0.91740086  0.03761873  1
  O  O393  1  0.23407275  0.91654664  0.29102412  1
  O  O394  1  0.23469145  0.91740102  0.53838784  1
  O  O395  1  0.23460147  0.91657059  0.79063335  1
  O  O396  1  0.73520036  0.24953697  0.03829964  1
  O  O397  1  0.73296193  0.24979441  0.28674802  1
  O  O398  1  0.73411333  0.24916228  0.54080722  1
  O  O399  1  0.73320962  0.24985521  0.79103214  1
  O  O400  1  0.73396582  0.58404988  0.04087111  1
  O  O401  1  0.73323182  0.58272032  0.29024765  1
  O  O402  1  0.73446544  0.58329279  0.54058655  1
  O  O403  1  0.73319815  0.58313433  0.78766633  1
  O  O404  1  0.73278973  0.91682066  0.04045861  1
  O  O405  1  0.73441206  0.91706727  0.28702146  1
  O  O406  1  0.73177808  0.91755835  0.53955689  1
  O  O407  1  0.73405782  0.91644482  0.79042470  1
  O  O408  1  0.26477230  0.08323695  0.21099134  1
  O  O409  1  0.26623416  0.08405011  0.46165907  1
  O  O410  1  0.26504688  0.08333148  0.71216352  1
  O  O411  1  0.26597649  0.08384772  0.96144646  1
  O  O412  1  0.26607839  0.41670593  0.20859445  1
  O  O413  1  0.26638889  0.41586420  0.45985275  1
  O  O414  1  0.26872453  0.41637910  0.71120143  1
  O  O415  1  0.26689270  0.41581477  0.95945750  1
  O  O416  1  0.26589888  0.75062167  0.21137094  1
  O  O417  1  0.26474407  0.74973448  0.46255588  1
  O  O418  1  0.26704047  0.75024532  0.71210420  1
  O  O419  1  0.26597855  0.75056480  0.96184321  1
  O  O420  1  0.76427471  0.08347488  0.21089000  1
  O  O421  1  0.76714368  0.08329438  0.45900613  1
  O  O422  1  0.76688929  0.08372257  0.71334913  1
  O  O423  1  0.76487762  0.08274357  0.96225007  1
  O  O424  1  0.76544644  0.41628693  0.20867986  1
  O  O425  1  0.76867401  0.41608988  0.46099667  1
  O  O426  1  0.76688599  0.41606400  0.71301583  1
  O  O427  1  0.76629952  0.41659413  0.96225033  1
  O  O428  1  0.76516614  0.75045954  0.21235748  1
  O  O429  1  0.76444921  0.75047289  0.46103741  1
  O  O430  1  0.76740009  0.75056696  0.71001661  1
  O  O431  1  0.76824999  0.75034827  0.96072041  1
  O  O432  1  0.01840786  0.08316417  0.16408281  1
  O  O433  1  0.01787708  0.08328852  0.41441909  1
  O  O434  1  0.01640069  0.08342950  0.66293489  1
  O  O435  1  0.01690486  0.08380639  0.91247022  1
  O  O436  1  0.01546193  0.41523271  0.16266732  1
  O  O437  1  0.01614801  0.41682231  0.41527795  1
  O  O438  1  0.01433700  0.41616781  0.66446985  1
  O  O439  1  0.01411781  0.41675998  0.91365728  1
  O  O440  1  0.01744517  0.75125230  0.16173681  1
  O  O441  1  0.01865095  0.75002358  0.41441131  1
  O  O442  1  0.01712082  0.75012204  0.66516542  1
  O  O443  1  0.01637707  0.75039276  0.91251484  1
  O  O444  1  0.51645767  0.08319314  0.16216762  1
  O  O445  1  0.51713816  0.08329092  0.41507263  1
  O  O446  1  0.51547085  0.08270140  0.66311070  1
  O  O447  1  0.51685350  0.08401322  0.91517335  1
  O  O448  1  0.51802620  0.41567115  0.16462416  1
  O  O449  1  0.51681445  0.41638041  0.41572945  1
  O  O450  1  0.51575195  0.41644622  0.66574374  1
  O  O451  1  0.51795354  0.41557984  0.91214408  1
  O  O452  1  0.51399083  0.75078271  0.16284718  1
  O  O453  1  0.51623774  0.75051611  0.41248577  1
  O  O454  1  0.51761129  0.75061181  0.66566258  1
  O  O455  1  0.51461295  0.75016226  0.91383672  1
  O  O456  1  0.48362030  0.24997918  0.08630734  1
  O  O457  1  0.48458372  0.24885361  0.33444347  1
  O  O458  1  0.48293512  0.25028896  0.58807434  1
  O  O459  1  0.48320916  0.24887809  0.83519644  1
  O  O460  1  0.48324144  0.58221381  0.08371464  1
  O  O461  1  0.48342841  0.58372398  0.33471254  1
  O  O462  1  0.48325341  0.58375584  0.58809753  1
  O  O463  1  0.48509313  0.58339389  0.83465031  1
  O  O464  1  0.48358198  0.91716114  0.08418707  1
  O  O465  1  0.48302011  0.91729702  0.33652704  1
  O  O466  1  0.48461671  0.91606245  0.58476926  1
  O  O467  1  0.48277012  0.91761864  0.83786490  1
  O  O468  1  0.98420485  0.24931227  0.08631780  1
  O  O469  1  0.98575651  0.24923999  0.33616185  1
  O  O470  1  0.98428021  0.24963059  0.58483490  1
  O  O471  1  0.98285665  0.24943765  0.83717764  1
  O  O472  1  0.98482064  0.58421864  0.08644350  1
  O  O473  1  0.98467053  0.58354424  0.33314187  1
  O  O474  1  0.98165421  0.58389437  0.58599609  1
  O  O475  1  0.98321560  0.58367787  0.83497240  1
  O  O476  1  0.98361269  0.91747093  0.08386721  1
  O  O477  1  0.98430318  0.91707055  0.33427446  1
  O  O478  1  0.98399673  0.91638889  0.58494204  1
  O  O479  1  0.98510293  0.91690061  0.83700045  1
  O  O480  1  0.08822395  0.31366283  0.07598198  1
  O  O481  1  0.08947618  0.31396347  0.32709100  1
  O  O482  1  0.08842591  0.31421177  0.57720795  1
  O  O483  1  0.08611642  0.31473441  0.82716122  1
  O  O484  1  0.08845170  0.64933957  0.07798488  1
  O  O485  1  0.08848336  0.64923029  0.32742466  1
  O  O486  1  0.08577746  0.64875451  0.57855171  1
  O  O487  1  0.08694570  0.64934394  0.82769242  1
  O  O488  1  0.08784770  0.98230548  0.07665707  1
  O  O489  1  0.08811291  0.98207515  0.32804403  1
  O  O490  1  0.08765273  0.98179362  0.57841855  1
  O  O491  1  0.08866179  0.98197159  0.82843952  1
  O  O492  1  0.58742885  0.31475933  0.07761911  1
  O  O493  1  0.58887742  0.31341224  0.32718818  1
  O  O494  1  0.58663651  0.31509124  0.57814522  1
  O  O495  1  0.58733056  0.31407348  0.82658072  1
  O  O496  1  0.58659830  0.64781109  0.07677702  1
  O  O497  1  0.58691686  0.64927974  0.32784754  1
  O  O498  1  0.58658420  0.64952145  0.57860569  1
  O  O499  1  0.58938306  0.64765248  0.82684241  1
  O  O500  1  0.58775055  0.98222394  0.07713322  1
  O  O501  1  0.58668324  0.98231075  0.32809627  1
  O  O502  1  0.58879313  0.98046870  0.57687691  1
  O  O503  1  0.58631743  0.98299254  0.82867045  1
  O  O504  1  0.41249664  0.01929741  0.17214193  1
  O  O505  1  0.41315156  0.01759846  0.42293278  1
  O  O506  1  0.41152458  0.01884987  0.67192338  1
  O  O507  1  0.41278346  0.01862058  0.92361116  1
  O  O508  1  0.41423962  0.35011745  0.17236710  1
  O  O509  1  0.41320381  0.35096567  0.42225001  1
  O  O510  1  0.41153392  0.35171721  0.67293504  1
  O  O511  1  0.41433894  0.35030870  0.92167588  1
  O  O512  1  0.41057396  0.68505002  0.17268811  1
  O  O513  1  0.41253762  0.68605260  0.42244358  1
  O  O514  1  0.41393779  0.68440004  0.67355460  1
  O  O515  1  0.41030320  0.68643885  0.92263908  1
  O  O516  1  0.91450484  0.01813944  0.17192054  1
  O  O517  1  0.91375056  0.01850275  0.42347242  1
  O  O518  1  0.91267326  0.01809117  0.67302845  1
  O  O519  1  0.91329068  0.01914531  0.92270727  1
  O  O520  1  0.91204379  0.34988453  0.17111342  1
  O  O521  1  0.91260082  0.35102821  0.42298890  1
  O  O522  1  0.90997930  0.35252709  0.67298393  1
  O  O523  1  0.91087064  0.35034012  0.92236426  1
  O  O524  1  0.91358480  0.68695994  0.17240836  1
  O  O525  1  0.91463376  0.68526037  0.42248350  1
  O  O526  1  0.91309785  0.68453795  0.67320795  1
  O  O527  1  0.91276039  0.68500440  0.92313322  1
  O  O528  1  0.16077052  0.01908868  0.20192850  1
  O  O529  1  0.16233359  0.01956683  0.45210476  1
  O  O530  1  0.16128994  0.01862885  0.70236748  1
  O  O531  1  0.16204107  0.01887092  0.95217173  1
  O  O532  1  0.16228430  0.35164478  0.20213489  1
  O  O533  1  0.16286523  0.35031363  0.45340055  1
  O  O534  1  0.16473377  0.35164372  0.70216894  1
  O  O535  1  0.16336116  0.34990397  0.95181170  1
  O  O536  1  0.16239107  0.68452750  0.20238512  1
  O  O537  1  0.16087869  0.68492769  0.45306982  1
  O  O538  1  0.16316502  0.68508494  0.70205019  1
  O  O539  1  0.16189091  0.68641963  0.95157041  1
  O  O540  1  0.66002549  0.01942004  0.20173786  1
  O  O541  1  0.66327741  0.01734226  0.45175395  1
  O  O542  1  0.66292566  0.01956539  0.70335730  1
  O  O543  1  0.66135161  0.01685608  0.95316278  1
  O  O544  1  0.66197225  0.35015486  0.20166913  1
  O  O545  1  0.66468239  0.35141760  0.45297559  1
  O  O546  1  0.66360519  0.35039741  0.70349175  1
  O  O547  1  0.66271768  0.35130247  0.95182312  1
  O  O548  1  0.66180870  0.68496591  0.20255449  1
  O  O549  1  0.66015311  0.68648077  0.45240898  1
  O  O550  1  0.66378956  0.68428504  0.70179688  1
  O  O551  1  0.66390039  0.68659556  0.95223687  1
  O  O552  1  0.33830508  0.31346122  0.04780536  1
  O  O553  1  0.33622445  0.31496530  0.29701641  1
  O  O554  1  0.33755639  0.31327241  0.54802686  1
  O  O555  1  0.33935008  0.31570587  0.79749735  1
  O  O556  1  0.33711966  0.64924206  0.04685282  1
  O  O557  1  0.33499680  0.64963264  0.29750283  1
  O  O558  1  0.33830488  0.64849755  0.54875642  1
  O  O559  1  0.33881848  0.64880708  0.79674378  1
  O  O560  1  0.33603857  0.98277784  0.04702910  1
  O  O561  1  0.33840237  0.98080326  0.29830788  1
  O  O562  1  0.33798026  0.98318277  0.54648854  1
  O  O563  1  0.33874996  0.98084547  0.79851027  1
  O  O564  1  0.83862955  0.31557227  0.04709898  1
  O  O565  1  0.83679793  0.31443536  0.29659872  1
  O  O566  1  0.83803348  0.31389665  0.54701292  1
  O  O567  1  0.83748157  0.31453122  0.79835492  1
  O  O568  1  0.83802477  0.64868611  0.04713478  1
  O  O569  1  0.83655996  0.64864434  0.29816180  1
  O  O570  1  0.83852450  0.64805389  0.54798765  1
  O  O571  1  0.83646814  0.64905256  0.79676415  1
  O  O572  1  0.83713133  0.98104649  0.04904781  1
  O  O573  1  0.83786695  0.98212867  0.29715188  1
  O  O574  1  0.83562244  0.98304161  0.54672980  1
  O  O575  1  0.83761850  0.98193906  0.79763195  1
  O  O576  1  0.41340102  0.14943367  0.17195804  1
  O  O577  1  0.41276718  0.14752896  0.42320729  1
  O  O578  1  0.41236355  0.14895448  0.67213098  1
  O  O579  1  0.41262173  0.14855123  0.92283944  1
  O  O580  1  0.41400572  0.48026207  0.17274643  1
  O  O581  1  0.41287959  0.48129094  0.42237694  1
  O  O582  1  0.41200567  0.48188050  0.67299402  1
  O  O583  1  0.41439396  0.48050445  0.92243656  1
  O  O584  1  0.40995058  0.81507323  0.17253168  1
  O  O585  1  0.41297969  0.81622466  0.42193224  1
  O  O586  1  0.41295470  0.81428629  0.67358038  1
  O  O587  1  0.41114556  0.81653903  0.92230350  1
  O  O588  1  0.91467813  0.14837647  0.17247727  1
  O  O589  1  0.91393828  0.14833005  0.42349919  1
  O  O590  1  0.91245360  0.14808594  0.67312656  1
  O  O591  1  0.91333741  0.14909339  0.92249738  1
  O  O592  1  0.91212757  0.48037166  0.17192059  1
  O  O593  1  0.91180442  0.48105263  0.42252512  1
  O  O594  1  0.91099887  0.48266186  0.67231277  1
  O  O595  1  0.90982876  0.48050160  0.92286154  1
  O  O596  1  0.91419357  0.81721651  0.17137283  1
  O  O597  1  0.91487302  0.81522401  0.42300868  1
  O  O598  1  0.91290037  0.81450742  0.67354616  1
  O  O599  1  0.91245088  0.81495985  0.92316989  1
  O  O600  1  0.08790124  0.18372774  0.07707886  1
  O  O601  1  0.08948737  0.18383734  0.32822849  1
  O  O602  1  0.08813492  0.18414814  0.57790522  1
  O  O603  1  0.08680310  0.18460642  0.82800286  1
  O  O604  1  0.08808279  0.51895667  0.07717249  1
  O  O605  1  0.08883133  0.51911765  0.32655092  1
  O  O606  1  0.08521989  0.51856943  0.57761540  1
  O  O607  1  0.08706581  0.51903932  0.82707203  1
  O  O608  1  0.08773675  0.85229504  0.07626763  1
  O  O609  1  0.08799914  0.85186188  0.32794108  1
  O  O610  1  0.08797680  0.85156448  0.57882159  1
  O  O611  1  0.08851900  0.85154248  0.82846159  1
  O  O612  1  0.58709069  0.18468126  0.07758789  1
  O  O613  1  0.58832579  0.18329970  0.32776083  1
  O  O614  1  0.58641979  0.18501675  0.57799380  1
  O  O615  1  0.58731496  0.18401764  0.82716776  1
  O  O616  1  0.58737954  0.51737899  0.07789647  1
  O  O617  1  0.58737281  0.51894903  0.32814109  1
  O  O618  1  0.58695513  0.51924986  0.57790130  1
  O  O619  1  0.58877624  0.51743926  0.82718965  1
  O  O620  1  0.58758181  0.85228061  0.07619336  1
  O  O621  1  0.58656611  0.85208785  0.32781099  1
  O  O622  1  0.58829515  0.85038773  0.57782715  1
  O  O623  1  0.58640528  0.85278143  0.82786739  1
  O  O624  1  0.33763633  0.18339916  0.04741906  1
  O  O625  1  0.33611287  0.18489987  0.29723654  1
  O  O626  1  0.33669861  0.18337269  0.54804054  1
  O  O627  1  0.33951285  0.18561805  0.79818457  1
  O  O628  1  0.33705521  0.51882569  0.04741637  1
  O  O629  1  0.33565572  0.51936436  0.29765926  1
  O  O630  1  0.33859407  0.51855526  0.54799134  1
  O  O631  1  0.33891620  0.51838240  0.79681326  1
  O  O632  1  0.33632150  0.85255119  0.04656509  1
  O  O633  1  0.33778548  0.85073845  0.29760395  1
  O  O634  1  0.33830500  0.85291544  0.54711000  1
  O  O635  1  0.33834790  0.85076732  0.79786173  1
  O  O636  1  0.83927706  0.18544059  0.04823731  1
  O  O637  1  0.83635773  0.18446089  0.29720108  1
  O  O638  1  0.83762107  0.18362225  0.54677851  1
  O  O639  1  0.83719565  0.18447608  0.79895406  1
  O  O640  1  0.83743391  0.51826818  0.04716793  1
  O  O641  1  0.83739914  0.51842263  0.29717815  1
  O  O642  1  0.83839222  0.51786826  0.54765774  1
  O  O643  1  0.83706578  0.51878215  0.79669989  1
  O  O644  1  0.83679466  0.85103250  0.04831925  1
  O  O645  1  0.83783764  0.85195246  0.29736472  1
  O  O646  1  0.83570927  0.85284341  0.54737404  1
  O  O647  1  0.83807143  0.85166743  0.79681441  1
  O  O648  1  0.16124516  0.14906714  0.20232033  1
  O  O649  1  0.16256398  0.14956100  0.45317625  1
  O  O650  1  0.16137306  0.14857641  0.70238436  1
  O  O651  1  0.16213952  0.14892869  0.95223982  1
  O  O652  1  0.16230024  0.48195360  0.20247751  1
  O  O653  1  0.16256232  0.48063622  0.45308735  1
  O  O654  1  0.16495921  0.48164196  0.70198348  1
  O  O655  1  0.16284024  0.48025907  0.95167829  1
  O  O656  1  0.16185872  0.81461292  0.20181895  1
  O  O657  1  0.16128251  0.81498997  0.45261105  1
  O  O658  1  0.16313453  0.81495003  0.70218041  1
  O  O659  1  0.16253368  0.81646142  0.95190643  1
  O  O660  1  0.66080409  0.14942400  0.20219679  1
  O  O661  1  0.66257481  0.14726667  0.45177436  1
  O  O662  1  0.66368247  0.14972126  0.70360101  1
  O  O663  1  0.66086587  0.14692642  0.95231384  1
  O  O664  1  0.66095211  0.48014667  0.20166341  1
  O  O665  1  0.66498537  0.48151468  0.45281608  1
  O  O666  1  0.66316378  0.48074234  0.70324892  1
  O  O667  1  0.66240603  0.48137730  0.95213865  1
  O  O668  1  0.66144833  0.81507001  0.20256611  1
  O  O669  1  0.66105501  0.81667519  0.45284080  1
  O  O670  1  0.66270087  0.81425969  0.70192557  1
  O  O671  1  0.66481065  0.81664575  0.95229112  1
