# generated using pymatgen
data_Na2MnFe(PO4)2
_symmetry_space_group_name_H-M   'P 1'
_cell_length_a   21.08566720
_cell_length_b   18.93888734
_cell_length_c   20.04520013
_cell_angle_alpha   89.99967847
_cell_angle_beta   89.99891462
_cell_angle_gamma   89.99982103
_symmetry_Int_Tables_number   1
_chemical_formula_structural   Na2MnFe(PO4)2
_chemical_formula_sum   'Na96 Mn48 Fe48 P96 O384'
_cell_volume   8004.83168410
_cell_formula_units_Z   48
loop_
 _symmetry_equiv_pos_site_id
 _symmetry_equiv_pos_as_xyz
  1  'x, y, z'
loop_
 _atom_site_type_symbol
 _atom_site_label
 _atom_site_symmetry_multiplicity
 _atom_site_fract_x
 _atom_site_fract_y
 _atom_site_fract_z
 _atom_site_occupancy
  Na  Na0  1  -0.00010895  -0.00035786  0.00072177  1
  Na  Na1  1  0.00193674  0.00095328  0.24867829  1
  Na  Na2  1  0.00013548  0.00002506  0.49956995  1
  Na  Na3  1  0.00033070  -0.00017637  0.75064654  1
  Na  Na4  1  0.00140100  0.33493958  -0.00048761  1
  Na  Na5  1  -0.00117629  0.33380157  0.25046272  1
  Na  Na6  1  -0.00292565  0.33301326  0.50084736  1
  Na  Na7  1  -0.00214080  0.33277569  0.74887166  1
  Na  Na8  1  0.00227908  0.66707222  0.00031337  1
  Na  Na9  1  -0.00083541  0.66594111  0.25099612  1
  Na  Na10  1  0.00066057  0.66752462  0.49887450  1
  Na  Na11  1  0.00092483  0.66664023  0.75000510  1
  Na  Na12  1  0.50183242  0.00035301  0.00057999  1
  Na  Na13  1  0.50330736  0.00053897  0.25085871  1
  Na  Na14  1  0.50012775  -0.00060754  0.50014095  1
  Na  Na15  1  0.49857041  -0.00067412  0.74935213  1
  Na  Na16  1  0.49963233  0.33356928  0.00060705  1
  Na  Na17  1  0.49863850  0.33304670  0.24995938  1
  Na  Na18  1  0.50019680  0.33443799  0.49945531  1
  Na  Na19  1  0.50006343  0.33405883  0.74924584  1
  Na  Na20  1  0.49887794  0.66616960  0.00011019  1
  Na  Na21  1  0.50244071  0.66697858  0.25091264  1
  Na  Na22  1  0.50290237  0.66715161  0.49953825  1
  Na  Na23  1  0.49897152  0.66609934  0.75018353  1
  Na  Na24  1  0.24775126  -0.00148055  0.12556512  1
  Na  Na25  1  0.24937630  0.00080130  0.37536167  1
  Na  Na26  1  0.24945168  0.00029635  0.62478779  1
  Na  Na27  1  0.25019367  -0.00014694  0.87458357  1
  Na  Na28  1  0.25173083  0.33429951  0.12480941  1
  Na  Na29  1  0.25025631  0.33405775  0.37374792  1
  Na  Na30  1  0.24952486  0.33376703  0.62520025  1
  Na  Na31  1  0.25020126  0.33354821  0.87614322  1
  Na  Na32  1  0.24989182  0.66662545  0.12607748  1
  Na  Na33  1  0.24807225  0.66568225  0.37487660  1
  Na  Na34  1  0.25006689  0.66703337  0.62479921  1
  Na  Na35  1  0.24922972  0.66621501  0.87396320  1
  Na  Na36  1  0.74779673  -0.00027189  0.12466231  1
  Na  Na37  1  0.74865982  -0.00120536  0.37472661  1
  Na  Na38  1  0.75175045  -0.00014126  0.62559037  1
  Na  Na39  1  0.75027984  0.00023845  0.87457560  1
  Na  Na40  1  0.74831564  0.33319826  0.12355844  1
  Na  Na41  1  0.75270980  0.33441017  0.37631001  1
  Na  Na42  1  0.75292144  0.33437626  0.62497144  1
  Na  Na43  1  0.74899702  0.33340518  0.87465517  1
  Na  Na44  1  0.74939959  0.66676496  0.12482178  1
  Na  Na45  1  0.74911439  0.66633560  0.37570953  1
  Na  Na46  1  0.75031064  0.66687137  0.62528449  1
  Na  Na47  1  0.74948189  0.66658706  0.87482128  1
  Na  Na48  1  -0.00186601  0.16809475  0.00032685  1
  Na  Na49  1  -0.00114132  0.16684348  0.24906434  1
  Na  Na50  1  -0.00153197  0.16727834  0.50071110  1
  Na  Na51  1  0.00059449  0.16603025  0.74964318  1
  Na  Na52  1  0.00162173  0.49929560  -0.00096961  1
  Na  Na53  1  0.00121427  0.49938594  0.25104040  1
  Na  Na54  1  -0.00059917  0.49996299  0.49934046  1
  Na  Na55  1  0.00005104  0.49974383  0.75030602  1
  Na  Na56  1  0.00213237  0.83252774  0.00088063  1
  Na  Na57  1  0.00029944  0.83284385  0.24993078  1
  Na  Na58  1  -0.00044344  0.83269115  0.49901396  1
  Na  Na59  1  0.00069243  0.83272958  0.75005614  1
  Na  Na60  1  0.49880157  0.16771358  -0.00022893  1
  Na  Na61  1  0.50116231  0.16639135  0.25049354  1
  Na  Na62  1  0.49906389  0.16724400  0.50045467  1
  Na  Na63  1  0.49924672  0.16698645  0.74945122  1
  Na  Na64  1  0.49973819  0.49947696  0.00116471  1
  Na  Na65  1  0.50021248  0.49973110  0.25085392  1
  Na  Na66  1  0.50025105  0.50013416  0.49882770  1
  Na  Na67  1  0.49987996  0.49931882  0.74917756  1
  Na  Na68  1  0.50141232  0.83313495  0.00012164  1
  Na  Na69  1  0.50330228  0.83307486  0.25033917  1
  Na  Na70  1  0.50360184  0.83217787  0.49982465  1
  Na  Na71  1  0.49921402  0.83337419  0.75028835  1
  Na  Na72  1  0.25127621  0.16651552  0.12538775  1
  Na  Na73  1  0.24977496  0.16682951  0.37436576  1
  Na  Na74  1  0.24879033  0.16706620  0.62447867  1
  Na  Na75  1  0.25004666  0.16694010  0.87554005  1
  Na  Na76  1  0.25037051  0.49950439  0.12586307  1
  Na  Na77  1  0.24995784  0.49990141  0.37381484  1
  Na  Na78  1  0.25017073  0.49958886  0.62568368  1
  Na  Na79  1  0.24918516  0.50031034  0.87411708  1
  Na  Na80  1  0.24843820  0.83348034  0.12508282  1
  Na  Na81  1  0.24737609  0.83381719  0.37590845  1
  Na  Na82  1  0.24988409  0.83274054  0.62453560  1
  Na  Na83  1  0.24996391  0.83310093  0.87503629  1
  Na  Na84  1  0.74905301  0.16748706  0.12438378  1
  Na  Na85  1  0.75312018  0.16587538  0.37507822  1
  Na  Na86  1  0.75260815  0.16717709  0.62485990  1
  Na  Na87  1  0.75156751  0.16671140  0.87483777  1
  Na  Na88  1  0.74838575  0.49990976  0.12384917  1
  Na  Na89  1  0.75012303  0.49970719  0.37553597  1
  Na  Na90  1  0.75103901  0.49976239  0.62611904  1
  Na  Na91  1  0.74849255  0.49948671  0.87461360  1
  Na  Na92  1  0.74751617  0.83351144  0.12487160  1
  Na  Na93  1  0.74941347  0.83261258  0.37586540  1
  Na  Na94  1  0.74964365  0.83338380  0.62515606  1
  Na  Na95  1  0.74873900  0.83362339  0.87453702  1
  Mn  Mn96  1  0.85721759  0.41653190  0.00191124  1
  Mn  Mn97  1  0.89308560  0.58323184  0.87758618  1
  Mn  Mn98  1  0.14282595  0.25023699  0.99766310  1
  Mn  Mn99  1  0.35817436  0.08313848  0.00295914  1
  Mn  Mn100  1  0.39302348  0.91663173  0.12775535  1
  Mn  Mn101  1  0.10766181  0.08435883  0.12210159  1
  Mn  Mn102  1  0.60733460  0.08406146  0.87216878  1
  Mn  Mn103  1  0.14130586  0.91649903  0.49751517  1
  Mn  Mn104  1  0.14195022  0.24995326  0.24774181  1
  Mn  Mn105  1  0.14235375  0.91731464  0.74731558  1
  Mn  Mn106  1  0.35781477  0.41635132  0.75220958  1
  Mn  Mn107  1  0.14214422  0.58327450  0.74666446  1
  Mn  Mn108  1  0.89215156  0.58303352  0.12694326  1
  Mn  Mn109  1  0.35714536  0.08304666  0.75195139  1
  Mn  Mn110  1  0.85832214  0.74952852  0.75223759  1
  Mn  Mn111  1  0.64185910  0.58310187  0.74729579  1
  Mn  Mn112  1  0.64096839  0.58313354  0.99756813  1
  Mn  Mn113  1  0.64410919  0.24973015  0.49808474  1
  Mn  Mn114  1  0.89132109  0.25125416  0.12672845  1
  Mn  Mn115  1  0.10779050  0.74896429  0.12312231  1
  Mn  Mn116  1  0.60832780  0.08349849  0.62194158  1
  Mn  Mn117  1  0.35825644  0.08279570  0.25222776  1
  Mn  Mn118  1  0.35786198  0.74970806  0.50195975  1
  Mn  Mn119  1  0.89267955  0.91657060  0.87822249  1
  Mn  Mn120  1  0.39191986  0.24954941  0.37762957  1
  Mn  Mn121  1  0.39252811  0.91556821  0.62641256  1
  Mn  Mn122  1  0.64197656  0.91696926  0.74767639  1
  Mn  Mn123  1  0.64254377  0.24994756  0.74771537  1
  Mn  Mn124  1  0.35839105  0.75048573  0.25259575  1
  Mn  Mn125  1  0.14125175  0.25121885  0.49730499  1
  Mn  Mn126  1  0.85724686  0.08314561  0.25224843  1
  Mn  Mn127  1  0.10744022  0.08391078  0.87331857  1
  Mn  Mn128  1  0.35729828  0.74951073  0.00293786  1
  Mn  Mn129  1  0.14221921  0.58335337  0.24769209  1
  Mn  Mn130  1  0.39148933  0.58278509  0.87770105  1
  Mn  Mn131  1  0.60688214  0.74938683  0.87250564  1
  Mn  Mn132  1  0.89197198  0.91729893  0.37656819  1
  Mn  Mn133  1  0.64283790  0.25044583  0.24799209  1
  Mn  Mn134  1  0.10670593  0.41691239  0.62229946  1
  Mn  Mn135  1  0.39300754  0.91626137  0.37702326  1
  Mn  Mn136  1  0.39303238  0.58417385  0.37773621  1
  Mn  Mn137  1  0.39174741  0.25075732  0.62703450  1
  Mn  Mn138  1  0.60862242  0.41648518  0.37282968  1
  Mn  Mn139  1  0.85891108  0.08376675  0.75267192  1
  Mn  Mn140  1  0.89179349  0.91616869  0.12712564  1
  Mn  Mn141  1  0.89173849  0.58302982  0.37735543  1
  Mn  Mn142  1  0.85766620  0.75052974  0.00214341  1
  Mn  Mn143  1  0.60886557  0.08362548  0.37395586  1
  Fe  Fe144  1  0.85694747  0.41721165  0.75231606  1
  Fe  Fe145  1  0.39211719  0.24984877  0.87665041  1
  Fe  Fe146  1  0.64282652  0.91629768  0.24794618  1
  Fe  Fe147  1  0.35736520  0.75022592  0.75102764  1
  Fe  Fe148  1  0.35743974  0.41687820  0.25150443  1
  Fe  Fe149  1  0.60917910  0.74988996  0.37322406  1
  Fe  Fe150  1  0.64385200  0.91670094  0.49920541  1
  Fe  Fe151  1  0.64241100  0.91728640  0.99776076  1
  Fe  Fe152  1  0.14215929  0.91670111  0.24867250  1
  Fe  Fe153  1  0.60751783  0.74920205  0.62361024  1
  Fe  Fe154  1  0.85778517  0.41754545  0.50226085  1
  Fe  Fe155  1  0.10651983  0.75025387  0.37313367  1
  Fe  Fe156  1  0.39303985  0.58355658  0.62512527  1
  Fe  Fe157  1  0.35688948  0.41680782  0.50113933  1
  Fe  Fe158  1  0.10767028  0.41631395  0.87324796  1
  Fe  Fe159  1  0.14200504  0.25004701  0.74896806  1
  Fe  Fe160  1  0.10788808  0.41657517  0.12331757  1
  Fe  Fe161  1  0.14228479  0.58271586  0.49891373  1
  Fe  Fe162  1  0.39290655  0.58313348  0.12689925  1
  Fe  Fe163  1  0.89260152  0.58396352  0.62639916  1
  Fe  Fe164  1  0.10716673  0.74999171  0.62299467  1
  Fe  Fe165  1  0.39240831  0.91699892  0.87736728  1
  Fe  Fe166  1  0.85709222  0.74989276  0.50220621  1
  Fe  Fe167  1  0.85618099  0.08316988  0.00149470  1
  Fe  Fe168  1  0.64169140  0.24950872  0.99754223  1
  Fe  Fe169  1  0.89301792  0.25031164  0.87680654  1
  Fe  Fe170  1  0.85879802  0.08237616  0.50173853  1
  Fe  Fe171  1  0.35674108  0.08374547  0.50151985  1
  Fe  Fe172  1  0.35736970  0.41718758  0.00203476  1
  Fe  Fe173  1  0.14270143  0.91600743  0.99803823  1
  Fe  Fe174  1  0.60668546  0.41633490  0.12377163  1
  Fe  Fe175  1  0.10676833  0.41629448  0.37346142  1
  Fe  Fe176  1  0.14329069  0.58338911  0.99881138  1
  Fe  Fe177  1  0.10664559  0.08297819  0.62295610  1
  Fe  Fe178  1  0.89313959  0.24986948  0.62762119  1
  Fe  Fe179  1  0.60622283  0.41633110  0.87330774  1
  Fe  Fe180  1  0.60762377  0.74955727  0.12315086  1
  Fe  Fe181  1  0.39363415  0.25002460  0.12653933  1
  Fe  Fe182  1  0.64336167  0.58338928  0.49939223  1
  Fe  Fe183  1  0.89284901  0.91597351  0.62613978  1
  Fe  Fe184  1  0.10819562  0.74981025  0.87294242  1
  Fe  Fe185  1  0.85736502  0.41765270  0.25091637  1
  Fe  Fe186  1  0.60782829  0.08402503  0.12273548  1
  Fe  Fe187  1  0.10711717  0.08368637  0.37364154  1
  Fe  Fe188  1  0.64302306  0.58289752  0.24806163  1
  Fe  Fe189  1  0.60767948  0.41713565  0.62287507  1
  Fe  Fe190  1  0.85617427  0.74946700  0.25134968  1
  Fe  Fe191  1  0.89282373  0.24992459  0.37616315  1
  P  P192  1  0.05311976  0.25152054  0.10978731  1
  P  P193  1  0.05187520  0.25034352  0.36027152  1
  P  P194  1  0.05297557  0.24962579  0.61133745  1
  P  P195  1  0.05280618  0.25086392  0.85941698  1
  P  P196  1  0.05405611  0.58198383  0.10950672  1
  P  P197  1  0.05465033  0.58300619  0.36168916  1
  P  P198  1  0.05233141  0.58385219  0.60909976  1
  P  P199  1  0.05561956  0.58318313  0.86119446  1
  P  P200  1  0.05507681  0.91640896  0.11043651  1
  P  P201  1  0.05348580  0.91678238  0.35929283  1
  P  P202  1  0.05212799  0.91630984  0.60996016  1
  P  P203  1  0.05487727  0.91597573  0.86121604  1
  P  P204  1  0.55328082  0.25032449  0.10993109  1
  P  P205  1  0.55376624  0.25016207  0.36024870  1
  P  P206  1  0.55366734  0.25129513  0.60959791  1
  P  P207  1  0.55260862  0.25092511  0.86075171  1
  P  P208  1  0.55344788  0.58295261  0.11181944  1
  P  P209  1  0.55650796  0.58373724  0.36088176  1
  P  P210  1  0.55311705  0.58307764  0.60932212  1
  P  P211  1  0.55258043  0.58193854  0.85985860  1
  P  P212  1  0.55592525  0.91663192  0.11081298  1
  P  P213  1  0.55668520  0.91606992  0.36115153  1
  P  P214  1  0.55433972  0.91557087  0.60943769  1
  P  P215  1  0.55294347  0.91693703  0.86080525  1
  P  P216  1  0.44863185  0.08370391  0.14017661  1
  P  P217  1  0.44657651  0.08283271  0.39105072  1
  P  P218  1  0.44538710  0.08332890  0.63861952  1
  P  P219  1  0.44618416  0.08324343  0.88988150  1
  P  P220  1  0.44584583  0.41677423  0.13944201  1
  P  P221  1  0.44514809  0.41691733  0.38947068  1
  P  P222  1  0.44634784  0.41800193  0.63809804  1
  P  P223  1  0.44652284  0.41585952  0.89074407  1
  P  P224  1  0.44832852  0.74954713  0.14032619  1
  P  P225  1  0.44920053  0.75029427  0.39017916  1
  P  P226  1  0.44746869  0.74869287  0.63985367  1
  P  P227  1  0.44479550  0.75071915  0.88916089  1
  P  P228  1  0.94480020  0.08342673  0.13858364  1
  P  P229  1  0.94735071  0.08386677  0.38988211  1
  P  P230  1  0.94655829  0.08246080  0.63878046  1
  P  P231  1  0.94596109  0.08434554  0.89117723  1
  P  P232  1  0.94742707  0.41731992  0.14046508  1
  P  P233  1  0.94556985  0.41626697  0.38925275  1
  P  P234  1  0.94408272  0.41790413  0.63931787  1
  P  P235  1  0.94679991  0.41593985  0.88860993  1
  P  P236  1  0.94582903  0.74955555  0.14105866  1
  P  P237  1  0.94499794  0.74995229  0.38892575  1
  P  P238  1  0.94654308  0.74967650  0.63838581  1
  P  P239  1  0.94864289  0.74974129  0.89041560  1
  P  P240  1  0.19509844  0.08291840  0.23613387  1
  P  P241  1  0.19535181  0.08384265  0.48545552  1
  P  P242  1  0.19534670  0.08459717  0.73432232  1
  P  P243  1  0.19701044  0.08280366  0.98500656  1
  P  P244  1  0.19590730  0.41646185  0.23543481  1
  P  P245  1  0.19682417  0.41777434  0.48428431  1
  P  P246  1  0.19500709  0.41543869  0.73600369  1
  P  P247  1  0.19643278  0.41769767  0.98578196  1
  P  P248  1  0.19544708  0.75069811  0.23648973  1
  P  P249  1  0.19429714  0.74870804  0.48555833  1
  P  P250  1  0.19609011  0.75027699  0.73486657  1
  P  P251  1  0.19607056  0.74919705  0.98468332  1
  P  P252  1  0.69609356  0.08320767  0.23447705  1
  P  P253  1  0.69954671  0.08280690  0.48553301  1
  P  P254  1  0.69734446  0.08382432  0.73459566  1
  P  P255  1  0.69575239  0.08371846  0.98562023  1
  P  P256  1  0.69745599  0.41730911  0.23444711  1
  P  P257  1  0.69734067  0.41737614  0.48686371  1
  P  P258  1  0.69581009  0.41629097  0.73541197  1
  P  P259  1  0.69373600  0.41562372  0.98516154  1
  P  P260  1  0.69589739  0.74922967  0.23582693  1
  P  P261  1  0.69622407  0.74969631  0.48663080  1
  P  P262  1  0.69600086  0.74984067  0.73428060  1
  P  P263  1  0.69495042  0.75058891  0.98567883  1
  P  P264  1  0.30563103  0.25099167  0.01475451  1
  P  P265  1  0.30502661  0.25062496  0.26345549  1
  P  P266  1  0.30273233  0.25062678  0.51462911  1
  P  P267  1  0.30224562  0.25004888  0.76569086  1
  P  P268  1  0.30280333  0.58240747  0.01584839  1
  P  P269  1  0.30528201  0.58291693  0.26398518  1
  P  P270  1  0.30248239  0.58257759  0.51511424  1
  P  P271  1  0.30483593  0.58412450  0.76308105  1
  P  P272  1  0.30312234  0.91638975  0.01454792  1
  P  P273  1  0.30203840  0.91648881  0.26554324  1
  P  P274  1  0.30293596  0.91721285  0.51469328  1
  P  P275  1  0.30417338  0.91554955  0.76515792  1
  P  P276  1  0.80272421  0.24964128  0.01323324  1
  P  P277  1  0.80404323  0.25158985  0.26535597  1
  P  P278  1  0.80689102  0.24986865  0.51434180  1
  P  P279  1  0.80576612  0.25120747  0.76474237  1
  P  P280  1  0.80273597  0.58317656  0.01476956  1
  P  P281  1  0.80206323  0.58308396  0.26465214  1
  P  P282  1  0.80308006  0.58368043  0.51565463  1
  P  P283  1  0.80452397  0.58278314  0.76423027  1
  P  P284  1  0.80174546  0.91734755  0.01491233  1
  P  P285  1  0.80158557  0.91549930  0.26461475  1
  P  P286  1  0.80356068  0.91618057  0.51524723  1
  P  P287  1  0.80501330  0.91623635  0.76424062  1
  O  O288  1  0.05618317  0.25057281  0.18652877  1
  O  O289  1  0.05486450  0.25062744  0.43702390  1
  O  O290  1  0.05775375  0.25015206  0.68789838  1
  O  O291  1  0.05677284  0.25076454  0.93612684  1
  O  O292  1  0.05671285  0.58286898  0.18634586  1
  O  O293  1  0.05833913  0.58289477  0.43836841  1
  O  O294  1  0.05605293  0.58307637  0.68586384  1
  O  O295  1  0.05951161  0.58306704  0.93790667  1
  O  O296  1  0.05906404  0.91649137  0.18720374  1
  O  O297  1  0.05593584  0.91653094  0.43612243  1
  O  O298  1  0.05571987  0.91640301  0.68665946  1
  O  O299  1  0.05903049  0.91641194  0.93799026  1
  O  O300  1  0.55686214  0.25034489  0.18662311  1
  O  O301  1  0.55774062  0.25044700  0.43695737  1
  O  O302  1  0.55666424  0.25055831  0.68639995  1
  O  O303  1  0.55732798  0.24990354  0.93741010  1
  O  O304  1  0.55817124  0.58287598  0.18847725  1
  O  O305  1  0.56084470  0.58290953  0.43762448  1
  O  O306  1  0.55604163  0.58277258  0.68606442  1
  O  O307  1  0.55541996  0.58290084  0.93665318  1
  O  O308  1  0.55990960  0.91663532  0.18769745  1
  O  O309  1  0.56095933  0.91682499  0.43790535  1
  O  O310  1  0.55658907  0.91669024  0.68626329  1
  O  O311  1  0.55815037  0.91712372  0.93748175  1
  O  O312  1  0.44446156  0.08292776  0.06350303  1
  O  O313  1  0.44369677  0.08280876  0.31421930  1
  O  O314  1  0.44052782  0.08347460  0.56190667  1
  O  O315  1  0.44319119  0.08312102  0.81308519  1
  O  O316  1  0.44146026  0.41727785  0.06276282  1
  O  O317  1  0.44088695  0.41682200  0.31272873  1
  O  O318  1  0.44131086  0.41721339  0.56149263  1
  O  O319  1  0.44322064  0.41652020  0.81393974  1
  O  O320  1  0.44401291  0.75009805  0.06362848  1
  O  O321  1  0.44485965  0.75041723  0.31353457  1
  O  O322  1  0.44406787  0.74956220  0.56312493  1
  O  O323  1  0.44098794  0.75013659  0.81240887  1
  O  O324  1  0.93993076  0.08313705  0.06188702  1
  O  O325  1  0.94353431  0.08288903  0.31315174  1
  O  O326  1  0.94227196  0.08244115  0.56205575  1
  O  O327  1  0.94380675  0.08320134  0.81430656  1
  O  O328  1  0.94322459  0.41743240  0.06375330  1
  O  O329  1  0.94103182  0.41764240  0.31260371  1
  O  O330  1  0.94053213  0.41809628  0.56240775  1
  O  O331  1  0.94185073  0.41675770  0.81201150  1
  O  O332  1  0.94288470  0.74979917  0.06425262  1
  O  O333  1  0.93954797  0.74959998  0.31230295  1
  O  O334  1  0.94166874  0.74972035  0.56168951  1
  O  O335  1  0.94441336  0.74976386  0.81370549  1
  O  O336  1  0.19394728  0.08353723  0.06180536  1
  O  O337  1  0.19062551  0.08413832  0.31290416  1
  O  O338  1  0.19001718  0.08358857  0.56213862  1
  O  O339  1  0.19254598  0.08376797  0.81109323  1
  O  O340  1  0.19213747  0.41668346  0.06248195  1
  O  O341  1  0.19057404  0.41624934  0.31206671  1
  O  O342  1  0.19280000  0.41693474  0.56101523  1
  O  O343  1  0.19097579  0.41594133  0.81276418  1
  O  O344  1  0.19332278  0.74929028  0.06150516  1
  O  O345  1  0.19091814  0.74990416  0.31321683  1
  O  O346  1  0.19019200  0.74973081  0.56237528  1
  O  O347  1  0.19151299  0.74998997  0.81155594  1
  O  O348  1  0.69130010  0.08429888  0.06232227  1
  O  O349  1  0.69382002  0.08412987  0.31128179  1
  O  O350  1  0.69568114  0.08372379  0.56219288  1
  O  O351  1  0.69353657  0.08398284  0.81138189  1
  O  O352  1  0.68935914  0.41637687  0.06193640  1
  O  O353  1  0.69450140  0.41637553  0.31121630  1
  O  O354  1  0.69243997  0.41688280  0.56348805  1
  O  O355  1  0.69043783  0.41627010  0.81205042  1
  O  O356  1  0.69088763  0.74941496  0.06248446  1
  O  O357  1  0.69248811  0.74934378  0.31263090  1
  O  O358  1  0.69166641  0.74947204  0.56328088  1
  O  O359  1  0.69235236  0.74963234  0.81106373  1
  O  O360  1  0.30967479  0.24988457  0.18671586  1
  O  O361  1  0.30561517  0.25043938  0.43784128  1
  O  O362  1  0.30608337  0.25045342  0.68895774  1
  O  O363  1  0.30941278  0.25009400  0.93796044  1
  O  O364  1  0.30976117  0.58372228  0.18723976  1
  O  O365  1  0.30629033  0.58355095  0.43838067  1
  O  O366  1  0.30924495  0.58348002  0.68641307  1
  O  O367  1  0.30595795  0.58293473  0.93905398  1
  O  O368  1  0.30634668  0.91617648  0.18880974  1
  O  O369  1  0.30632459  0.91653732  0.43798313  1
  O  O370  1  0.30717871  0.91610607  0.68835967  1
  O  O371  1  0.30829170  0.91674757  0.93791782  1
  O  O372  1  0.80601631  0.25091473  0.18850758  1
  O  O373  1  0.81032933  0.24978484  0.43748935  1
  O  O374  1  0.81022226  0.25022712  0.68790896  1
  O  O375  1  0.80800278  0.25068774  0.93663806  1
  O  O376  1  0.80544278  0.58309931  0.18800375  1
  O  O377  1  0.80627238  0.58346012  0.43889876  1
  O  O378  1  0.80883268  0.58375764  0.68752957  1
  O  O379  1  0.80649344  0.58293673  0.93800238  1
  O  O380  1  0.80522261  0.91607876  0.18797991  1
  O  O381  1  0.80663560  0.91622638  0.43851121  1
  O  O382  1  0.80981290  0.91594887  0.68750501  1
  O  O383  1  0.80585805  0.91659552  0.93818714  1
  O  O384  1  0.23558754  0.25029064  0.03896355  1
  O  O385  1  0.23495195  0.25046952  0.28753466  1
  O  O386  1  0.23305885  0.25076393  0.53990564  1
  O  O387  1  0.23222217  0.25010051  0.79023975  1
  O  O388  1  0.23286683  0.58308930  0.04069961  1
  O  O389  1  0.23512869  0.58296995  0.28770658  1
  O  O390  1  0.23242485  0.58307386  0.53974832  1
  O  O391  1  0.23475758  0.58344886  0.78708940  1
  O  O392  1  0.23267596  0.91589385  0.03782907  1
  O  O393  1  0.23198531  0.91697831  0.28986188  1
  O  O394  1  0.23313518  0.91652607  0.53967131  1
  O  O395  1  0.23434708  0.91654959  0.78991605  1
  O  O396  1  0.73234701  0.25000419  0.03683346  1
  O  O397  1  0.73464582  0.25055369  0.29141056  1
  O  O398  1  0.73694136  0.25061839  0.53907802  1
  O  O399  1  0.73562120  0.25023467  0.78845084  1
  O  O400  1  0.73290500  0.58311206  0.03927717  1
  O  O401  1  0.73222328  0.58298772  0.28987020  1
  O  O402  1  0.73302504  0.58367956  0.54042703  1
  O  O403  1  0.73447220  0.58306807  0.78833492  1
  O  O404  1  0.73168314  0.91698874  0.03922038  1
  O  O405  1  0.73157323  0.91566621  0.28932631  1
  O  O406  1  0.73350532  0.91634292  0.54009680  1
  O  O407  1  0.73486739  0.91650908  0.78794888  1
  O  O408  1  0.26510949  0.08277109  0.21185083  1
  O  O409  1  0.26582556  0.08385757  0.46220275  1
  O  O410  1  0.26507075  0.08364598  0.70926243  1
  O  O411  1  0.26663980  0.08331994  0.95982313  1
  O  O412  1  0.26642007  0.41688912  0.21233079  1
  O  O413  1  0.26691999  0.41717996  0.45990665  1
  O  O414  1  0.26502233  0.41635731  0.71182674  1
  O  O415  1  0.26674326  0.41700038  0.96176767  1
  O  O416  1  0.26539953  0.75010318  0.21208637  1
  O  O417  1  0.26441462  0.74954782  0.46144018  1
  O  O418  1  0.26642398  0.75015726  0.71119111  1
  O  O419  1  0.26578475  0.74931962  0.95949448  1
  O  O420  1  0.76571201  0.08380738  0.20895264  1
  O  O421  1  0.76955839  0.08232063  0.46077016  1
  O  O422  1  0.76723271  0.08386947  0.71030830  1
  O  O423  1  0.76594844  0.08350911  0.96135881  1
  O  O424  1  0.76731550  0.41694389  0.20919630  1
  O  O425  1  0.76784891  0.41705265  0.46342086  1
  O  O426  1  0.76636340  0.41666211  0.71246323  1
  O  O427  1  0.76391499  0.41638397  0.96134044  1
  O  O428  1  0.76604621  0.74955613  0.21119232  1
  O  O429  1  0.76667980  0.74963166  0.46281022  1
  O  O430  1  0.76591150  0.74991397  0.70999972  1
  O  O431  1  0.76485184  0.75030687  0.96106386  1
  O  O432  1  0.01494774  0.08386120  0.16218023  1
  O  O433  1  0.01744826  0.08355541  0.41440035  1
  O  O434  1  0.01676858  0.08277065  0.66309494  1
  O  O435  1  0.01551635  0.08409272  0.91671062  1
  O  O436  1  0.01751461  0.41669334  0.16473183  1
  O  O437  1  0.01592093  0.41675268  0.41319888  1
  O  O438  1  0.01415571  0.41702585  0.66343566  1
  O  O439  1  0.01720276  0.41653858  0.91217442  1
  O  O440  1  0.01561797  0.74914094  0.16580479  1
  O  O441  1  0.01567124  0.75012638  0.41160319  1
  O  O442  1  0.01685947  0.74952319  0.66236481  1
  O  O443  1  0.01873724  0.74975229  0.91455177  1
  O  O444  1  0.51882575  0.08365548  0.16428710  1
  O  O445  1  0.51634869  0.08333273  0.41601849  1
  O  O446  1  0.51550176  0.08315981  0.66249986  1
  O  O447  1  0.51582097  0.08375295  0.91520936  1
  O  O448  1  0.51628688  0.41635269  0.16338374  1
  O  O449  1  0.51538223  0.41716547  0.41302453  1
  O  O450  1  0.51667286  0.41739898  0.66191181  1
  O  O451  1  0.51646948  0.41654642  0.91550772  1
  O  O452  1  0.51854879  0.75000360  0.16439740  1
  O  O453  1  0.51941324  0.74981668  0.41401941  1
  O  O454  1  0.51750583  0.74938067  0.66460668  1
  O  O455  1  0.51469446  0.74983046  0.91376372  1
  O  O456  1  0.48304413  0.25053858  0.08563065  1
  O  O457  1  0.48398433  0.24981249  0.33564614  1
  O  O458  1  0.48396077  0.25119196  0.58453273  1
  O  O459  1  0.48237617  0.25051265  0.83665672  1
  O  O460  1  0.48316628  0.58278392  0.08764277  1
  O  O461  1  0.48632622  0.58337066  0.33716094  1
  O  O462  1  0.48328078  0.58335969  0.58392326  1
  O  O463  1  0.48300034  0.58220092  0.83463318  1
  O  O464  1  0.48583993  0.91656940  0.08661298  1
  O  O465  1  0.48665377  0.91668200  0.33680997  1
  O  O466  1  0.48473890  0.91555608  0.58395599  1
  O  O467  1  0.48266498  0.91673467  0.83717170  1
  O  O468  1  0.98346542  0.25178453  0.08463954  1
  O  O469  1  0.98202153  0.25017493  0.33497262  1
  O  O470  1  0.98248345  0.25042222  0.58792677  1
  O  O471  1  0.98273411  0.24974118  0.83503232  1
  O  O472  1  0.98451416  0.58301289  0.08399553  1
  O  O473  1  0.98465677  0.58288163  0.33710448  1
  O  O474  1  0.98230571  0.58366252  0.58455224  1
  O  O475  1  0.98570654  0.58305255  0.83650727  1
  O  O476  1  0.98495323  0.91599384  0.08645461  1
  O  O477  1  0.98381980  0.91689325  0.33383194  1
  O  O478  1  0.98222842  0.91621643  0.58483719  1
  O  O479  1  0.98491974  0.91650244  0.83683675  1
  O  O480  1  0.08754519  0.31657568  0.07780123  1
  O  O481  1  0.08584038  0.31549530  0.32783381  1
  O  O482  1  0.08615424  0.31458461  0.57754565  1
  O  O483  1  0.08629091  0.31594603  0.82637077  1
  O  O484  1  0.08913916  0.64658800  0.07714471  1
  O  O485  1  0.08810772  0.64817521  0.32867239  1
  O  O486  1  0.08654954  0.64875495  0.57677816  1
  O  O487  1  0.08904151  0.64844832  0.82816616  1
  O  O488  1  0.08862869  0.98135502  0.07716112  1
  O  O489  1  0.08785028  0.98189210  0.32735155  1
  O  O490  1  0.08606583  0.98135442  0.57732023  1
  O  O491  1  0.08843889  0.98114341  0.82822539  1
  O  O492  1  0.58703147  0.31537539  0.07713954  1
  O  O493  1  0.58735913  0.31527746  0.32732098  1
  O  O494  1  0.58784279  0.31645629  0.57753416  1
  O  O495  1  0.58583743  0.31630981  0.82798008  1
  O  O496  1  0.58661186  0.64806899  0.07841329  1
  O  O497  1  0.58993481  0.64896321  0.32808112  1
  O  O498  1  0.58749574  0.64820707  0.57724709  1
  O  O499  1  0.58687482  0.64679714  0.82721759  1
  O  O500  1  0.58947724  0.98182728  0.07785696  1
  O  O501  1  0.59071032  0.98083999  0.32793264  1
  O  O502  1  0.58888817  0.98032675  0.57668028  1
  O  O503  1  0.58617177  0.98196672  0.82728739  1
  O  O504  1  0.41508201  0.01863653  0.17334142  1
  O  O505  1  0.41250497  0.01775846  0.42338688  1
  O  O506  1  0.41187920  0.01819163  0.67156914  1
  O  O507  1  0.41246750  0.01802846  0.92261663  1
  O  O508  1  0.41232862  0.35162169  0.17235769  1
  O  O509  1  0.41158690  0.35202813  0.42282046  1
  O  O510  1  0.41274483  0.35327155  0.67200517  1
  O  O511  1  0.41269377  0.35072011  0.92307321  1
  O  O512  1  0.41487812  0.68435464  0.17299156  1
  O  O513  1  0.41532870  0.68536051  0.42307824  1
  O  O514  1  0.41366619  0.68335892  0.67200792  1
  O  O515  1  0.41092079  0.68569925  0.92216448  1
  O  O516  1  0.91186073  0.01827755  0.17218951  1
  O  O517  1  0.91336389  0.01892299  0.42295813  1
  O  O518  1  0.91336759  0.01730419  0.67185449  1
  O  O519  1  0.91127860  0.01959443  0.92372308  1
  O  O520  1  0.91287459  0.35268413  0.17317370  1
  O  O521  1  0.91239832  0.35097909  0.42200316  1
  O  O522  1  0.90990622  0.35303389  0.67197606  1
  O  O523  1  0.91388106  0.35060249  0.92188788  1
  O  O524  1  0.91143583  0.68460100  0.17341968  1
  O  O525  1  0.91205472  0.68496362  0.42283496  1
  O  O526  1  0.91333117  0.68448840  0.67170150  1
  O  O527  1  0.91489123  0.68474285  0.92320474  1
  O  O528  1  0.16135400  0.01774276  0.20373463  1
  O  O529  1  0.16195954  0.01887124  0.45200837  1
  O  O530  1  0.16068134  0.01986591  0.70152833  1
  O  O531  1  0.16304287  0.01768578  0.95284098  1
  O  O532  1  0.16290955  0.35151054  0.20162533  1
  O  O533  1  0.16259124  0.35299308  0.45111654  1
  O  O534  1  0.16188318  0.35016547  0.70304332  1
  O  O535  1  0.16248398  0.35299332  0.95214633  1
  O  O536  1  0.16175457  0.68571146  0.20323347  1
  O  O537  1  0.16106542  0.68335191  0.45291645  1
  O  O538  1  0.16238830  0.68547613  0.70137672  1
  O  O539  1  0.16218119  0.68389624  0.95240135  1
  O  O540  1  0.66212186  0.01785569  0.20265779  1
  O  O541  1  0.66527117  0.01784817  0.45339931  1
  O  O542  1  0.66352999  0.01869241  0.70215652  1
  O  O543  1  0.66237617  0.01841542  0.95280190  1
  O  O544  1  0.66290276  0.35259496  0.20165881  1
  O  O545  1  0.66425090  0.35249080  0.45295732  1
  O  O546  1  0.66290457  0.35129713  0.70165159  1
  O  O547  1  0.66054837  0.35033139  0.95213872  1
  O  O548  1  0.66248283  0.68398194  0.20283816  1
  O  O549  1  0.66292437  0.68467642  0.45317859  1
  O  O550  1  0.66200036  0.68483289  0.70152486  1
  O  O551  1  0.66114079  0.68563895  0.95252123  1
  O  O552  1  0.33889919  0.31649366  0.04723361  1
  O  O553  1  0.33833053  0.31593456  0.29620957  1
  O  O554  1  0.33675917  0.31594698  0.54682867  1
  O  O555  1  0.33645816  0.31488758  0.79855290  1
  O  O556  1  0.33737432  0.64708259  0.04869208  1
  O  O557  1  0.33859006  0.64783235  0.29766295  1
  O  O558  1  0.33686396  0.64737493  0.54798985  1
  O  O559  1  0.33783768  0.64949424  0.79607324  1
  O  O560  1  0.33609368  0.98141689  0.04835066  1
  O  O561  1  0.33614439  0.98147000  0.29797211  1
  O  O562  1  0.33652514  0.98246509  0.54704911  1
  O  O563  1  0.33871335  0.98030984  0.79790843  1
  O  O564  1  0.83597881  0.31462958  0.04701362  1
  O  O565  1  0.83802879  0.31703358  0.29705963  1
  O  O566  1  0.84100352  0.31480639  0.54704851  1
  O  O567  1  0.83872056  0.31666660  0.79761504  1
  O  O568  1  0.83659106  0.64824459  0.04726497  1
  O  O569  1  0.83596766  0.64805304  0.29754858  1
  O  O570  1  0.83711572  0.64875934  0.54815480  1
  O  O571  1  0.83825212  0.64762445  0.79759660  1
  O  O572  1  0.83526469  0.98255416  0.04750052  1
  O  O573  1  0.83529916  0.98069456  0.29743667  1
  O  O574  1  0.83790108  0.98098372  0.54786875  1
  O  O575  1  0.83847262  0.98135966  0.79722475  1
  O  O576  1  0.41488357  0.14887258  0.17256388  1
  O  O577  1  0.41189216  0.14766702  0.42335442  1
  O  O578  1  0.41204191  0.14843370  0.67191428  1
  O  O579  1  0.41194691  0.14841861  0.92193132  1
  O  O580  1  0.41257405  0.48173204  0.17307071  1
  O  O581  1  0.41152270  0.48182975  0.42273767  1
  O  O582  1  0.41333310  0.48330691  0.67117031  1
  O  O583  1  0.41214116  0.48063177  0.92368504  1
  O  O584  1  0.41472440  0.81462372  0.17342582  1
  O  O585  1  0.41567230  0.81525474  0.42322601  1
  O  O586  1  0.41294976  0.81333852  0.67282735  1
  O  O587  1  0.41166948  0.81602618  0.92216611  1
  O  O588  1  0.91131609  0.14854029  0.17150645  1
  O  O589  1  0.91353154  0.14893092  0.42231434  1
  O  O590  1  0.91315831  0.14763704  0.67183633  1
  O  O591  1  0.91158626  0.14970399  0.92260401  1
  O  O592  1  0.91392795  0.48242375  0.17366618  1
  O  O593  1  0.91174219  0.48097539  0.42307566  1
  O  O594  1  0.91105907  0.48328572  0.67230854  1
  O  O595  1  0.91331553  0.48061233  0.92247347  1
  O  O596  1  0.91172022  0.81456786  0.17360752  1
  O  O597  1  0.91191253  0.81497058  0.42245138  1
  O  O598  1  0.91340741  0.81477650  0.67175490  1
  O  O599  1  0.91487635  0.81474373  0.92337381  1
  O  O600  1  0.08704308  0.18654280  0.07690818  1
  O  O601  1  0.08598706  0.18531302  0.32790432  1
  O  O602  1  0.08571176  0.18448087  0.57785903  1
  O  O603  1  0.08719360  0.18597528  0.82679239  1
  O  O604  1  0.08799117  0.51662200  0.07752326  1
  O  O605  1  0.08831636  0.51789500  0.32877665  1
  O  O606  1  0.08639315  0.51886203  0.57624819  1
  O  O607  1  0.08923823  0.51807629  0.82818160  1
  O  O608  1  0.08896051  0.85138723  0.07761447  1
  O  O609  1  0.08775523  0.85162500  0.32715349  1
  O  O610  1  0.08601480  0.85124200  0.57734231  1
  O  O611  1  0.08828524  0.85084150  0.82821589  1
  O  O612  1  0.58694632  0.18531141  0.07678900  1
  O  O613  1  0.58789508  0.18511585  0.32796015  1
  O  O614  1  0.58783909  0.18622942  0.57705172  1
  O  O615  1  0.58631614  0.18624763  0.82706475  1
  O  O616  1  0.58676350  0.51783233  0.07864791  1
  O  O617  1  0.59014974  0.51891343  0.32728837  1
  O  O618  1  0.58744192  0.51818856  0.57662542  1
  O  O619  1  0.58662604  0.51666591  0.82788793  1
  O  O620  1  0.58954392  0.85151943  0.07794074  1
  O  O621  1  0.59002529  0.85068007  0.32836852  1
  O  O622  1  0.58871726  0.85027691  0.57790725  1
  O  O623  1  0.58637721  0.85190641  0.82761273  1
  O  O624  1  0.33989304  0.18641856  0.04820089  1
  O  O625  1  0.33838935  0.18561277  0.29685178  1
  O  O626  1  0.33679482  0.18555817  0.54704221  1
  O  O627  1  0.33626189  0.18496592  0.79816049  1
  O  O628  1  0.33671070  0.51719479  0.04817365  1
  O  O629  1  0.33855357  0.51759626  0.29663603  1
  O  O630  1  0.33627071  0.51734590  0.54753906  1
  O  O631  1  0.33833592  0.51919798  0.79664156  1
  O  O632  1  0.33646093  0.85139715  0.04798683  1
  O  O633  1  0.33564584  0.85143614  0.29860693  1
  O  O634  1  0.33711271  0.85210564  0.54717294  1
  O  O635  1  0.33774220  0.85017601  0.79746159  1
  O  O636  1  0.83584689  0.18452114  0.04642643  1
  O  O637  1  0.83928948  0.18690708  0.29754082  1
  O  O638  1  0.84017647  0.18444040  0.54712373  1
  O  O639  1  0.83993455  0.18662314  0.79806890  1
  O  O640  1  0.83656363  0.51807390  0.04743457  1
  O  O641  1  0.83613181  0.51795161  0.29720014  1
  O  O642  1  0.83721017  0.51885423  0.54834600  1
  O  O643  1  0.83781409  0.51738691  0.79700223  1
  O  O644  1  0.83558502  0.85237897  0.04788023  1
  O  O645  1  0.83533751  0.85056956  0.29734932  1
  O  O646  1  0.83732469  0.85100631  0.54795141  1
  O  O647  1  0.83820673  0.85117117  0.79768235  1
  O  O648  1  0.16177479  0.14799994  0.20260376  1
  O  O649  1  0.16207767  0.14886154  0.45195143  1
  O  O650  1  0.16157934  0.14998136  0.70222771  1
  O  O651  1  0.16277555  0.14790120  0.95262683  1
  O  O652  1  0.16247622  0.48138840  0.20199659  1
  O  O653  1  0.16311733  0.48296648  0.45183503  1
  O  O654  1  0.16110346  0.48023223  0.70270740  1
  O  O655  1  0.16327623  0.48302312  0.95290369  1
  O  O656  1  0.16207597  0.81589036  0.20371658  1
  O  O657  1  0.15998386  0.81338659  0.45235235  1
  O  O658  1  0.16258922  0.81529547  0.70166012  1
  O  O659  1  0.16175597  0.81413289  0.95217886  1
  O  O660  1  0.66149882  0.14799036  0.20180465  1
  O  O661  1  0.66611472  0.14794706  0.45240589  1
  O  O662  1  0.66353232  0.14883700  0.70188184  1
  O  O663  1  0.66243025  0.14877911  0.95217771  1
  O  O664  1  0.66321133  0.48246319  0.20230437  1
  O  O665  1  0.66434725  0.48252958  0.45366712  1
  O  O666  1  0.66238286  0.48118299  0.70177491  1
  O  O667  1  0.65980008  0.48038377  0.95179424  1
  O  O668  1  0.66191859  0.81408558  0.20294584  1
  O  O669  1  0.66311165  0.81487329  0.45330283  1
  O  O670  1  0.66181349  0.81469584  0.70173540  1
  O  O671  1  0.66142260  0.81598925  0.95332219  1
