# generated using pymatgen
data_Na2MnFe(PO4)2
_symmetry_space_group_name_H-M   'P 1'
_cell_length_a   21.09580816
_cell_length_b   18.95095876
_cell_length_c   20.05383197
_cell_angle_alpha   90.00028054
_cell_angle_beta   89.99699575
_cell_angle_gamma   90.00132974
_symmetry_Int_Tables_number   1
_chemical_formula_structural   Na2MnFe(PO4)2
_chemical_formula_sum   'Na96 Mn48 Fe48 P96 O384'
_cell_volume   8017.23705216
_cell_formula_units_Z   48
loop_
 _symmetry_equiv_pos_site_id
 _symmetry_equiv_pos_as_xyz
  1  'x, y, z'
loop_
 _atom_site_type_symbol
 _atom_site_label
 _atom_site_symmetry_multiplicity
 _atom_site_fract_x
 _atom_site_fract_y
 _atom_site_fract_z
 _atom_site_occupancy
  Na  Na0  1  -0.00015801  -0.00005378  0.00083751  1
  Na  Na1  1  -0.00004676  0.00000001  0.25017038  1
  Na  Na2  1  0.00057338  0.00058317  0.49914620  1
  Na  Na3  1  -0.00205086  -0.00129003  0.74974658  1
  Na  Na4  1  0.00043252  0.33370572  0.00034325  1
  Na  Na5  1  -0.00009740  0.33353304  0.24921083  1
  Na  Na6  1  0.00125726  0.33371436  0.50030469  1
  Na  Na7  1  0.00090586  0.33341097  0.75079635  1
  Na  Na8  1  -0.00198646  0.66587831  -0.00017781  1
  Na  Na9  1  -0.00061719  0.66653217  0.25031264  1
  Na  Na10  1  0.00121516  0.66680729  0.50000659  1
  Na  Na11  1  0.00064231  0.66658258  0.74937386  1
  Na  Na12  1  0.50254169  0.00088364  0.00023751  1
  Na  Na13  1  0.49954105  -0.00093279  0.24959676  1
  Na  Na14  1  0.50081129  0.00033267  0.49918856  1
  Na  Na15  1  0.50012175  -0.00019309  0.75099452  1
  Na  Na16  1  0.49876824  0.33379947  0.00015486  1
  Na  Na17  1  0.50013953  0.33424988  0.24941922  1
  Na  Na18  1  0.49809724  0.33322828  0.49925961  1
  Na  Na19  1  0.49793913  0.33343730  0.75066527  1
  Na  Na20  1  0.50262638  0.66704754  -0.00009129  1
  Na  Na21  1  0.50270852  0.66702750  0.25006583  1
  Na  Na22  1  0.50135541  0.66733192  0.49997862  1
  Na  Na23  1  0.50035834  0.66657073  0.75060318  1
  Na  Na24  1  0.24965913  0.00046788  0.12516401  1
  Na  Na25  1  0.24987414  -0.00045538  0.37528907  1
  Na  Na26  1  0.25275681  0.00067686  0.62528359  1
  Na  Na27  1  0.24951917  -0.00041274  0.87499217  1
  Na  Na28  1  0.24867528  0.33320113  0.12431534  1
  Na  Na29  1  0.24893029  0.33305296  0.37491198  1
  Na  Na30  1  0.25160444  0.33401014  0.62608575  1
  Na  Na31  1  0.25006211  0.33317858  0.87407781  1
  Na  Na32  1  0.24969150  0.66699502  0.12472173  1
  Na  Na33  1  0.25087616  0.66700977  0.37418895  1
  Na  Na34  1  0.24978426  0.66677978  0.62607454  1
  Na  Na35  1  0.24808979  0.66613555  0.87489324  1
  Na  Na36  1  0.75051103  -0.00027877  0.12470701  1
  Na  Na37  1  0.74885876  -0.00042088  0.37563198  1
  Na  Na38  1  0.74858293  -0.00016542  0.62498545  1
  Na  Na39  1  0.74921495  -0.00051218  0.87388708  1
  Na  Na40  1  0.75067884  0.33362655  0.12446771  1
  Na  Na41  1  0.75039037  0.33417942  0.37572113  1
  Na  Na42  1  0.74971089  0.33383234  0.62531403  1
  Na  Na43  1  0.75108224  0.33480804  0.87533369  1
  Na  Na44  1  0.74926197  0.66554565  0.12454648  1
  Na  Na45  1  0.74742270  0.66602230  0.37484707  1
  Na  Na46  1  0.74776917  0.66584722  0.62494887  1
  Na  Na47  1  0.75183237  0.66721919  0.87536208  1
  Na  Na48  1  0.00322704  0.16589679  0.00042432  1
  Na  Na49  1  0.00219605  0.16586975  0.25000466  1
  Na  Na50  1  0.00138934  0.16646007  0.49987424  1
  Na  Na51  1  0.00277091  0.16618112  0.75037923  1
  Na  Na52  1  -0.00254835  0.50012706  -0.00037109  1
  Na  Na53  1  -0.00132378  0.49982618  0.25052116  1
  Na  Na54  1  0.00245203  0.49919965  0.49988598  1
  Na  Na55  1  -0.00072492  0.50038758  0.74989055  1
  Na  Na56  1  -0.00201347  0.83400869  0.00097804  1
  Na  Na57  1  -0.00099130  0.83369722  0.24928315  1
  Na  Na58  1  -0.00191436  0.83480400  0.49938151  1
  Na  Na59  1  -0.00114013  0.83330694  0.74991836  1
  Na  Na60  1  0.50001969  0.16648396  0.00020869  1
  Na  Na61  1  0.49936979  0.16607938  0.24954363  1
  Na  Na62  1  0.49989042  0.16558342  0.49911900  1
  Na  Na63  1  0.49886381  0.16688842  0.75038353  1
  Na  Na64  1  0.50176091  0.49896197  0.00040686  1
  Na  Na65  1  0.50020138  0.50043724  0.24954570  1
  Na  Na66  1  0.50195242  0.49899464  0.49910603  1
  Na  Na67  1  0.50041224  0.49961218  0.75113588  1
  Na  Na68  1  0.50188292  0.83323520  -0.00032788  1
  Na  Na69  1  0.50255965  0.83313668  0.24995881  1
  Na  Na70  1  0.49832876  0.83441046  0.50006813  1
  Na  Na71  1  0.49923749  0.83360571  0.75090592  1
  Na  Na72  1  0.24689272  0.16718777  0.12408698  1
  Na  Na73  1  0.24857814  0.16642602  0.37468820  1
  Na  Na74  1  0.25102076  0.16640774  0.62591944  1
  Na  Na75  1  0.24859384  0.16723718  0.87493122  1
  Na  Na76  1  0.25146058  0.49876356  0.12556464  1
  Na  Na77  1  0.24904225  0.50056758  0.37456878  1
  Na  Na78  1  0.24912368  0.50021101  0.62556550  1
  Na  Na79  1  0.24968198  0.49990126  0.87498998  1
  Na  Na80  1  0.24837683  0.83442058  0.12470411  1
  Na  Na81  1  0.25200694  0.83344898  0.37520091  1
  Na  Na82  1  0.25347269  0.83231103  0.62596904  1
  Na  Na83  1  0.25057619  0.83278321  0.87390527  1
  Na  Na84  1  0.75124945  0.16576515  0.12517040  1
  Na  Na85  1  0.74889709  0.16632011  0.37585986  1
  Na  Na86  1  0.74843054  0.16616487  0.62487240  1
  Na  Na87  1  0.74870334  0.16707156  0.87452208  1
  Na  Na88  1  0.75017972  0.49958677  0.12338498  1
  Na  Na89  1  0.74748800  0.50047874  0.37512711  1
  Na  Na90  1  0.74898643  0.49937721  0.62547235  1
  Na  Na91  1  0.75006394  0.49970275  0.87538408  1
  Na  Na92  1  0.75075636  0.83410588  0.12492198  1
  Na  Na93  1  0.74978466  0.83407656  0.37550005  1
  Na  Na94  1  0.74958803  0.83409860  0.62455681  1
  Na  Na95  1  0.75166358  0.83356937  0.87512334  1
  Mn  Mn96  1  0.10834659  0.75069570  0.37292864  1
  Mn  Mn97  1  0.35817052  0.08291702  0.50223512  1
  Mn  Mn98  1  0.10719425  0.41699166  0.12257520  1
  Mn  Mn99  1  0.35862132  0.75056770  0.25139652  1
  Mn  Mn100  1  0.89185903  0.58354552  0.37764393  1
  Mn  Mn101  1  0.85709666  0.08357915  0.50202535  1
  Mn  Mn102  1  0.85755099  0.08443089  0.75228912  1
  Mn  Mn103  1  0.14269075  0.25042320  0.49803995  1
  Mn  Mn104  1  0.64228227  0.91652987  0.74747025  1
  Mn  Mn105  1  0.39127060  0.24920973  0.37648966  1
  Mn  Mn106  1  0.64217545  0.24982407  0.99724646  1
  Mn  Mn107  1  0.89209664  0.24967094  0.62765731  1
  Mn  Mn108  1  0.14300371  0.91583970  0.49808526  1
  Mn  Mn109  1  0.64109578  0.25053193  0.74773227  1
  Mn  Mn110  1  0.64245342  0.58331650  0.74812145  1
  Mn  Mn111  1  0.89287662  0.24961316  0.37725262  1
  Mn  Mn112  1  0.85761402  0.41688595  0.50224195  1
  Mn  Mn113  1  0.39248221  0.58331260  0.62741269  1
  Mn  Mn114  1  0.60880496  0.74986636  0.87264335  1
  Mn  Mn115  1  0.10668047  0.74987913  0.12273156  1
  Mn  Mn116  1  0.39145552  0.24988731  0.12732072  1
  Mn  Mn117  1  0.85803476  0.74922271  0.75180727  1
  Mn  Mn118  1  0.39206062  0.58291082  0.87788673  1
  Mn  Mn119  1  0.89219614  0.58356310  0.62676901  1
  Mn  Mn120  1  0.39361780  0.58399736  0.12651554  1
  Mn  Mn121  1  0.10842486  0.08248621  0.62328181  1
  Mn  Mn122  1  0.85690464  0.74972832  0.50212345  1
  Mn  Mn123  1  0.89344033  0.24950843  0.87707045  1
  Mn  Mn124  1  0.14116711  0.58288740  0.99798247  1
  Mn  Mn125  1  0.64067657  0.24986056  0.49796028  1
  Mn  Mn126  1  0.39258393  0.58410221  0.37707251  1
  Mn  Mn127  1  0.10834689  0.41662064  0.62357404  1
  Mn  Mn128  1  0.85827669  0.08371567  0.00155995  1
  Mn  Mn129  1  0.35737883  0.41758360  0.50225374  1
  Mn  Mn130  1  0.60845536  0.08368375  0.12293141  1
  Mn  Mn131  1  0.10848112  0.75081540  0.62252253  1
  Mn  Mn132  1  0.60769206  0.41558256  0.37195628  1
  Mn  Mn133  1  0.14111873  0.91648084  0.99735005  1
  Mn  Mn134  1  0.60766622  0.75080972  0.37279127  1
  Mn  Mn135  1  0.35771189  0.74942675  0.00263191  1
  Mn  Mn136  1  0.35697284  0.08357579  0.00220289  1
  Mn  Mn137  1  0.64261232  0.25010537  0.24722720  1
  Mn  Mn138  1  0.85683706  0.74981078  0.25273269  1
  Mn  Mn139  1  0.39312809  0.91611920  0.12683326  1
  Mn  Mn140  1  0.14253845  0.91656009  0.74759982  1
  Mn  Mn141  1  0.14212412  0.58360640  0.24710230  1
  Mn  Mn142  1  0.39277404  0.91716789  0.87794702  1
  Mn  Mn143  1  0.89283505  0.24966188  0.12739174  1
  Fe  Fe144  1  0.64326604  0.91683255  0.24821088  1
  Fe  Fe145  1  0.64174512  0.91632186  0.49812529  1
  Fe  Fe146  1  0.14252265  0.24980711  0.24847518  1
  Fe  Fe147  1  0.10758726  0.41648621  0.37258062  1
  Fe  Fe148  1  0.14277309  0.25098234  0.99735631  1
  Fe  Fe149  1  0.14302842  0.58390434  0.49826400  1
  Fe  Fe150  1  0.85724837  0.41635739  0.75180335  1
  Fe  Fe151  1  0.89137797  0.58341049  0.12722897  1
  Fe  Fe152  1  0.35805063  0.74924380  0.50207663  1
  Fe  Fe153  1  0.60912927  0.74992979  0.12266006  1
  Fe  Fe154  1  0.39284676  0.91671870  0.37597791  1
  Fe  Fe155  1  0.89241283  0.91719355  0.12759082  1
  Fe  Fe156  1  0.10756321  0.08266087  0.87274224  1
  Fe  Fe157  1  0.89262723  0.91709459  0.37650415  1
  Fe  Fe158  1  0.85785530  0.08383050  0.25226672  1
  Fe  Fe159  1  0.89184799  0.91696479  0.62591520  1
  Fe  Fe160  1  0.10639764  0.74996440  0.87377714  1
  Fe  Fe161  1  0.64167733  0.58345772  0.49881444  1
  Fe  Fe162  1  0.10760543  0.08316211  0.37262284  1
  Fe  Fe163  1  0.39251364  0.24968207  0.62671848  1
  Fe  Fe164  1  0.14429311  0.25030179  0.74847017  1
  Fe  Fe165  1  0.35762565  0.41712074  0.75222950  1
  Fe  Fe166  1  0.10708342  0.08252700  0.12378223  1
  Fe  Fe167  1  0.85660486  0.41620091  0.25188362  1
  Fe  Fe168  1  0.85763426  0.74975172  0.00167000  1
  Fe  Fe169  1  0.14260471  0.91681932  0.24892021  1
  Fe  Fe170  1  0.35764454  0.74934670  0.75218370  1
  Fe  Fe171  1  0.60757940  0.41662966  0.12277971  1
  Fe  Fe172  1  0.39359860  0.91705556  0.62657468  1
  Fe  Fe173  1  0.60711140  0.08440435  0.87322183  1
  Fe  Fe174  1  0.64426512  0.91643070  0.99841689  1
  Fe  Fe175  1  0.60665241  0.41642312  0.62401260  1
  Fe  Fe176  1  0.35685269  0.41687459  0.00158366  1
  Fe  Fe177  1  0.14246842  0.58308742  0.74898867  1
  Fe  Fe178  1  0.89303416  0.58339630  0.87615527  1
  Fe  Fe179  1  0.64422749  0.58335339  0.99811147  1
  Fe  Fe180  1  0.60686010  0.08325452  0.37233441  1
  Fe  Fe181  1  0.35715382  0.41624241  0.25119245  1
  Fe  Fe182  1  0.35619427  0.08337446  0.25118689  1
  Fe  Fe183  1  0.89292714  0.91653286  0.87647509  1
  Fe  Fe184  1  0.10707871  0.41725007  0.87305799  1
  Fe  Fe185  1  0.35809770  0.08347521  0.75245061  1
  Fe  Fe186  1  0.64282214  0.58310422  0.24753301  1
  Fe  Fe187  1  0.60609430  0.08345327  0.62365805  1
  Fe  Fe188  1  0.60665158  0.75028217  0.62325812  1
  Fe  Fe189  1  0.60700734  0.41578537  0.87346103  1
  Fe  Fe190  1  0.39231697  0.25004479  0.87687550  1
  Fe  Fe191  1  0.85726923  0.41670163  0.00143352  1
  P  P192  1  0.05573040  0.24918149  0.11073445  1
  P  P193  1  0.05457170  0.25011992  0.35947698  1
  P  P194  1  0.05493685  0.24992972  0.61145159  1
  P  P195  1  0.05620767  0.25047003  0.86084658  1
  P  P196  1  0.05083735  0.58309303  0.10999174  1
  P  P197  1  0.05466300  0.58299854  0.36093026  1
  P  P198  1  0.05556504  0.58338727  0.61047237  1
  P  P199  1  0.05259419  0.58313752  0.85982388  1
  P  P200  1  0.05304608  0.91727297  0.11174570  1
  P  P201  1  0.05304925  0.91718043  0.35947498  1
  P  P202  1  0.05199805  0.91668252  0.60968434  1
  P  P203  1  0.05214600  0.91618121  0.86007385  1
  P  P204  1  0.55317130  0.25087151  0.10981635  1
  P  P205  1  0.55276030  0.24886270  0.35922387  1
  P  P206  1  0.55113276  0.25020819  0.61032682  1
  P  P207  1  0.55192753  0.25060078  0.86040528  1
  P  P208  1  0.55663527  0.58317448  0.11031564  1
  P  P209  1  0.55538292  0.58338647  0.36006505  1
  P  P210  1  0.55369687  0.58318352  0.61006769  1
  P  P211  1  0.55508708  0.58219690  0.86173913  1
  P  P212  1  0.55632363  0.91604869  0.11034521  1
  P  P213  1  0.55417325  0.91750114  0.36031162  1
  P  P214  1  0.55267398  0.91663356  0.61001062  1
  P  P215  1  0.55550137  0.91738614  0.86157630  1
  P  P216  1  0.44597213  0.08297535  0.14044733  1
  P  P217  1  0.44596605  0.08216564  0.38800335  1
  P  P218  1  0.44697523  0.08306676  0.64040340  1
  P  P219  1  0.44654162  0.08431117  0.88935743  1
  P  P220  1  0.44614405  0.41712325  0.13914764  1
  P  P221  1  0.44503550  0.41663377  0.38842933  1
  P  P222  1  0.44683875  0.41652135  0.64049498  1
  P  P223  1  0.44549788  0.41603787  0.88984077  1
  P  P224  1  0.44963339  0.74992667  0.13969278  1
  P  P225  1  0.44618945  0.75110253  0.39024934  1
  P  P226  1  0.44626828  0.75050728  0.63965074  1
  P  P227  1  0.44601751  0.74966074  0.88953497  1
  P  P228  1  0.94704226  0.08301558  0.14065474  1
  P  P229  1  0.94679609  0.08277364  0.38869060  1
  P  P230  1  0.94660344  0.08285050  0.63993084  1
  P  P231  1  0.94850538  0.08300753  0.88981791  1
  P  P232  1  0.94420777  0.41729030  0.13941398  1
  P  P233  1  0.94683386  0.41648215  0.38904300  1
  P  P234  1  0.94621765  0.41672254  0.64085230  1
  P  P235  1  0.94611698  0.41702390  0.88910333  1
  P  P236  1  0.94423249  0.74974314  0.13892883  1
  P  P237  1  0.94629951  0.75098004  0.38989206  1
  P  P238  1  0.94666706  0.75062299  0.63946154  1
  P  P239  1  0.94678421  0.74970355  0.89006528  1
  P  P240  1  0.19539471  0.08284019  0.23578298  1
  P  P241  1  0.19638540  0.08293532  0.48461892  1
  P  P242  1  0.19728393  0.08368823  0.73649633  1
  P  P243  1  0.19420407  0.08387109  0.98545450  1
  P  P244  1  0.19634611  0.41593243  0.23581443  1
  P  P245  1  0.19598521  0.41759002  0.48462957  1
  P  P246  1  0.19677294  0.41667791  0.73696830  1
  P  P247  1  0.19665367  0.41633562  0.98424517  1
  P  P248  1  0.19677126  0.75132281  0.23473278  1
  P  P249  1  0.19869764  0.74962284  0.48515203  1
  P  P250  1  0.19626028  0.74950106  0.73664489  1
  P  P251  1  0.19545339  0.74995481  0.98401113  1
  P  P252  1  0.69729541  0.08255825  0.23627516  1
  P  P253  1  0.69340226  0.08231297  0.48574371  1
  P  P254  1  0.69435236  0.08376793  0.73518081  1
  P  P255  1  0.69651032  0.08237787  0.98412701  1
  P  P256  1  0.69712770  0.41704054  0.23392854  1
  P  P257  1  0.69446016  0.41710066  0.48636903  1
  P  P258  1  0.69576559  0.41655835  0.73587236  1
  P  P259  1  0.69608304  0.41720090  0.98551353  1
  P  P260  1  0.69597563  0.75052789  0.23459787  1
  P  P261  1  0.69451379  0.75031954  0.48643140  1
  P  P262  1  0.69632579  0.75011532  0.73406908  1
  P  P263  1  0.69756307  0.75008599  0.98621088  1
  P  P264  1  0.30311570  0.25095505  0.01337592  1
  P  P265  1  0.30172924  0.24951428  0.26419607  1
  P  P266  1  0.30397646  0.24993016  0.51590667  1
  P  P267  1  0.30530624  0.24988270  0.76435781  1
  P  P268  1  0.30282137  0.58229045  0.01518120  1
  P  P269  1  0.30396811  0.58286206  0.26434682  1
  P  P270  1  0.30236742  0.58414755  0.51512978  1
  P  P271  1  0.30259507  0.58329510  0.76508924  1
  P  P272  1  0.30284056  0.91663902  0.01510853  1
  P  P273  1  0.30301423  0.91767747  0.26495151  1
  P  P274  1  0.30581208  0.91566728  0.51461491  1
  P  P275  1  0.30573153  0.91677577  0.76377758  1
  P  P276  1  0.80371638  0.25045223  0.01464787  1
  P  P277  1  0.80358557  0.25004886  0.26521867  1
  P  P278  1  0.80260819  0.24987366  0.51530208  1
  P  P279  1  0.80287892  0.25092886  0.76533569  1
  P  P280  1  0.80502045  0.58323905  0.01354815  1
  P  P281  1  0.80270282  0.58216750  0.26390817  1
  P  P282  1  0.80131012  0.58327680  0.51505190  1
  P  P283  1  0.80414643  0.58222613  0.76555703  1
  P  P284  1  0.80518960  0.91635969  0.01406062  1
  P  P285  1  0.80410891  0.91772054  0.26474877  1
  P  P286  1  0.80311233  0.91709063  0.51423385  1
  P  P287  1  0.80529671  0.91681794  0.76430928  1
  O  O288  1  0.05966486  0.25037078  0.18749468  1
  O  O289  1  0.05712787  0.25022775  0.43627605  1
  O  O290  1  0.05997337  0.25014691  0.68816005  1
  O  O291  1  0.05930992  0.25085556  0.93772404  1
  O  O292  1  0.05537358  0.58291655  0.18664107  1
  O  O293  1  0.05925193  0.58371976  0.43765432  1
  O  O294  1  0.05992772  0.58334697  0.68725490  1
  O  O295  1  0.05559225  0.58278165  0.93651663  1
  O  O296  1  0.05818649  0.91663223  0.18827077  1
  O  O297  1  0.05701436  0.91659916  0.43612536  1
  O  O298  1  0.05634845  0.91634745  0.68632553  1
  O  O299  1  0.05530272  0.91637757  0.93677957  1
  O  O300  1  0.55660624  0.25036240  0.18652647  1
  O  O301  1  0.55543406  0.24968071  0.43599267  1
  O  O302  1  0.55448584  0.25045893  0.68698131  1
  O  O303  1  0.55573596  0.25060464  0.93703857  1
  O  O304  1  0.56001319  0.58304032  0.18716421  1
  O  O305  1  0.55916365  0.58327242  0.43683031  1
  O  O306  1  0.55635097  0.58318783  0.68686753  1
  O  O307  1  0.55987864  0.58312021  0.93840387  1
  O  O308  1  0.56009305  0.91677678  0.18714505  1
  O  O309  1  0.55824702  0.91673512  0.43699641  1
  O  O310  1  0.55609119  0.91626902  0.68671639  1
  O  O311  1  0.56005192  0.91649266  0.93824900  1
  O  O312  1  0.44260039  0.08314940  0.06368159  1
  O  O313  1  0.44066002  0.08285685  0.31144067  1
  O  O314  1  0.44388809  0.08303735  0.56358502  1
  O  O315  1  0.44174741  0.08349055  0.81269987  1
  O  O316  1  0.44105463  0.41690412  0.06250342  1
  O  O317  1  0.44047043  0.41673373  0.31168994  1
  O  O318  1  0.44327617  0.41748664  0.56378418  1
  O  O319  1  0.44061044  0.41724567  0.81313787  1
  O  O320  1  0.44507450  0.74992322  0.06305888  1
  O  O321  1  0.44362751  0.75006899  0.31346622  1
  O  O322  1  0.44175746  0.74932613  0.56296067  1
  O  O323  1  0.44112814  0.74924594  0.81278509  1
  O  O324  1  0.94347620  0.08371726  0.06398261  1
  O  O325  1  0.94176802  0.08354272  0.31208788  1
  O  O326  1  0.94341251  0.08389326  0.56317306  1
  O  O327  1  0.94422726  0.08390470  0.81323275  1
  O  O328  1  0.94015981  0.41648618  0.06261384  1
  O  O329  1  0.94120077  0.41664041  0.31245074  1
  O  O330  1  0.94327141  0.41666396  0.56402419  1
  O  O331  1  0.94145253  0.41626826  0.81249087  1
  O  O332  1  0.94062001  0.74964063  0.06215863  1
  O  O333  1  0.94278162  0.74996311  0.31314681  1
  O  O334  1  0.94322439  0.74979841  0.56273793  1
  O  O335  1  0.94367975  0.74956022  0.81337636  1
  O  O336  1  0.19029979  0.08253002  0.06221733  1
  O  O337  1  0.19121990  0.08255977  0.31250823  1
  O  O338  1  0.19370721  0.08274784  0.56143308  1
  O  O339  1  0.19181051  0.08245925  0.81310570  1
  O  O340  1  0.19297686  0.41706316  0.06095791  1
  O  O341  1  0.19163328  0.41670789  0.31243286  1
  O  O342  1  0.19356466  0.41652404  0.56143950  1
  O  O343  1  0.19184148  0.41698014  0.81353107  1
  O  O344  1  0.19189114  0.75023737  0.06077930  1
  O  O345  1  0.19391984  0.75074493  0.31147211  1
  O  O346  1  0.19498107  0.75065738  0.56185805  1
  O  O347  1  0.19042466  0.75034738  0.81318126  1
  O  O348  1  0.69394708  0.08344409  0.06092638  1
  O  O349  1  0.69205690  0.08307907  0.31286280  1
  O  O350  1  0.68888473  0.08315174  0.56251985  1
  O  O351  1  0.68992864  0.08406222  0.81191157  1
  O  O352  1  0.69140251  0.41607968  0.06211419  1
  O  O353  1  0.69347614  0.41630390  0.31066934  1
  O  O354  1  0.69000991  0.41604900  0.56308956  1
  O  O355  1  0.69086874  0.41607808  0.81251845  1
  O  O356  1  0.69339830  0.75008929  0.06285214  1
  O  O357  1  0.69317231  0.75084616  0.31141314  1
  O  O358  1  0.69057865  0.75069941  0.56313698  1
  O  O359  1  0.69380636  0.75045591  0.81092372  1
  O  O360  1  0.30495519  0.24953012  0.18747952  1
  O  O361  1  0.30653631  0.24959805  0.43912569  1
  O  O362  1  0.30980354  0.24970471  0.68764954  1
  O  O363  1  0.30804563  0.25001313  0.93675194  1
  O  O364  1  0.30748173  0.58341664  0.18763091  1
  O  O365  1  0.30634372  0.58367405  0.43849733  1
  O  O366  1  0.30639518  0.58327802  0.68844972  1
  O  O367  1  0.30585370  0.58319225  0.93846397  1
  O  O368  1  0.30681266  0.91693339  0.18828577  1
  O  O369  1  0.30952020  0.91686348  0.43789446  1
  O  O370  1  0.31010940  0.91710967  0.68703531  1
  O  O371  1  0.30655197  0.91653539  0.93836102  1
  O  O372  1  0.80665176  0.24951341  0.18848239  1
  O  O373  1  0.80647657  0.24970201  0.43857388  1
  O  O374  1  0.80585432  0.24988517  0.68860992  1
  O  O375  1  0.80717448  0.24995710  0.93795400  1
  O  O376  1  0.80725984  0.58282448  0.18723579  1
  O  O377  1  0.80532418  0.58332773  0.43834130  1
  O  O378  1  0.80664395  0.58299352  0.68881002  1
  O  O379  1  0.80968663  0.58337980  0.93689639  1
  O  O380  1  0.80892079  0.91753614  0.18801060  1
  O  O381  1  0.80836590  0.91724468  0.43760247  1
  O  O382  1  0.80925490  0.91697763  0.68754290  1
  O  O383  1  0.80990531  0.91713394  0.93732589  1
  O  O384  1  0.23277831  0.25078460  0.03696822  1
  O  O385  1  0.23184489  0.24939230  0.28925004  1
  O  O386  1  0.23443602  0.25010722  0.54130019  1
  O  O387  1  0.23487636  0.25000728  0.78792909  1
  O  O388  1  0.23323033  0.58266773  0.04051931  1
  O  O389  1  0.23418784  0.58362770  0.28913690  1
  O  O390  1  0.23245100  0.58375100  0.53991554  1
  O  O391  1  0.23247634  0.58313125  0.78959074  1
  O  O392  1  0.23301642  0.91704832  0.03953880  1
  O  O393  1  0.23294735  0.91688905  0.28950320  1
  O  O394  1  0.23594128  0.91651848  0.53940840  1
  O  O395  1  0.23564799  0.91636282  0.78787624  1
  O  O396  1  0.73400933  0.24983423  0.03964388  1
  O  O397  1  0.73398462  0.25028889  0.29063581  1
  O  O398  1  0.73278777  0.24975889  0.53988016  1
  O  O399  1  0.73327003  0.25101378  0.79059183  1
  O  O400  1  0.73454491  0.58284865  0.03701261  1
  O  O401  1  0.73236307  0.58309525  0.28759658  1
  O  O402  1  0.73133427  0.58297541  0.53950825  1
  O  O403  1  0.73457732  0.58323946  0.79099518  1
  O  O404  1  0.73480653  0.91674606  0.03764229  1
  O  O405  1  0.73364600  0.91678436  0.28810565  1
  O  O406  1  0.73263283  0.91693098  0.53747776  1
  O  O407  1  0.73519113  0.91658088  0.78813119  1
  O  O408  1  0.26563014  0.08333166  0.21150844  1
  O  O409  1  0.26616745  0.08306724  0.45969111  1
  O  O410  1  0.26773673  0.08391118  0.71322235  1
  O  O411  1  0.26423462  0.08335187  0.96117514  1
  O  O412  1  0.26661137  0.41597763  0.21184211  1
  O  O413  1  0.26560354  0.41684433  0.45927638  1
  O  O414  1  0.26714294  0.41672288  0.71313901  1
  O  O415  1  0.26669302  0.41648303  0.95976469  1
  O  O416  1  0.26639746  0.75100529  0.20932908  1
  O  O417  1  0.26858677  0.74979090  0.46032782  1
  O  O418  1  0.26684665  0.74957652  0.71369252  1
  O  O419  1  0.26527188  0.74952814  0.95945766  1
  O  O420  1  0.76762085  0.08284718  0.21253690  1
  O  O421  1  0.76359681  0.08295163  0.46206668  1
  O  O422  1  0.76444225  0.08336234  0.71141073  1
  O  O423  1  0.76613319  0.08326633  0.95874406  1
  O  O424  1  0.76717143  0.41643001  0.20950468  1
  O  O425  1  0.76443954  0.41723256  0.46205987  1
  O  O426  1  0.76610053  0.41669283  0.71235695  1
  O  O427  1  0.76663174  0.41729698  0.96222477  1
  O  O428  1  0.76565371  0.75009186  0.20946536  1
  O  O429  1  0.76426918  0.75020479  0.46141453  1
  O  O430  1  0.76590771  0.74979295  0.70891013  1
  O  O431  1  0.76779191  0.75003369  0.96195055  1
  O  O432  1  0.01718378  0.08309186  0.16491020  1
  O  O433  1  0.01722386  0.08322262  0.41209199  1
  O  O434  1  0.01624189  0.08241569  0.66517087  1
  O  O435  1  0.01861598  0.08303750  0.91407622  1
  O  O436  1  0.01435295  0.41669152  0.16326191  1
  O  O437  1  0.01727741  0.41632824  0.41221901  1
  O  O438  1  0.01597404  0.41689454  0.66570193  1
  O  O439  1  0.01656162  0.41683123  0.91274698  1
  O  O440  1  0.01404154  0.74991227  0.16374890  1
  O  O441  1  0.01598275  0.75107956  0.41483535  1
  O  O442  1  0.01631479  0.75024997  0.66458495  1
  O  O443  1  0.01676658  0.74972337  0.91508299  1
  O  O444  1  0.51589041  0.08293377  0.16480149  1
  O  O445  1  0.51620785  0.08259275  0.41173946  1
  O  O446  1  0.51704890  0.08303066  0.66509934  1
  O  O447  1  0.51686125  0.08418088  0.91304693  1
  O  O448  1  0.51664574  0.41735245  0.16236548  1
  O  O449  1  0.51507900  0.41607620  0.41222144  1
  O  O450  1  0.51694585  0.41685438  0.66503356  1
  O  O451  1  0.51592435  0.41622246  0.91320914  1
  O  O452  1  0.51972476  0.74980922  0.16375041  1
  O  O453  1  0.51586611  0.75097517  0.41532618  1
  O  O454  1  0.51666634  0.75004067  0.66341996  1
  O  O455  1  0.51624659  0.75002130  0.91290372  1
  O  O456  1  0.48344145  0.25016449  0.08494561  1
  O  O457  1  0.48323898  0.24948011  0.33374889  1
  O  O458  1  0.48123530  0.24975623  0.58512669  1
  O  O459  1  0.48196491  0.25047351  0.83576478  1
  O  O460  1  0.48673541  0.58320998  0.08562335  1
  O  O461  1  0.48540407  0.58391020  0.33587808  1
  O  O462  1  0.48408655  0.58312925  0.58453041  1
  O  O463  1  0.48506365  0.58257696  0.83773016  1
  O  O464  1  0.48634653  0.91698797  0.08592865  1
  O  O465  1  0.48396255  0.91648248  0.33622135  1
  O  O466  1  0.48255841  0.91711612  0.58546059  1
  O  O467  1  0.48547628  0.91685307  0.83757913  1
  O  O468  1  0.98567463  0.24978072  0.08658446  1
  O  O469  1  0.98498556  0.24973988  0.33397266  1
  O  O470  1  0.98496662  0.25010472  0.58738098  1
  O  O471  1  0.98629195  0.24998925  0.83618466  1
  O  O472  1  0.98077891  0.58302803  0.08592549  1
  O  O473  1  0.98456788  0.58327246  0.33696525  1
  O  O474  1  0.98548791  0.58307031  0.58647972  1
  O  O475  1  0.98251624  0.58327949  0.83507810  1
  O  O476  1  0.98262548  0.91721045  0.08825700  1
  O  O477  1  0.98289551  0.91678559  0.33520850  1
  O  O478  1  0.98197102  0.91726946  0.58533317  1
  O  O479  1  0.98212656  0.91620695  0.83533660  1
  O  O480  1  0.08959376  0.31387426  0.07713951  1
  O  O481  1  0.08866980  0.31515264  0.32695149  1
  O  O482  1  0.08840375  0.31496082  0.57832347  1
  O  O483  1  0.08974605  0.31565292  0.82797800  1
  O  O484  1  0.08449084  0.64810064  0.07723228  1
  O  O485  1  0.08805544  0.64809557  0.32768313  1
  O  O486  1  0.08907536  0.64841574  0.57727500  1
  O  O487  1  0.08660818  0.64818149  0.82736222  1
  O  O488  1  0.08619527  0.98241673  0.07857517  1
  O  O489  1  0.08682818  0.98226437  0.32679761  1
  O  O490  1  0.08623004  0.98146078  0.57715545  1
  O  O491  1  0.08617635  0.98106899  0.82726291  1
  O  O492  1  0.58680598  0.31612432  0.07741665  1
  O  O493  1  0.58728630  0.31364565  0.32679152  1
  O  O494  1  0.58475633  0.31536122  0.57767613  1
  O  O495  1  0.58555930  0.31577036  0.82763597  1
  O  O496  1  0.59065086  0.64819550  0.07760747  1
  O  O497  1  0.58945700  0.64830368  0.32738800  1
  O  O498  1  0.58790356  0.64829390  0.57781356  1
  O  O499  1  0.58869557  0.64701790  0.82826858  1
  O  O500  1  0.59060337  0.98076017  0.07740303  1
  O  O501  1  0.58743334  0.98264022  0.32713964  1
  O  O502  1  0.58659314  0.98160861  0.57744703  1
  O  O503  1  0.58847866  0.98276633  0.82874871  1
  O  O504  1  0.41192403  0.01802800  0.17295833  1
  O  O505  1  0.41311059  0.01690854  0.42135792  1
  O  O506  1  0.41315049  0.01809600  0.67311701  1
  O  O507  1  0.41335647  0.01945441  0.92304766  1
  O  O508  1  0.41276621  0.35213753  0.17262172  1
  O  O509  1  0.41124569  0.35174698  0.42131822  1
  O  O510  1  0.41294758  0.35140939  0.67282154  1
  O  O511  1  0.41214843  0.35078701  0.92258911  1
  O  O512  1  0.41590174  0.68502541  0.17260264  1
  O  O513  1  0.41201623  0.68628307  0.42326179  1
  O  O514  1  0.41260624  0.68578944  0.67343189  1
  O  O515  1  0.41305913  0.68454987  0.92295291  1
  O  O516  1  0.91299621  0.01810485  0.17324627  1
  O  O517  1  0.91366698  0.01749395  0.42167056  1
  O  O518  1  0.91209453  0.01783995  0.67165501  1
  O  O519  1  0.91471984  0.01794780  0.92233036  1
  O  O520  1  0.91056468  0.35240237  0.17272885  1
  O  O521  1  0.91374174  0.35143725  0.42252904  1
  O  O522  1  0.91205394  0.35185695  0.67350542  1
  O  O523  1  0.91272234  0.35223324  0.92295208  1
  O  O524  1  0.91069568  0.68455542  0.17177167  1
  O  O525  1  0.91233287  0.68599919  0.42270201  1
  O  O526  1  0.91261921  0.68562201  0.67215502  1
  O  O527  1  0.91269758  0.68463915  0.92253852  1
  O  O528  1  0.16216191  0.01760172  0.20257551  1
  O  O529  1  0.16224064  0.01799660  0.45215371  1
  O  O530  1  0.16445236  0.01867869  0.70253123  1
  O  O531  1  0.16020466  0.01924826  0.95186085  1
  O  O532  1  0.16298426  0.35085557  0.20289442  1
  O  O533  1  0.16130597  0.35290888  0.45202612  1
  O  O534  1  0.16388396  0.35140378  0.70362825  1
  O  O535  1  0.16270851  0.35138870  0.95167545  1
  O  O536  1  0.16240424  0.68638750  0.20223671  1
  O  O537  1  0.16463872  0.68463373  0.45284626  1
  O  O538  1  0.16327266  0.68433240  0.70353489  1
  O  O539  1  0.16098463  0.68500475  0.95180275  1
  O  O540  1  0.66415697  0.01749152  0.20302400  1
  O  O541  1  0.66031240  0.01699915  0.45277670  1
  O  O542  1  0.66061886  0.01887287  0.70208492  1
  O  O543  1  0.66280212  0.01697829  0.95229267  1
  O  O544  1  0.66283936  0.35231191  0.20098121  1
  O  O545  1  0.66118567  0.35204016  0.45281902  1
  O  O546  1  0.66218629  0.35185730  0.70215503  1
  O  O547  1  0.66286227  0.35233754  0.95160334  1
  O  O548  1  0.66168050  0.68556437  0.20233287  1
  O  O549  1  0.66082871  0.68514732  0.45388752  1
  O  O550  1  0.66164019  0.68519484  0.70228716  1
  O  O551  1  0.66415606  0.68504263  0.95305686  1
  O  O552  1  0.33626120  0.31619222  0.04637670  1
  O  O553  1  0.33570582  0.31448587  0.29667914  1
  O  O554  1  0.33845440  0.31484523  0.54807179  1
  O  O555  1  0.33858267  0.31501864  0.79748457  1
  O  O556  1  0.33733133  0.64707902  0.04776778  1
  O  O557  1  0.33823638  0.64785546  0.29680955  1
  O  O558  1  0.33619756  0.64915311  0.54782413  1
  O  O559  1  0.33632881  0.64828046  0.79792398  1
  O  O560  1  0.33693547  0.98159352  0.04747483  1
  O  O561  1  0.33642038  0.98298169  0.29766370  1
  O  O562  1  0.34012108  0.98034248  0.54787095  1
  O  O563  1  0.33879669  0.98202143  0.79709372  1
  O  O564  1  0.83745658  0.31569268  0.04685149  1
  O  O565  1  0.83762689  0.31542785  0.29716095  1
  O  O566  1  0.83650049  0.31494613  0.54769853  1
  O  O567  1  0.83729252  0.31596174  0.79722896  1
  O  O568  1  0.83782169  0.64833114  0.04726675  1
  O  O569  1  0.83623042  0.64697675  0.29745470  1
  O  O570  1  0.83488553  0.64841442  0.54776691  1
  O  O571  1  0.83901434  0.64691108  0.79799343  1
  O  O572  1  0.83855838  0.98125703  0.04771316  1
  O  O573  1  0.83716845  0.98270719  0.29827977  1
  O  O574  1  0.83623247  0.98205141  0.54784657  1
  O  O575  1  0.83880884  0.98171170  0.79770595  1
  O  O576  1  0.41175980  0.14790716  0.17300719  1
  O  O577  1  0.41253872  0.14696526  0.42173541  1
  O  O578  1  0.41303147  0.14807744  0.67295070  1
  O  O579  1  0.41321838  0.14951586  0.92221051  1
  O  O580  1  0.41284410  0.48204899  0.17250348  1
  O  O581  1  0.41221281  0.48187095  0.42188363  1
  O  O582  1  0.41285711  0.48129568  0.67377704  1
  O  O583  1  0.41214057  0.48072578  0.92376550  1
  O  O584  1  0.41601463  0.81500738  0.17257524  1
  O  O585  1  0.41205754  0.81630093  0.42201014  1
  O  O586  1  0.41313332  0.81581571  0.67239636  1
  O  O587  1  0.41262875  0.81465163  0.92264105  1
  O  O588  1  0.91331677  0.14795191  0.17378178  1
  O  O589  1  0.91347749  0.14752020  0.42250640  1
  O  O590  1  0.91293527  0.14788015  0.67302815  1
  O  O591  1  0.91511346  0.14801951  0.92315760  1
  O  O592  1  0.91082151  0.48243962  0.17231445  1
  O  O593  1  0.91376122  0.48150137  0.42273270  1
  O  O594  1  0.91189509  0.48170136  0.67306595  1
  O  O595  1  0.91272975  0.48219497  0.92203255  1
  O  O596  1  0.91053535  0.81494967  0.17145561  1
  O  O597  1  0.91207738  0.81626260  0.42158668  1
  O  O598  1  0.91267585  0.81578927  0.67146793  1
  O  O599  1  0.91267793  0.81469911  0.92260767  1
  O  O600  1  0.08905115  0.18370540  0.07858279  1
  O  O601  1  0.08908847  0.18506690  0.32743837  1
  O  O602  1  0.08833093  0.18486240  0.57837957  1
  O  O603  1  0.09041241  0.18551928  0.82833106  1
  O  O604  1  0.08452845  0.51816482  0.07696084  1
  O  O605  1  0.08794608  0.51776783  0.32793592  1
  O  O606  1  0.08939258  0.51850591  0.57758452  1
  O  O607  1  0.08659864  0.51814647  0.82703986  1
  O  O608  1  0.08599193  0.85240295  0.07776774  1
  O  O609  1  0.08708944  0.85243103  0.32634467  1
  O  O610  1  0.08549283  0.85159930  0.57662921  1
  O  O611  1  0.08579924  0.85098986  0.82757105  1
  O  O612  1  0.58745982  0.18587833  0.07746540  1
  O  O613  1  0.58678605  0.18359114  0.32727822  1
  O  O614  1  0.58515689  0.18512212  0.57800417  1
  O  O615  1  0.58588024  0.18572938  0.82765631  1
  O  O616  1  0.59035346  0.51806462  0.07755590  1
  O  O617  1  0.58885102  0.51841786  0.32677989  1
  O  O618  1  0.58791585  0.51813144  0.57784469  1
  O  O619  1  0.58819599  0.51680828  0.82900036  1
  O  O620  1  0.58971552  0.85074971  0.07755200  1
  O  O621  1  0.58838848  0.85291711  0.32704697  1
  O  O622  1  0.58620302  0.85156158  0.57699109  1
  O  O623  1  0.58908053  0.85256602  0.82803310  1
  O  O624  1  0.33620742  0.18609049  0.04717856  1
  O  O625  1  0.33556138  0.18439649  0.29678729  1
  O  O626  1  0.33828112  0.18489656  0.54823535  1
  O  O627  1  0.33850612  0.18495230  0.79800487  1
  O  O628  1  0.33686182  0.51691502  0.04682812  1
  O  O629  1  0.33737173  0.51753529  0.29681672  1
  O  O630  1  0.33615272  0.51911526  0.54802836  1
  O  O631  1  0.33641487  0.51824784  0.79775849  1
  O  O632  1  0.33659301  0.85152284  0.04776824  1
  O  O633  1  0.33766672  0.85308877  0.29775433  1
  O  O634  1  0.33928528  0.85029097  0.54702965  1
  O  O635  1  0.33939948  0.85164351  0.79645250  1
  O  O636  1  0.83799304  0.18557756  0.04725088  1
  O  O637  1  0.83754730  0.18497533  0.29779683  1
  O  O638  1  0.83646980  0.18479669  0.54787415  1
  O  O639  1  0.83695080  0.18591791  0.79804216  1
  O  O640  1  0.83829882  0.51824430  0.04688711  1
  O  O641  1  0.83555886  0.51686607  0.29704630  1
  O  O642  1  0.83543432  0.51853036  0.54775861  1
  O  O643  1  0.83798206  0.51695038  0.79772327  1
  O  O644  1  0.83826294  0.85118867  0.04714132  1
  O  O645  1  0.83764423  0.85280425  0.29808599  1
  O  O646  1  0.83653608  0.85220345  0.54765781  1
  O  O647  1  0.83894335  0.85180649  0.79731865  1
  O  O648  1  0.16155998  0.14772265  0.20283372  1
  O  O649  1  0.16213356  0.14791590  0.45240148  1
  O  O650  1  0.16408048  0.14889954  0.70365571  1
  O  O651  1  0.16098727  0.14934201  0.95310066  1
  O  O652  1  0.16307051  0.48089090  0.20211850  1
  O  O653  1  0.16209967  0.48291829  0.45272263  1
  O  O654  1  0.16337002  0.48157289  0.70367614  1
  O  O655  1  0.16250827  0.48119831  0.95140543  1
  O  O656  1  0.16261986  0.81653256  0.20282789  1
  O  O657  1  0.16484838  0.81462537  0.45226103  1
  O  O658  1  0.16364040  0.81453901  0.70240885  1
  O  O659  1  0.16153262  0.81492888  0.95118701  1
  O  O660  1  0.66399680  0.14747572  0.20260595  1
  O  O661  1  0.65952032  0.14700944  0.45225890  1
  O  O662  1  0.66082307  0.14875425  0.70199473  1
  O  O663  1  0.66153557  0.14700637  0.95156926  1
  O  O664  1  0.66348723  0.48216798  0.20139616  1
  O  O665  1  0.66083057  0.48219969  0.45373635  1
  O  O666  1  0.66232437  0.48156793  0.70275742  1
  O  O667  1  0.66278496  0.48222999  0.95244741  1
  O  O668  1  0.66222081  0.81573202  0.20214667  1
  O  O669  1  0.66105783  0.81552691  0.45338314  1
  O  O670  1  0.66199848  0.81494498  0.70158223  1
  O  O671  1  0.66429588  0.81517156  0.95304209  1
