# generated using pymatgen
data_Na2MnFe(PO4)2
_symmetry_space_group_name_H-M   'P 1'
_cell_length_a   21.08898775
_cell_length_b   18.94234827
_cell_length_c   20.04760239
_cell_angle_alpha   90.00054933
_cell_angle_beta   90.00329934
_cell_angle_gamma   90.00268809
_symmetry_Int_Tables_number   1
_chemical_formula_structural   Na2MnFe(PO4)2
_chemical_formula_sum   'Na96 Mn48 Fe48 P96 O384'
_cell_volume   8008.51495460
_cell_formula_units_Z   48
loop_
 _symmetry_equiv_pos_site_id
 _symmetry_equiv_pos_as_xyz
  1  'x, y, z'
loop_
 _atom_site_type_symbol
 _atom_site_label
 _atom_site_symmetry_multiplicity
 _atom_site_fract_x
 _atom_site_fract_y
 _atom_site_fract_z
 _atom_site_occupancy
  Na  Na0  1  -0.00078958  -0.00019358  0.00138392  1
  Na  Na1  1  -0.00048041  0.00038480  0.24940008  1
  Na  Na2  1  -0.00168573  0.00005149  0.49946426  1
  Na  Na3  1  -0.00097849  0.00005725  0.74924958  1
  Na  Na4  1  -0.00047127  0.33356211  0.00089482  1
  Na  Na5  1  -0.00024275  0.33328845  0.24972857  1
  Na  Na6  1  -0.00061527  0.33323406  0.49879783  1
  Na  Na7  1  -0.00081865  0.33335391  0.74994571  1
  Na  Na8  1  -0.00041818  0.66642176  0.00075938  1
  Na  Na9  1  0.00357967  0.66707681  0.24962439  1
  Na  Na10  1  0.00120633  0.66641133  0.49948421  1
  Na  Na11  1  -0.00128105  0.66607183  0.75114293  1
  Na  Na12  1  0.49998546  0.00012311  -0.00034201  1
  Na  Na13  1  0.49931879  0.00065094  0.25075999  1
  Na  Na14  1  0.49981225  0.00008614  0.49993005  1
  Na  Na15  1  0.50276811  0.00067380  0.74987097  1
  Na  Na16  1  0.50062941  0.33328272  -0.00007242  1
  Na  Na17  1  0.49780674  0.33237611  0.25129633  1
  Na  Na18  1  0.49984915  0.33316964  0.50035500  1
  Na  Na19  1  0.50157897  0.33344893  0.74907234  1
  Na  Na20  1  0.49831685  0.66559373  0.00125458  1
  Na  Na21  1  0.49967075  0.66681573  0.24929116  1
  Na  Na22  1  0.50024321  0.66691447  0.49973090  1
  Na  Na23  1  0.50117982  0.66770968  0.74901961  1
  Na  Na24  1  0.25234906  0.00130969  0.12453533  1
  Na  Na25  1  0.25000707  -0.00003859  0.37459423  1
  Na  Na26  1  0.24960033  0.00046343  0.62576565  1
  Na  Na27  1  0.24993530  0.00011386  0.87505634  1
  Na  Na28  1  0.25161489  0.33350628  0.12531484  1
  Na  Na29  1  0.25002780  0.33264800  0.37433640  1
  Na  Na30  1  0.25000645  0.33389308  0.62541369  1
  Na  Na31  1  0.24856917  0.33276950  0.87493000  1
  Na  Na32  1  0.24945604  0.66566705  0.12438355  1
  Na  Na33  1  0.24922353  0.66590992  0.37380453  1
  Na  Na34  1  0.24888394  0.66604720  0.62569602  1
  Na  Na35  1  0.25182199  0.66747974  0.87594220  1
  Na  Na36  1  0.74977647  0.00005677  0.12427177  1
  Na  Na37  1  0.75087294  0.00072539  0.37562394  1
  Na  Na38  1  0.74982023  -0.00026713  0.62539421  1
  Na  Na39  1  0.74938354  -0.00027209  0.87544488  1
  Na  Na40  1  0.74914337  0.33328347  0.12513550  1
  Na  Na41  1  0.75237127  0.33401279  0.37462598  1
  Na  Na42  1  0.75168115  0.33304911  0.62439446  1
  Na  Na43  1  0.74915086  0.33309424  0.87516976  1
  Na  Na44  1  0.74938939  0.66600967  0.12408524  1
  Na  Na45  1  0.74919463  0.66645357  0.37565428  1
  Na  Na46  1  0.74914805  0.66639638  0.62561005  1
  Na  Na47  1  0.75107102  0.66744368  0.87476097  1
  Na  Na48  1  -0.00090848  0.16650547  0.00142871  1
  Na  Na49  1  -0.00099534  0.16702506  0.25004840  1
  Na  Na50  1  -0.00198854  0.16758182  0.49848297  1
  Na  Na51  1  -0.00009378  0.16591410  0.74963172  1
  Na  Na52  1  0.00007422  0.49979661  0.00077968  1
  Na  Na53  1  0.00095970  0.49967140  0.24975512  1
  Na  Na54  1  0.00087386  0.49896800  0.49906128  1
  Na  Na55  1  -0.00199654  0.50012971  0.75026936  1
  Na  Na56  1  -0.00122328  0.83428523  0.00065258  1
  Na  Na57  1  0.00256447  0.83262100  0.24910655  1
  Na  Na58  1  -0.00070769  0.83435276  0.49995029  1
  Na  Na59  1  -0.00070203  0.83388619  0.75049484  1
  Na  Na60  1  0.50015691  0.16698416  -0.00006006  1
  Na  Na61  1  0.49778215  0.16741051  0.25069331  1
  Na  Na62  1  0.50068792  0.16659903  0.50011625  1
  Na  Na63  1  0.50267332  0.16653141  0.74945022  1
  Na  Na64  1  0.49873362  0.50036015  0.00095315  1
  Na  Na65  1  0.49950370  0.49927249  0.25046620  1
  Na  Na66  1  0.49820658  0.50001932  0.49952787  1
  Na  Na67  1  0.49871785  0.50057627  0.74890420  1
  Na  Na68  1  0.49997780  0.83393656  -0.00004488  1
  Na  Na69  1  0.49872401  0.83406531  0.25015313  1
  Na  Na70  1  0.50147836  0.83318414  0.50050629  1
  Na  Na71  1  0.50345594  0.83253666  0.74952135  1
  Na  Na72  1  0.25162807  0.16676577  0.12510630  1
  Na  Na73  1  0.25190839  0.16625412  0.37422473  1
  Na  Na74  1  0.24856974  0.16735061  0.62574680  1
  Na  Na75  1  0.25088988  0.16579119  0.87466044  1
  Na  Na76  1  0.25019504  0.49953536  0.12465142  1
  Na  Na77  1  0.24824455  0.50013470  0.37415565  1
  Na  Na78  1  0.24886556  0.49964012  0.62597737  1
  Na  Na79  1  0.24933638  0.50040238  0.87514249  1
  Na  Na80  1  0.25091380  0.83360543  0.12468614  1
  Na  Na81  1  0.25011664  0.83365414  0.37404778  1
  Na  Na82  1  0.25061020  0.83322599  0.62523915  1
  Na  Na83  1  0.25030585  0.83340141  0.87602782  1
  Na  Na84  1  0.74972414  0.16643055  0.12520624  1
  Na  Na85  1  0.75227127  0.16588472  0.37564199  1
  Na  Na86  1  0.74968627  0.16738969  0.62433171  1
  Na  Na87  1  0.74850350  0.16704435  0.87497110  1
  Na  Na88  1  0.75040189  0.49977092  0.12396731  1
  Na  Na89  1  0.75055923  0.49946071  0.37487178  1
  Na  Na90  1  0.75266897  0.49894140  0.62502890  1
  Na  Na91  1  0.75273340  0.49877115  0.87638598  1
  Na  Na92  1  0.74890182  0.83347033  0.12416608  1
  Na  Na93  1  0.74956574  0.83350275  0.37547318  1
  Na  Na94  1  0.74878096  0.83388541  0.62593690  1
  Na  Na95  1  0.74831870  0.83403574  0.87413559  1
  Mn  Mn96  1  0.14143979  0.58417581  0.74868438  1
  Mn  Mn97  1  0.89234425  0.91661105  0.37666520  1
  Mn  Mn98  1  0.64254538  0.58276236  0.74830283  1
  Mn  Mn99  1  0.60837211  0.41800688  0.87259945  1
  Mn  Mn100  1  0.64218233  0.25049139  0.24842322  1
  Mn  Mn101  1  0.35795273  0.41629534  0.00207316  1
  Mn  Mn102  1  0.85714455  0.74963498  0.75258925  1
  Mn  Mn103  1  0.10814917  0.08315745  0.12293345  1
  Mn  Mn104  1  0.10724508  0.75057001  0.87330482  1
  Mn  Mn105  1  0.64232956  0.58248271  0.49749008  1
  Mn  Mn106  1  0.60861127  0.41697446  0.62219573  1
  Mn  Mn107  1  0.10770035  0.08392735  0.37269712  1
  Mn  Mn108  1  0.89186077  0.91608540  0.12742632  1
  Mn  Mn109  1  0.60770113  0.74958809  0.37267345  1
  Mn  Mn110  1  0.89157165  0.24936543  0.87802160  1
  Mn  Mn111  1  0.60743835  0.08371341  0.37307435  1
  Mn  Mn112  1  0.89131367  0.25008563  0.12744802  1
  Mn  Mn113  1  0.35702444  0.74996464  0.25190848  1
  Mn  Mn114  1  0.10684947  0.08364904  0.62211058  1
  Mn  Mn115  1  0.39157187  0.91692923  0.37787450  1
  Mn  Mn116  1  0.64205723  0.58349053  0.99730459  1
  Mn  Mn117  1  0.10894176  0.74998630  0.37290540  1
  Mn  Mn118  1  0.14264436  0.25003230  0.99769741  1
  Mn  Mn119  1  0.39300531  0.25054049  0.87683119  1
  Mn  Mn120  1  0.10813252  0.41669738  0.12286107  1
  Mn  Mn121  1  0.39311009  0.91699213  0.62724569  1
  Mn  Mn122  1  0.39153894  0.58376641  0.62671468  1
  Mn  Mn123  1  0.10771700  0.75026710  0.62283296  1
  Mn  Mn124  1  0.60839863  0.08298062  0.87287684  1
  Mn  Mn125  1  0.39301805  0.91623625  0.87655759  1
  Mn  Mn126  1  0.89275276  0.58379299  0.12758308  1
  Mn  Mn127  1  0.14298529  0.91679291  0.99743871  1
  Mn  Mn128  1  0.64187023  0.91648707  0.24740251  1
  Mn  Mn129  1  0.89295963  0.58326226  0.37652560  1
  Mn  Mn130  1  0.60752426  0.41652617  0.37303282  1
  Mn  Mn131  1  0.14101085  0.24953556  0.74792229  1
  Mn  Mn132  1  0.89222645  0.58349156  0.62696750  1
  Mn  Mn133  1  0.39133850  0.58310090  0.37747037  1
  Mn  Mn134  1  0.35761665  0.41666735  0.75252853  1
  Mn  Mn135  1  0.35795344  0.08308103  0.75185682  1
  Mn  Mn136  1  0.60715959  0.75004790  0.12232409  1
  Mn  Mn137  1  0.35849719  0.75051242  0.75235513  1
  Mn  Mn138  1  0.85724050  0.08369674  0.75266108  1
  Mn  Mn139  1  0.39272491  0.24962507  0.62668540  1
  Mn  Mn140  1  0.10691746  0.41609070  0.62253237  1
  Mn  Mn141  1  0.14218794  0.91692075  0.49788251  1
  Mn  Mn142  1  0.85809143  0.74955202  0.25221965  1
  Mn  Mn143  1  0.85785653  0.75021176  0.50253700  1
  Fe  Fe144  1  0.85715568  0.41639062  0.00210082  1
  Fe  Fe145  1  0.64314663  0.91725386  0.74770845  1
  Fe  Fe146  1  0.10767890  0.41586668  0.37298593  1
  Fe  Fe147  1  0.14264589  0.58281712  0.49854846  1
  Fe  Fe148  1  0.85692516  0.08329676  0.50191472  1
  Fe  Fe149  1  0.14360957  0.58331573  0.99785179  1
  Fe  Fe150  1  0.89264428  0.58382005  0.87763303  1
  Fe  Fe151  1  0.35699598  0.08363220  0.50251808  1
  Fe  Fe152  1  0.64336208  0.91732758  0.49854470  1
  Fe  Fe153  1  0.60832619  0.08322500  0.62240039  1
  Fe  Fe154  1  0.85672685  0.08311127  0.00157093  1
  Fe  Fe155  1  0.85758020  0.41622870  0.75221716  1
  Fe  Fe156  1  0.85701683  0.41666324  0.25152310  1
  Fe  Fe157  1  0.39310860  0.91723390  0.12626261  1
  Fe  Fe158  1  0.89204750  0.91653909  0.87681989  1
  Fe  Fe159  1  0.60725158  0.74916618  0.87415125  1
  Fe  Fe160  1  0.60684465  0.41616821  0.12422150  1
  Fe  Fe161  1  0.14322849  0.91722279  0.24793168  1
  Fe  Fe162  1  0.89234347  0.24959667  0.62653316  1
  Fe  Fe163  1  0.85687817  0.08354100  0.25150892  1
  Fe  Fe164  1  0.64228031  0.24984488  0.99926949  1
  Fe  Fe165  1  0.64331005  0.25019173  0.74772464  1
  Fe  Fe166  1  0.64243244  0.91673511  0.99853071  1
  Fe  Fe167  1  0.35805660  0.75032360  0.00185417  1
  Fe  Fe168  1  0.35765686  0.08371362  0.25142057  1
  Fe  Fe169  1  0.14235674  0.25022812  0.49774349  1
  Fe  Fe170  1  0.10606384  0.41617677  0.87389231  1
  Fe  Fe171  1  0.64237653  0.58289979  0.24838185  1
  Fe  Fe172  1  0.35731385  0.74990563  0.50162291  1
  Fe  Fe173  1  0.60693527  0.08401607  0.12363140  1
  Fe  Fe174  1  0.35727526  0.41619650  0.25173652  1
  Fe  Fe175  1  0.85819036  0.41643307  0.50118068  1
  Fe  Fe176  1  0.10820119  0.75022610  0.12250680  1
  Fe  Fe177  1  0.85694028  0.75034170  0.00162779  1
  Fe  Fe178  1  0.39175288  0.25012273  0.37825856  1
  Fe  Fe179  1  0.14372318  0.24951491  0.24831243  1
  Fe  Fe180  1  0.39253563  0.58254176  0.12718109  1
  Fe  Fe181  1  0.89310298  0.25038307  0.37638810  1
  Fe  Fe182  1  0.39307986  0.24988950  0.12645821  1
  Fe  Fe183  1  0.89192880  0.91672325  0.62702697  1
  Fe  Fe184  1  0.35828760  0.08311386  0.00162478  1
  Fe  Fe185  1  0.14323754  0.58291225  0.24737333  1
  Fe  Fe186  1  0.35586346  0.41654912  0.50140497  1
  Fe  Fe187  1  0.60765032  0.75009841  0.62249639  1
  Fe  Fe188  1  0.14157525  0.91664764  0.74878840  1
  Fe  Fe189  1  0.10702030  0.08330163  0.87431163  1
  Fe  Fe190  1  0.64418855  0.25000670  0.49793051  1
  Fe  Fe191  1  0.39247427  0.58347281  0.87661313  1
  P  P192  1  0.05444212  0.24989285  0.11127728  1
  P  P193  1  0.05434891  0.25071987  0.36005377  1
  P  P194  1  0.05196280  0.24983314  0.60860111  1
  P  P195  1  0.05256855  0.24962853  0.86069020  1
  P  P196  1  0.05612999  0.58380900  0.11029244  1
  P  P197  1  0.05616163  0.58194998  0.36023199  1
  P  P198  1  0.05364160  0.58311384  0.60933905  1
  P  P199  1  0.05287517  0.58266309  0.86202181  1
  P  P200  1  0.05509891  0.91639071  0.11095748  1
  P  P201  1  0.05429076  0.91725649  0.35884469  1
  P  P202  1  0.05241387  0.91694541  0.61080599  1
  P  P203  1  0.05213000  0.91778293  0.86010313  1
  P  P204  1  0.55270805  0.25012923  0.11050323  1
  P  P205  1  0.55293058  0.25002200  0.36153546  1
  P  P206  1  0.55619320  0.24945920  0.60990858  1
  P  P207  1  0.55594038  0.25032322  0.86025815  1
  P  P208  1  0.55322992  0.58195388  0.11159527  1
  P  P209  1  0.55337670  0.58296671  0.35899657  1
  P  P210  1  0.55339503  0.58372483  0.60955707  1
  P  P211  1  0.55177284  0.58422404  0.86001055  1
  P  P212  1  0.55279066  0.91795581  0.10968145  1
  P  P213  1  0.55415286  0.91706682  0.36113479  1
  P  P214  1  0.55599144  0.91714178  0.61043488  1
  P  P215  1  0.55584541  0.91557797  0.86059882  1
  P  P216  1  0.44626187  0.08342481  0.13921497  1
  P  P217  1  0.44420996  0.08432363  0.38999079  1
  P  P218  1  0.44761677  0.08352653  0.63900662  1
  P  P219  1  0.44678985  0.08343824  0.89024607  1
  P  P220  1  0.44682068  0.41607938  0.14067953  1
  P  P221  1  0.44414832  0.41580618  0.38982713  1
  P  P222  1  0.44533391  0.41635019  0.63855497  1
  P  P223  1  0.44728205  0.41745587  0.88994160  1
  P  P224  1  0.44500069  0.75038405  0.13867666  1
  P  P225  1  0.44559843  0.74999536  0.39073484  1
  P  P226  1  0.44692404  0.75047601  0.63867601  1
  P  P227  1  0.44756041  0.74947576  0.89057018  1
  P  P228  1  0.94439214  0.08327773  0.13970067  1
  P  P229  1  0.94450245  0.08422411  0.38893686  1
  P  P230  1  0.94442113  0.08361943  0.63842543  1
  P  P231  1  0.94682206  0.08230399  0.89089687  1
  P  P232  1  0.94479924  0.41679410  0.13986294  1
  P  P233  1  0.94626613  0.41603958  0.38852568  1
  P  P234  1  0.94445110  0.41552953  0.63921009  1
  P  P235  1  0.94544379  0.41691341  0.89000810  1
  P  P236  1  0.94730731  0.74989305  0.13912714  1
  P  P237  1  0.94755636  0.74980858  0.38991430  1
  P  P238  1  0.94651380  0.75066266  0.64046051  1
  P  P239  1  0.94565618  0.75051406  0.89096956  1
  P  P240  1  0.19803469  0.08389407  0.23513725  1
  P  P241  1  0.19765452  0.08434773  0.48497073  1
  P  P242  1  0.19442150  0.08227086  0.73631219  1
  P  P243  1  0.19798255  0.08348309  0.98470828  1
  P  P244  1  0.19672909  0.41563894  0.23615512  1
  P  P245  1  0.19641601  0.41615484  0.48453775  1
  P  P246  1  0.19449918  0.41669986  0.73645983  1
  P  P247  1  0.19601717  0.41732849  0.98449706  1
  P  P248  1  0.19591253  0.75014520  0.23394425  1
  P  P249  1  0.19821363  0.74947634  0.48519428  1
  P  P250  1  0.19640808  0.75112422  0.73563085  1
  P  P251  1  0.19724494  0.74930180  0.98635391  1
  P  P252  1  0.69686817  0.08372922  0.23478211  1
  P  P253  1  0.69673542  0.08352457  0.48634265  1
  P  P254  1  0.69602832  0.08344222  0.73451801  1
  P  P255  1  0.69596248  0.08342333  0.98673162  1
  P  P256  1  0.69697142  0.41725239  0.23463292  1
  P  P257  1  0.69849904  0.41539521  0.48481186  1
  P  P258  1  0.69838391  0.41642801  0.73495465  1
  P  P259  1  0.69622856  0.41595445  0.98673076  1
  P  P260  1  0.69658912  0.74886481  0.23457656  1
  P  P261  1  0.69553807  0.75093272  0.48632182  1
  P  P262  1  0.69436963  0.75035058  0.73599224  1
  P  P263  1  0.69686890  0.75058367  0.98439709  1
  P  P264  1  0.30451655  0.24924655  0.01537100  1
  P  P265  1  0.30514731  0.24999180  0.26397061  1
  P  P266  1  0.30272045  0.25011926  0.51404495  1
  P  P267  1  0.30311313  0.24977340  0.76498525  1
  P  P268  1  0.30481400  0.58372536  0.01441867  1
  P  P269  1  0.30346190  0.58224130  0.26326515  1
  P  P270  1  0.30162708  0.58270744  0.51467744  1
  P  P271  1  0.30368791  0.58364110  0.76602528  1
  P  P272  1  0.30494479  0.91687520  0.01510172  1
  P  P273  1  0.30385852  0.91770147  0.26325927  1
  P  P274  1  0.30335230  0.91700085  0.51530416  1
  P  P275  1  0.30202782  0.91681268  0.76516864  1
  P  P276  1  0.80198692  0.24978881  0.01499457  1
  P  P277  1  0.80390227  0.25007965  0.26549615  1
  P  P278  1  0.80499890  0.24998990  0.51368389  1
  P  P279  1  0.80325377  0.25044723  0.76394305  1
  P  P280  1  0.80493135  0.58381737  0.01377919  1
  P  P281  1  0.80217834  0.58250177  0.26468737  1
  P  P282  1  0.80365771  0.58267657  0.51473736  1
  P  P283  1  0.80427737  0.58236738  0.76598271  1
  P  P284  1  0.80335897  0.91641767  0.01338476  1
  P  P285  1  0.80285603  0.91721196  0.26489089  1
  P  P286  1  0.80310258  0.91732344  0.51561406  1
  P  P287  1  0.80366204  0.91681669  0.76470792  1
  O  O288  1  0.05929952  0.24972031  0.18797828  1
  O  O289  1  0.05909773  0.25000071  0.43675230  1
  O  O290  1  0.05589247  0.24970390  0.68532342  1
  O  O291  1  0.05557285  0.24979314  0.93746093  1
  O  O292  1  0.06046479  0.58274926  0.18714687  1
  O  O293  1  0.06006578  0.58269573  0.43703674  1
  O  O294  1  0.05621413  0.58314857  0.68617522  1
  O  O295  1  0.05815954  0.58335139  0.93862101  1
  O  O296  1  0.05984866  0.91736459  0.18764635  1
  O  O297  1  0.05710159  0.91760858  0.43570515  1
  O  O298  1  0.05739263  0.91689262  0.68741560  1
  O  O299  1  0.05627449  0.91710939  0.93682029  1
  O  O300  1  0.55593343  0.24987140  0.18721372  1
  O  O301  1  0.55907264  0.25012937  0.43805938  1
  O  O302  1  0.56042187  0.25043884  0.68673473  1
  O  O303  1  0.55992971  0.25022903  0.93708849  1
  O  O304  1  0.55822070  0.58264274  0.18817992  1
  O  O305  1  0.55692821  0.58274039  0.43576755  1
  O  O306  1  0.55672323  0.58287167  0.68629866  1
  O  O307  1  0.55552183  0.58321345  0.93676272  1
  O  O308  1  0.55605677  0.91728454  0.18645054  1
  O  O309  1  0.55904790  0.91741564  0.43781051  1
  O  O310  1  0.55965151  0.91734920  0.68727707  1
  O  O311  1  0.55956601  0.91683845  0.93740539  1
  O  O312  1  0.44214545  0.08346499  0.06251191  1
  O  O313  1  0.44015370  0.08357439  0.31317021  1
  O  O314  1  0.44175974  0.08371492  0.56240520  1
  O  O315  1  0.44388548  0.08344127  0.81341748  1
  O  O316  1  0.44354738  0.41639771  0.06397552  1
  O  O317  1  0.44002744  0.41644498  0.31306232  1
  O  O318  1  0.44014796  0.41620032  0.56185653  1
  O  O319  1  0.44423937  0.41660108  0.81317239  1
  O  O320  1  0.44140386  0.75013677  0.06190608  1
  O  O321  1  0.44199299  0.75007792  0.31392883  1
  O  O322  1  0.44112270  0.75033436  0.56209109  1
  O  O323  1  0.44458935  0.75049973  0.81377657  1
  O  O324  1  0.93959340  0.08331325  0.06295824  1
  O  O325  1  0.94058138  0.08339177  0.31217323  1
  O  O326  1  0.94056641  0.08348077  0.56165215  1
  O  O327  1  0.94309113  0.08316754  0.81414578  1
  O  O328  1  0.94012378  0.41646751  0.06310073  1
  O  O329  1  0.94135062  0.41688452  0.31186617  1
  O  O330  1  0.94092356  0.41626252  0.56236757  1
  O  O331  1  0.94107063  0.41610853  0.81324993  1
  O  O332  1  0.94144928  0.75015770  0.06257715  1
  O  O333  1  0.94447469  0.74950410  0.31312455  1
  O  O334  1  0.94384654  0.75026232  0.56365478  1
  O  O335  1  0.94273515  0.75032840  0.81421610  1
  O  O336  1  0.19394450  0.08361343  0.06137675  1
  O  O337  1  0.19420023  0.08376162  0.31176781  1
  O  O338  1  0.19350000  0.08409378  0.56166789  1
  O  O339  1  0.19013833  0.08294337  0.81302846  1
  O  O340  1  0.19346923  0.41637958  0.06130262  1
  O  O341  1  0.19221072  0.41561121  0.31277604  1
  O  O342  1  0.19305732  0.41587427  0.56128451  1
  O  O343  1  0.18968239  0.41646657  0.81316011  1
  O  O344  1  0.19250748  0.74992740  0.06294889  1
  O  O345  1  0.19369625  0.75022270  0.31080500  1
  O  O346  1  0.19443934  0.75011740  0.56187992  1
  O  O347  1  0.19310898  0.75057014  0.81242163  1
  O  O348  1  0.69119299  0.08340241  0.06339027  1
  O  O349  1  0.69315205  0.08374638  0.31150392  1
  O  O350  1  0.69258277  0.08356972  0.56300529  1
  O  O351  1  0.69360260  0.08319397  0.81129369  1
  O  O352  1  0.69095380  0.41670834  0.06330769  1
  O  O353  1  0.69329589  0.41656632  0.31131932  1
  O  O354  1  0.69483556  0.41601513  0.56146797  1
  O  O355  1  0.69457282  0.41726751  0.81168107  1
  O  O356  1  0.69288782  0.74968704  0.06112419  1
  O  O357  1  0.69359726  0.74958274  0.31135992  1
  O  O358  1  0.69172447  0.75005313  0.56312853  1
  O  O359  1  0.69059142  0.74924677  0.81273501  1
  O  O360  1  0.30983814  0.25018113  0.18727754  1
  O  O361  1  0.30701189  0.24987683  0.43732427  1
  O  O362  1  0.30668507  0.24997706  0.68822273  1
  O  O363  1  0.30733736  0.25003556  0.93862376  1
  O  O364  1  0.30852767  0.58240186  0.18660901  1
  O  O365  1  0.30485205  0.58290545  0.43794456  1
  O  O366  1  0.30673023  0.58333029  0.68922267  1
  O  O367  1  0.30940763  0.58327953  0.93772039  1
  O  O368  1  0.30886660  0.91742574  0.18666731  1
  O  O369  1  0.30575394  0.91686881  0.43847324  1
  O  O370  1  0.30640270  0.91694834  0.68851563  1
  O  O371  1  0.30764173  0.91660700  0.93832472  1
  O  O372  1  0.80593963  0.25014804  0.18869356  1
  O  O373  1  0.80934575  0.25013899  0.43701024  1
  O  O374  1  0.80791152  0.24972656  0.68732521  1
  O  O375  1  0.80531414  0.24982406  0.93828625  1
  O  O376  1  0.80602636  0.58330460  0.18799113  1
  O  O377  1  0.80682504  0.58342265  0.43799016  1
  O  O378  1  0.80696699  0.58351874  0.68919467  1
  O  O379  1  0.80908701  0.58375289  0.93705127  1
  O  O380  1  0.80569365  0.91638671  0.18807529  1
  O  O381  1  0.80680971  0.91655530  0.43891163  1
  O  O382  1  0.80856302  0.91663841  0.68805303  1
  O  O383  1  0.80776770  0.91655040  0.93671941  1
  O  O384  1  0.23482170  0.25018879  0.04057248  1
  O  O385  1  0.23467815  0.24949753  0.28755663  1
  O  O386  1  0.23250773  0.25045050  0.53834558  1
  O  O387  1  0.23334416  0.24922873  0.78970605  1
  O  O388  1  0.23440619  0.58284755  0.03798027  1
  O  O389  1  0.23298690  0.58302349  0.28654998  1
  O  O390  1  0.23172821  0.58248588  0.53989087  1
  O  O391  1  0.23395181  0.58410501  0.79092212  1
  O  O392  1  0.23521379  0.91721276  0.04020013  1
  O  O393  1  0.23352249  0.91702872  0.28704557  1
  O  O394  1  0.23380688  0.91728098  0.54095329  1
  O  O395  1  0.23211760  0.91674050  0.78988365  1
  O  O396  1  0.73207903  0.24977545  0.04009232  1
  O  O397  1  0.73435805  0.25008257  0.29123568  1
  O  O398  1  0.73466783  0.24990246  0.53763285  1
  O  O399  1  0.73299702  0.24998229  0.78787878  1
  O  O400  1  0.73482659  0.58337584  0.03783093  1
  O  O401  1  0.73224571  0.58254822  0.28951009  1
  O  O402  1  0.73407466  0.58245039  0.54015015  1
  O  O403  1  0.73461036  0.58282795  0.79133699  1
  O  O404  1  0.73305137  0.91646605  0.03747601  1
  O  O405  1  0.73333672  0.91725896  0.29041657  1
  O  O406  1  0.73302818  0.91717322  0.54003715  1
  O  O407  1  0.73315933  0.91716011  0.78778711  1
  O  O408  1  0.26816570  0.08441957  0.21069171  1
  O  O409  1  0.26770341  0.08349331  0.46058396  1
  O  O410  1  0.26442756  0.08332909  0.71199039  1
  O  O411  1  0.26820873  0.08297912  0.96072489  1
  O  O412  1  0.26700082  0.41592255  0.21200708  1
  O  O413  1  0.26640754  0.41618513  0.45968421  1
  O  O414  1  0.26456983  0.41679058  0.71258494  1
  O  O415  1  0.26573133  0.41660290  0.95944210  1
  O  O416  1  0.26559750  0.74967925  0.20865907  1
  O  O417  1  0.26809150  0.74975505  0.46005384  1
  O  O418  1  0.26607656  0.75018909  0.71051613  1
  O  O419  1  0.26762318  0.75012124  0.96270805  1
  O  O420  1  0.76700248  0.08373238  0.21052711  1
  O  O421  1  0.76701083  0.08360298  0.46234092  1
  O  O422  1  0.76569300  0.08351166  0.70928181  1
  O  O423  1  0.76620568  0.08329596  0.96245152  1
  O  O424  1  0.76710232  0.41635258  0.21025441  1
  O  O425  1  0.76856302  0.41598024  0.46031900  1
  O  O426  1  0.76839106  0.41641688  0.71044183  1
  O  O427  1  0.76670313  0.41624117  0.96328866  1
  O  O428  1  0.76613987  0.74956862  0.20904196  1
  O  O429  1  0.76541123  0.75047494  0.46169368  1
  O  O430  1  0.76444966  0.74980352  0.71181673  1
  O  O431  1  0.76695054  0.75051554  0.96010989  1
  O  O432  1  0.01461509  0.08346972  0.16317406  1
  O  O433  1  0.01457061  0.08378313  0.41315094  1
  O  O434  1  0.01427659  0.08343692  0.66300881  1
  O  O435  1  0.01685609  0.08310441  0.91560307  1
  O  O436  1  0.01503360  0.41681081  0.16321886  1
  O  O437  1  0.01669090  0.41599395  0.41203802  1
  O  O438  1  0.01436785  0.41650359  0.66372649  1
  O  O439  1  0.01576786  0.41647768  0.91397091  1
  O  O440  1  0.01778612  0.74979140  0.16209044  1
  O  O441  1  0.01722594  0.75028285  0.41506313  1
  O  O442  1  0.01594299  0.75002396  0.66630533  1
  O  O443  1  0.01545573  0.75061856  0.91602755  1
  O  O444  1  0.51654940  0.08388790  0.16358551  1
  O  O445  1  0.51434463  0.08381582  0.41384792  1
  O  O446  1  0.51810143  0.08349187  0.66197563  1
  O  O447  1  0.51657432  0.08344520  0.91504873  1
  O  O448  1  0.51684131  0.41586492  0.16560999  1
  O  O449  1  0.51425952  0.41641558  0.41381077  1
  O  O450  1  0.51554671  0.41652114  0.66207308  1
  O  O451  1  0.51683828  0.41721308  0.91541186  1
  O  O452  1  0.51491873  0.75041141  0.16338202  1
  O  O453  1  0.51546577  0.74977748  0.41506724  1
  O  O454  1  0.51743139  0.75059855  0.66159770  1
  O  O455  1  0.51741269  0.74971018  0.91583494  1
  O  O456  1  0.48263144  0.25004809  0.08574687  1
  O  O457  1  0.48239857  0.24994462  0.33874534  1
  O  O458  1  0.48601919  0.24978525  0.58613688  1
  O  O459  1  0.48595996  0.25002085  0.83594003  1
  O  O460  1  0.48273222  0.58249555  0.08822461  1
  O  O461  1  0.48345444  0.58315481  0.33466226  1
  O  O462  1  0.48368117  0.58361800  0.58446744  1
  O  O463  1  0.48195896  0.58415041  0.83496498  1
  O  O464  1  0.48277057  0.91728447  0.08509731  1
  O  O465  1  0.48402251  0.91709001  0.33739538  1
  O  O466  1  0.48598749  0.91691148  0.58605589  1
  O  O467  1  0.48592747  0.91653509  0.83590626  1
  O  O468  1  0.98426719  0.25000848  0.08762543  1
  O  O469  1  0.98386620  0.25036687  0.33671021  1
  O  O470  1  0.98187690  0.25001087  0.58442240  1
  O  O471  1  0.98296261  0.24945699  0.83516336  1
  O  O472  1  0.98589383  0.58307479  0.08686365  1
  O  O473  1  0.98616337  0.58289210  0.33579655  1
  O  O474  1  0.98405319  0.58285823  0.58399313  1
  O  O475  1  0.98244053  0.58325218  0.83845333  1
  O  O476  1  0.98490250  0.91677023  0.08735868  1
  O  O477  1  0.98460705  0.91672458  0.33376564  1
  O  O478  1  0.98209978  0.91724306  0.58705093  1
  O  O479  1  0.98190978  0.91675851  0.83596314  1
  O  O480  1  0.08773671  0.31497234  0.07810624  1
  O  O481  1  0.08770004  0.31574513  0.32683531  1
  O  O482  1  0.08595159  0.31481853  0.57589341  1
  O  O483  1  0.08644253  0.31481891  0.82821797  1
  O  O484  1  0.08934159  0.64904553  0.07736584  1
  O  O485  1  0.09047731  0.64665746  0.32720093  1
  O  O486  1  0.08798584  0.64810824  0.57702954  1
  O  O487  1  0.08608496  0.64774851  0.82849198  1
  O  O488  1  0.08840505  0.98136891  0.07746307  1
  O  O489  1  0.08831961  0.98236175  0.32631595  1
  O  O490  1  0.08578436  0.98182047  0.57719457  1
  O  O491  1  0.08537136  0.98309802  0.82739266  1
  O  O492  1  0.58663796  0.31527604  0.07797337  1
  O  O493  1  0.58581275  0.31503281  0.32770140  1
  O  O494  1  0.58995373  0.31425778  0.57641791  1
  O  O495  1  0.58956856  0.31534278  0.82716887  1
  O  O496  1  0.58650948  0.64681546  0.07772455  1
  O  O497  1  0.58756954  0.64784965  0.32639494  1
  O  O498  1  0.58745527  0.64887608  0.57747990  1
  O  O499  1  0.58584777  0.64937584  0.82803190  1
  O  O500  1  0.58657107  0.98315601  0.07729779  1
  O  O501  1  0.58739247  0.98211916  0.32775928  1
  O  O502  1  0.58954714  0.98223167  0.57726372  1
  O  O503  1  0.59018791  0.98017737  0.82731410  1
  O  O504  1  0.41296360  0.01821200  0.17243254  1
  O  O505  1  0.41039700  0.01954174  0.42332716  1
  O  O506  1  0.41460929  0.01846407  0.67264587  1
  O  O507  1  0.41272072  0.01838125  0.92264225  1
  O  O508  1  0.41274782  0.35097407  0.17306623  1
  O  O509  1  0.41072463  0.35063596  0.42279412  1
  O  O510  1  0.41227994  0.35125870  0.67207880  1
  O  O511  1  0.41313222  0.35247494  0.92257057  1
  O  O512  1  0.41137978  0.68526595  0.17153415  1
  O  O513  1  0.41142375  0.68499393  0.42327715  1
  O  O514  1  0.41391602  0.68543024  0.67223119  1
  O  O515  1  0.41323672  0.68447484  0.92272265  1
  O  O516  1  0.91092411  0.01828862  0.17290504  1
  O  O517  1  0.91055978  0.01949663  0.42234902  1
  O  O518  1  0.91061935  0.01877264  0.67154320  1
  O  O519  1  0.91306944  0.01703840  0.92324932  1
  O  O520  1  0.91122229  0.35194169  0.17319522  1
  O  O521  1  0.91286397  0.35091380  0.42164054  1
  O  O522  1  0.91128125  0.34997793  0.67185644  1
  O  O523  1  0.91178820  0.35199920  0.92348862  1
  O  O524  1  0.91443379  0.68479742  0.17282247  1
  O  O525  1  0.91368202  0.68470352  0.42235144  1
  O  O526  1  0.91201049  0.68565388  0.67263709  1
  O  O527  1  0.91154010  0.68554282  0.92354873  1
  O  O528  1  0.16463254  0.01877915  0.20211335  1
  O  O529  1  0.16346621  0.01946570  0.45229653  1
  O  O530  1  0.16139414  0.01676931  0.70347392  1
  O  O531  1  0.16378634  0.01865874  0.95190097  1
  O  O532  1  0.16361150  0.35043684  0.20291466  1
  O  O533  1  0.16244128  0.35119321  0.45157261  1
  O  O534  1  0.16116875  0.35167732  0.70296653  1
  O  O535  1  0.16118216  0.35268962  0.95198418  1
  O  O536  1  0.16144745  0.68514990  0.20186216  1
  O  O537  1  0.16431920  0.68433152  0.45284583  1
  O  O538  1  0.16192066  0.68622691  0.70325407  1
  O  O539  1  0.16426983  0.68407043  0.95310390  1
  O  O540  1  0.66285788  0.01894030  0.20180147  1
  O  O541  1  0.66343122  0.01840310  0.45323216  1
  O  O542  1  0.66181441  0.01835206  0.70217770  1
  O  O543  1  0.66266941  0.01835938  0.95341894  1
  O  O544  1  0.66260666  0.35236145  0.20190437  1
  O  O545  1  0.66495867  0.35022299  0.45204634  1
  O  O546  1  0.66453769  0.35143409  0.70238557  1
  O  O547  1  0.66324108  0.35077817  0.95365878  1
  O  O548  1  0.66267826  0.68355057  0.20248197  1
  O  O549  1  0.66165002  0.68606406  0.45319200  1
  O  O550  1  0.66041004  0.68570551  0.70250472  1
  O  O551  1  0.66295189  0.68557346  0.95138733  1
  O  O552  1  0.33922796  0.31391430  0.04809780  1
  O  O553  1  0.33800725  0.31514528  0.29760312  1
  O  O554  1  0.33632972  0.31525968  0.54682035  1
  O  O555  1  0.33677557  0.31491102  0.79772420  1
  O  O556  1  0.33794652  0.64887656  0.04760226  1
  O  O557  1  0.33672292  0.64721999  0.29669753  1
  O  O558  1  0.33551798  0.64781405  0.54729759  1
  O  O559  1  0.33822328  0.64857611  0.79822820  1
  O  O560  1  0.33935019  0.98194753  0.04731932  1
  O  O561  1  0.33684448  0.98286635  0.29658035  1
  O  O562  1  0.33770527  0.98219686  0.54736062  1
  O  O563  1  0.33611439  0.98175084  0.79779209  1
  O  O564  1  0.83602939  0.31478656  0.04757854  1
  O  O565  1  0.83846014  0.31516974  0.29748635  1
  O  O566  1  0.83842471  0.31496489  0.54696153  1
  O  O567  1  0.83645945  0.31555114  0.79712842  1
  O  O568  1  0.83800192  0.64925429  0.04678660  1
  O  O569  1  0.83619186  0.64736985  0.29765179  1
  O  O570  1  0.83746510  0.64774177  0.54757224  1
  O  O571  1  0.83884473  0.64716098  0.79860415  1
  O  O572  1  0.83675020  0.98142655  0.04661397  1
  O  O573  1  0.83703456  0.98247878  0.29668085  1
  O  O574  1  0.83690041  0.98250653  0.54807154  1
  O  O575  1  0.83703690  0.98171645  0.79821408  1
  O  O576  1  0.41251062  0.14834816  0.17240462  1
  O  O577  1  0.41085542  0.14954498  0.42296253  1
  O  O578  1  0.41455869  0.14852055  0.67259269  1
  O  O579  1  0.41263511  0.14829638  0.92286810  1
  O  O580  1  0.41266141  0.48098699  0.17349448  1
  O  O581  1  0.41015943  0.48062967  0.42295341  1
  O  O582  1  0.41183395  0.48141076  0.67161795  1
  O  O583  1  0.41316999  0.48259570  0.92202326  1
  O  O584  1  0.41161085  0.81577500  0.17126549  1
  O  O585  1  0.41173211  0.81497010  0.42353004  1
  O  O586  1  0.41414826  0.81549677  0.67261400  1
  O  O587  1  0.41326035  0.81441183  0.92319368  1
  O  O588  1  0.91080300  0.14818478  0.17296905  1
  O  O589  1  0.91110961  0.14958500  0.42153038  1
  O  O590  1  0.91114840  0.14903890  0.67132315  1
  O  O591  1  0.91228350  0.14696887  0.92383544  1
  O  O592  1  0.91146059  0.48180672  0.17313541  1
  O  O593  1  0.91302633  0.48088025  0.42238449  1
  O  O594  1  0.91015600  0.48007924  0.67247167  1
  O  O595  1  0.91206768  0.48196938  0.92306368  1
  O  O596  1  0.91419210  0.81484089  0.17279020  1
  O  O597  1  0.91319105  0.81483073  0.42202718  1
  O  O598  1  0.91232403  0.81581127  0.67254302  1
  O  O599  1  0.91149512  0.81567534  0.92325377  1
  O  O600  1  0.08772829  0.18493181  0.07787707  1
  O  O601  1  0.08779948  0.18581848  0.32645558  1
  O  O602  1  0.08578722  0.18492735  0.57554813  1
  O  O603  1  0.08660518  0.18439327  0.82852017  1
  O  O604  1  0.08988702  0.51900118  0.07696662  1
  O  O605  1  0.08930615  0.51650260  0.32742886  1
  O  O606  1  0.08803777  0.51820833  0.57692809  1
  O  O607  1  0.08558900  0.51747223  0.82859349  1
  O  O608  1  0.08826333  0.85120482  0.07782475  1
  O  O609  1  0.08907054  0.85238872  0.32689750  1
  O  O610  1  0.08566593  0.85184336  0.57748384  1
  O  O611  1  0.08649584  0.85304716  0.82713412  1
  O  O612  1  0.58675394  0.18524752  0.07755304  1
  O  O613  1  0.58587685  0.18507849  0.32770806  1
  O  O614  1  0.58962065  0.18422501  0.57711126  1
  O  O615  1  0.58982664  0.18535855  0.82739999  1
  O  O616  1  0.58604990  0.51668394  0.07831907  1
  O  O617  1  0.58736676  0.51789006  0.32645511  1
  O  O618  1  0.58729654  0.51863302  0.57675583  1
  O  O619  1  0.58583487  0.51936102  0.82696699  1
  O  O620  1  0.58717811  0.85320375  0.07680519  1
  O  O621  1  0.58735518  0.85192849  0.32792270  1
  O  O622  1  0.58987360  0.85211374  0.57772558  1
  O  O623  1  0.58905578  0.85005984  0.82838740  1
  O  O624  1  0.33831667  0.18388219  0.04754147  1
  O  O625  1  0.33871692  0.18507075  0.29720492  1
  O  O626  1  0.33616858  0.18499462  0.54727816  1
  O  O627  1  0.33753047  0.18490060  0.79724398  1
  O  O628  1  0.33845778  0.51879522  0.04790558  1
  O  O629  1  0.33614416  0.51714656  0.29683679  1
  O  O630  1  0.33544262  0.51743234  0.54699877  1
  O  O631  1  0.33772755  0.51865572  0.79866223  1
  O  O632  1  0.33901439  0.85185518  0.04763194  1
  O  O633  1  0.33726593  0.85274977  0.29671821  1
  O  O634  1  0.33745653  0.85176211  0.54736755  1
  O  O635  1  0.33605999  0.85178417  0.79780624  1
  O  O636  1  0.83598492  0.18471273  0.04736499  1
  O  O637  1  0.83837607  0.18504475  0.29748558  1
  O  O638  1  0.83822563  0.18490080  0.54711382  1
  O  O639  1  0.83655451  0.18551186  0.79760899  1
  O  O640  1  0.83862634  0.51883477  0.04670740  1
  O  O641  1  0.83616825  0.51727209  0.29691543  1
  O  O642  1  0.83798949  0.51747820  0.54646617  1
  O  O643  1  0.83837662  0.51706899  0.79780238  1
  O  O644  1  0.83666158  0.85126521  0.04670847  1
  O  O645  1  0.83702092  0.85219389  0.29737232  1
  O  O646  1  0.83701286  0.85249327  0.54884885  1
  O  O647  1  0.83675352  0.85184296  0.79828033  1
  O  O648  1  0.16409467  0.14890319  0.20244473  1
  O  O649  1  0.16429916  0.14954670  0.45203081  1
  O  O650  1  0.16032707  0.14696232  0.70294865  1
  O  O651  1  0.16428669  0.14850098  0.95180131  1
  O  O652  1  0.16324728  0.48059626  0.20286828  1
  O  O653  1  0.16240511  0.48118657  0.45205312  1
  O  O654  1  0.16111228  0.48183734  0.70346778  1
  O  O655  1  0.16209534  0.48269247  0.95254166  1
  O  O656  1  0.16197394  0.81536931  0.20170102  1
  O  O657  1  0.16424827  0.81453595  0.45247899  1
  O  O658  1  0.16267626  0.81646039  0.70332618  1
  O  O659  1  0.16357825  0.81412684  0.95296015  1
  O  O660  1  0.66297220  0.14882943  0.20215573  1
  O  O661  1  0.66342157  0.14858786  0.45299565  1
  O  O662  1  0.66178703  0.14845267  0.70221582  1
  O  O663  1  0.66271859  0.14856449  0.95363686  1
  O  O664  1  0.66334377  0.48231982  0.20182557  1
  O  O665  1  0.66429626  0.48019269  0.45203929  1
  O  O666  1  0.66466998  0.48149170  0.70202710  1
  O  O667  1  0.66328268  0.48100896  0.95276369  1
  O  O668  1  0.66201231  0.81377215  0.20217665  1
  O  O669  1  0.66216864  0.81637418  0.45384331  1
  O  O670  1  0.66116086  0.81588141  0.70348001  1
  O  O671  1  0.66276661  0.81556412  0.95215541  1
