# generated using pymatgen
data_Na2MnFe(PO4)2
_symmetry_space_group_name_H-M   'P 1'
_cell_length_a   21.08523832
_cell_length_b   18.93734747
_cell_length_c   20.04401800
_cell_angle_alpha   89.99963544
_cell_angle_beta   90.00074180
_cell_angle_gamma   89.99865002
_symmetry_Int_Tables_number   1
_chemical_formula_structural   Na2MnFe(PO4)2
_chemical_formula_sum   'Na96 Mn48 Fe48 P96 O384'
_cell_volume   8003.54600944
_cell_formula_units_Z   48
loop_
 _symmetry_equiv_pos_site_id
 _symmetry_equiv_pos_as_xyz
  1  'x, y, z'
loop_
 _atom_site_type_symbol
 _atom_site_label
 _atom_site_symmetry_multiplicity
 _atom_site_fract_x
 _atom_site_fract_y
 _atom_site_fract_z
 _atom_site_occupancy
  Na  Na0  1  -0.00078026  -0.00016799  -0.00000280  1
  Na  Na1  1  0.00123862  0.00009331  0.25011870  1
  Na  Na2  1  0.00128800  0.00028743  0.49987502  1
  Na  Na3  1  -0.00025565  0.00016197  0.74998919  1
  Na  Na4  1  0.00297160  0.33466643  -0.00094355  1
  Na  Na5  1  0.00087148  0.33330544  0.25073115  1
  Na  Na6  1  0.00087865  0.33304886  0.50019965  1
  Na  Na7  1  0.00108619  0.33360457  0.74952598  1
  Na  Na8  1  -0.00134088  0.66638819  0.00048210  1
  Na  Na9  1  0.00198274  0.66718498  0.24999440  1
  Na  Na10  1  0.00151014  0.66667628  0.49967233  1
  Na  Na11  1  -0.00033258  0.66717828  0.74962327  1
  Na  Na12  1  0.49768522  -0.00068262  -0.00057046  1
  Na  Na13  1  0.49776391  -0.00047301  0.25022176  1
  Na  Na14  1  0.49906872  -0.00037734  0.50020847  1
  Na  Na15  1  0.50109455  0.00084789  0.74963736  1
  Na  Na16  1  0.49954808  0.33294161  0.00024183  1
  Na  Na17  1  0.49860623  0.33231099  0.25086024  1
  Na  Na18  1  0.50173010  0.33380493  0.49918440  1
  Na  Na19  1  0.49942147  0.33256853  0.75016990  1
  Na  Na20  1  0.49880019  0.66553779  -0.00002816  1
  Na  Na21  1  0.50139783  0.66750864  0.25048291  1
  Na  Na22  1  0.50061669  0.66684445  0.50056759  1
  Na  Na23  1  0.50023964  0.66675643  0.74924386  1
  Na  Na24  1  0.24915002  -0.00056952  0.12536157  1
  Na  Na25  1  0.24926405  -0.00055394  0.37505088  1
  Na  Na26  1  0.24849829  -0.00044198  0.62426130  1
  Na  Na27  1  0.25066132  0.00067311  0.87483433  1
  Na  Na28  1  0.25088789  0.33367396  0.12382377  1
  Na  Na29  1  0.25116114  0.33390171  0.37545551  1
  Na  Na30  1  0.24810105  0.33258470  0.62514931  1
  Na  Na31  1  0.24818916  0.33268532  0.87558071  1
  Na  Na32  1  0.24790735  0.66607014  0.12347001  1
  Na  Na33  1  0.24959331  0.66647563  0.37579366  1
  Na  Na34  1  0.25108541  0.66718814  0.62631412  1
  Na  Na35  1  0.25069985  0.66743170  0.87505056  1
  Na  Na36  1  0.75229714  0.00079441  0.12556391  1
  Na  Na37  1  0.75050251  0.00066813  0.37444893  1
  Na  Na38  1  0.74981258  -0.00005962  0.62495607  1
  Na  Na39  1  0.75157124  0.00018493  0.87507367  1
  Na  Na40  1  0.74683567  0.33209786  0.12465622  1
  Na  Na41  1  0.74791758  0.33254653  0.37509859  1
  Na  Na42  1  0.75132968  0.33370253  0.62542669  1
  Na  Na43  1  0.75046307  0.33311523  0.87506274  1
  Na  Na44  1  0.75114773  0.66668398  0.12542778  1
  Na  Na45  1  0.74630945  0.66582507  0.37437895  1
  Na  Na46  1  0.74821931  0.66624572  0.62440267  1
  Na  Na47  1  0.75317899  0.66741433  0.87564443  1
  Na  Na48  1  -0.00014398  0.16643660  -0.00069173  1
  Na  Na49  1  0.00135035  0.16568466  0.25002591  1
  Na  Na50  1  -0.00092385  0.16715018  0.50064900  1
  Na  Na51  1  -0.00022308  0.16633051  0.74935347  1
  Na  Na52  1  -0.00053666  0.50045201  0.00025366  1
  Na  Na53  1  0.00102620  0.50023103  0.25094300  1
  Na  Na54  1  0.00287168  0.49931735  0.49960482  1
  Na  Na55  1  0.00032524  0.49991125  0.74923495  1
  Na  Na56  1  0.00139839  0.83272168  -0.00021639  1
  Na  Na57  1  0.00146097  0.83356556  0.24992121  1
  Na  Na58  1  0.00248524  0.83268120  0.49974361  1
  Na  Na59  1  0.00022699  0.83300351  0.75051952  1
  Na  Na60  1  0.49770652  0.16776411  0.00074383  1
  Na  Na61  1  0.49861645  0.16703741  0.24986550  1
  Na  Na62  1  0.50013671  0.16682051  0.49976052  1
  Na  Na63  1  0.50060987  0.16633461  0.74987467  1
  Na  Na64  1  0.50092343  0.49979024  0.00037534  1
  Na  Na65  1  0.50126039  0.49967788  0.25079233  1
  Na  Na66  1  0.49988756  0.50071689  0.49970415  1
  Na  Na67  1  0.49951364  0.50099030  0.74962401  1
  Na  Na68  1  0.49870142  0.83294834  -0.00100973  1
  Na  Na69  1  0.49756142  0.83412540  0.25072519  1
  Na  Na70  1  0.50156861  0.83227754  0.50061569  1
  Na  Na71  1  0.50021700  0.83285344  0.74943756  1
  Na  Na72  1  0.25130463  0.16667517  0.12486807  1
  Na  Na73  1  0.25158528  0.16622369  0.37460419  1
  Na  Na74  1  0.24811362  0.16785801  0.62447721  1
  Na  Na75  1  0.25081268  0.16625381  0.87580522  1
  Na  Na76  1  0.24888347  0.50046869  0.12331914  1
  Na  Na77  1  0.24897555  0.50024611  0.37650201  1
  Na  Na78  1  0.24899150  0.50044250  0.62633182  1
  Na  Na79  1  0.25077574  0.49944384  0.87451964  1
  Na  Na80  1  0.24794176  0.83390080  0.12468139  1
  Na  Na81  1  0.25001783  0.83312058  0.37524005  1
  Na  Na82  1  0.25014928  0.83287349  0.62495245  1
  Na  Na83  1  0.24756793  0.83374721  0.87515921  1
  Na  Na84  1  0.74844174  0.16721561  0.12522374  1
  Na  Na85  1  0.74858428  0.16694574  0.37552942  1
  Na  Na86  1  0.75113796  0.16624041  0.62539046  1
  Na  Na87  1  0.75218934  0.16592476  0.87389079  1
  Na  Na88  1  0.74960159  0.50043262  0.12402327  1
  Na  Na89  1  0.74807328  0.50052472  0.37398743  1
  Na  Na90  1  0.74953692  0.50086270  0.62502542  1
  Na  Na91  1  0.75144556  0.50009578  0.87674305  1
  Na  Na92  1  0.75208167  0.83273416  0.12648997  1
  Na  Na93  1  0.74783913  0.83396868  0.37444450  1
  Na  Na94  1  0.74849913  0.83321732  0.62433659  1
  Na  Na95  1  0.75234429  0.83243903  0.87490664  1
  Mn  Mn96  1  0.35680344  0.74899248  0.25185454  1
  Mn  Mn97  1  0.60750945  0.75043350  0.12214534  1
  Mn  Mn98  1  0.35776091  0.41653993  0.00222179  1
  Mn  Mn99  1  0.60767630  0.08324418  0.87374923  1
  Mn  Mn100  1  0.89269540  0.91651732  0.37745278  1
  Mn  Mn101  1  0.64336524  0.58376805  0.99779981  1
  Mn  Mn102  1  0.39195273  0.58366632  0.37721763  1
  Mn  Mn103  1  0.89243949  0.91642128  0.62612005  1
  Mn  Mn104  1  0.14220818  0.58322524  0.74786226  1
  Mn  Mn105  1  0.60857575  0.41667156  0.62319931  1
  Mn  Mn106  1  0.60682167  0.08303937  0.12212028  1
  Mn  Mn107  1  0.10785324  0.08353350  0.87257752  1
  Mn  Mn108  1  0.14127334  0.58390824  0.99680398  1
  Mn  Mn109  1  0.14271012  0.24935784  0.99807741  1
  Mn  Mn110  1  0.35765194  0.08339919  0.75125650  1
  Mn  Mn111  1  0.60855961  0.74973512  0.87311590  1
  Mn  Mn112  1  0.89221329  0.58330203  0.62654485  1
  Mn  Mn113  1  0.39165000  0.91660504  0.87717979  1
  Mn  Mn114  1  0.64122941  0.91691825  0.24704488  1
  Mn  Mn115  1  0.85795144  0.08412752  0.25198514  1
  Mn  Mn116  1  0.35723933  0.41648912  0.75231870  1
  Mn  Mn117  1  0.39273051  0.91644278  0.62703509  1
  Mn  Mn118  1  0.89222453  0.91604671  0.87756466  1
  Mn  Mn119  1  0.10879072  0.41643528  0.37234791  1
  Mn  Mn120  1  0.64272984  0.91694573  0.99857935  1
  Mn  Mn121  1  0.89269848  0.25069974  0.87728181  1
  Mn  Mn122  1  0.85743621  0.41668825  0.50197294  1
  Mn  Mn123  1  0.10928808  0.75001270  0.37282306  1
  Mn  Mn124  1  0.85787560  0.74965627  0.25271313  1
  Mn  Mn125  1  0.14180854  0.91717689  0.74730778  1
  Mn  Mn126  1  0.39197708  0.58305707  0.12792323  1
  Mn  Mn127  1  0.60735829  0.41684858  0.37240484  1
  Mn  Mn128  1  0.14305136  0.25032450  0.24717777  1
  Mn  Mn129  1  0.85715501  0.41619694  0.25145983  1
  Mn  Mn130  1  0.39228481  0.25034674  0.62695907  1
  Mn  Mn131  1  0.85673858  0.75032047  0.50177977  1
  Mn  Mn132  1  0.89156004  0.25012283  0.37711485  1
  Mn  Mn133  1  0.64282508  0.91603326  0.74804512  1
  Mn  Mn134  1  0.35711276  0.08354870  0.25235605  1
  Mn  Mn135  1  0.89225024  0.25039409  0.12732075  1
  Mn  Mn136  1  0.85824846  0.41590948  0.00307656  1
  Mn  Mn137  1  0.35739355  0.41682309  0.50315748  1
  Mn  Mn138  1  0.64298475  0.25050753  0.74785363  1
  Mn  Mn139  1  0.10816362  0.08344005  0.37329445  1
  Mn  Mn140  1  0.60796053  0.41694984  0.87249450  1
  Mn  Mn141  1  0.89230691  0.58341053  0.37717482  1
  Mn  Mn142  1  0.35683363  0.75081036  0.00194769  1
  Mn  Mn143  1  0.60688731  0.08259731  0.37315875  1
  Fe  Fe144  1  0.14252122  0.24971693  0.49803289  1
  Fe  Fe145  1  0.14344890  0.91663342  0.49850306  1
  Fe  Fe146  1  0.10745237  0.08344611  0.12266813  1
  Fe  Fe147  1  0.60616758  0.75065067  0.37356822  1
  Fe  Fe148  1  0.64338965  0.58340915  0.74900120  1
  Fe  Fe149  1  0.35713822  0.08269744  0.00181310  1
  Fe  Fe150  1  0.10682634  0.75001839  0.12304512  1
  Fe  Fe151  1  0.14217689  0.91720030  0.99874064  1
  Fe  Fe152  1  0.39304578  0.25043232  0.12710639  1
  Fe  Fe153  1  0.64112221  0.25019106  0.24821059  1
  Fe  Fe154  1  0.85687450  0.08316757  0.50175587  1
  Fe  Fe155  1  0.85872122  0.75086278  0.00271087  1
  Fe  Fe156  1  0.14216823  0.24958616  0.74824838  1
  Fe  Fe157  1  0.39267493  0.24964440  0.37742405  1
  Fe  Fe158  1  0.14342822  0.58374393  0.49923882  1
  Fe  Fe159  1  0.14294230  0.91623761  0.24755525  1
  Fe  Fe160  1  0.85790227  0.74957836  0.75068585  1
  Fe  Fe161  1  0.10704030  0.41662969  0.62339923  1
  Fe  Fe162  1  0.10699928  0.08341392  0.62262592  1
  Fe  Fe163  1  0.10811053  0.74995638  0.62350762  1
  Fe  Fe164  1  0.14256000  0.58314928  0.24791163  1
  Fe  Fe165  1  0.35733335  0.41746302  0.25110863  1
  Fe  Fe166  1  0.85773317  0.08320647  0.00215087  1
  Fe  Fe167  1  0.35679200  0.08317830  0.50207041  1
  Fe  Fe168  1  0.35749730  0.75017312  0.75182876  1
  Fe  Fe169  1  0.39204470  0.25052638  0.87657612  1
  Fe  Fe170  1  0.89409248  0.91649452  0.12667053  1
  Fe  Fe171  1  0.64162204  0.58320581  0.49819533  1
  Fe  Fe172  1  0.39311556  0.58286427  0.87622958  1
  Fe  Fe173  1  0.35757520  0.75001818  0.50219730  1
  Fe  Fe174  1  0.89276689  0.58318491  0.87586396  1
  Fe  Fe175  1  0.39302801  0.58330818  0.62684278  1
  Fe  Fe176  1  0.60670487  0.41647940  0.12373010  1
  Fe  Fe177  1  0.85848812  0.41738696  0.75146691  1
  Fe  Fe178  1  0.10715450  0.41729649  0.87284574  1
  Fe  Fe179  1  0.10628917  0.74926399  0.87285631  1
  Fe  Fe180  1  0.39163736  0.91667534  0.37750606  1
  Fe  Fe181  1  0.64316482  0.24972426  0.49897469  1
  Fe  Fe182  1  0.64214549  0.24935130  0.99816470  1
  Fe  Fe183  1  0.60848039  0.08320751  0.62272884  1
  Fe  Fe184  1  0.64215335  0.91717677  0.49787031  1
  Fe  Fe185  1  0.89375160  0.58326586  0.12748842  1
  Fe  Fe186  1  0.39112089  0.91657316  0.12653398  1
  Fe  Fe187  1  0.10797934  0.41664382  0.12382570  1
  Fe  Fe188  1  0.89325446  0.25009412  0.62624665  1
  Fe  Fe189  1  0.85776097  0.08303761  0.75101079  1
  Fe  Fe190  1  0.60744043  0.75012851  0.62333225  1
  Fe  Fe191  1  0.64233187  0.58284177  0.24728195  1
  P  P192  1  0.05360225  0.24996715  0.10990738  1
  P  P193  1  0.05456752  0.24956533  0.36079304  1
  P  P194  1  0.05420305  0.24969667  0.61079142  1
  P  P195  1  0.05424604  0.25042159  0.85918156  1
  P  P196  1  0.05394317  0.58321974  0.11122866  1
  P  P197  1  0.05585689  0.58356455  0.36046329  1
  P  P198  1  0.05414125  0.58361063  0.60959899  1
  P  P199  1  0.05195677  0.58373150  0.85975687  1
  P  P200  1  0.05450636  0.91680643  0.11061565  1
  P  P201  1  0.05596984  0.91671410  0.36036123  1
  P  P202  1  0.05436725  0.91665264  0.60941291  1
  P  P203  1  0.05445454  0.91606233  0.86125816  1
  P  P204  1  0.55361170  0.25074910  0.11072255  1
  P  P205  1  0.55363308  0.24947906  0.36084942  1
  P  P206  1  0.55441662  0.24944604  0.60944630  1
  P  P207  1  0.55311717  0.24969016  0.86108367  1
  P  P208  1  0.55434753  0.58253070  0.11095663  1
  P  P209  1  0.55488896  0.58445246  0.36064084  1
  P  P210  1  0.55427152  0.58399528  0.61101744  1
  P  P211  1  0.55330249  0.58349729  0.85929711  1
  P  P212  1  0.55071732  0.91666716  0.10951294  1
  P  P213  1  0.55238685  0.91620996  0.36129006  1
  P  P214  1  0.55463314  0.91665729  0.60972724  1
  P  P215  1  0.55315569  0.91659759  0.85988987  1
  P  P216  1  0.44456157  0.08317729  0.13881205  1
  P  P217  1  0.44496108  0.08325626  0.39066680  1
  P  P218  1  0.44729404  0.08347108  0.63858009  1
  P  P219  1  0.44538424  0.08433101  0.89043672  1
  P  P220  1  0.44707810  0.41612494  0.14079623  1
  P  P221  1  0.44495023  0.41633310  0.38899760  1
  P  P222  1  0.44697385  0.41727436  0.63998594  1
  P  P223  1  0.44650217  0.41692127  0.88978402  1
  P  P224  1  0.44607296  0.75052157  0.14009737  1
  P  P225  1  0.44621182  0.75044315  0.39084756  1
  P  P226  1  0.44594774  0.74926993  0.63921741  1
  P  P227  1  0.44550623  0.74880102  0.88862770  1
  P  P228  1  0.94710053  0.08276299  0.13887371  1
  P  P229  1  0.94604662  0.08338200  0.39102472  1
  P  P230  1  0.94598059  0.08363791  0.63872350  1
  P  P231  1  0.94493271  0.08326139  0.88939217  1
  P  P232  1  0.94850565  0.41712255  0.14030651  1
  P  P233  1  0.94696867  0.41668844  0.39016022  1
  P  P234  1  0.94735217  0.41607516  0.63968488  1
  P  P235  1  0.94678627  0.41759052  0.88866582  1
  P  P236  1  0.94698170  0.75033096  0.13916744  1
  P  P237  1  0.94742818  0.74995181  0.39029318  1
  P  P238  1  0.94776255  0.75019137  0.63970263  1
  P  P239  1  0.94567646  0.74905949  0.88923728  1
  P  P240  1  0.19592614  0.08275621  0.23441865  1
  P  P241  1  0.19643192  0.08344458  0.48616953  1
  P  P242  1  0.19585577  0.08432033  0.73397471  1
  P  P243  1  0.19655570  0.08254453  0.98625286  1
  P  P244  1  0.19793006  0.41735577  0.23411349  1
  P  P245  1  0.19498427  0.41669109  0.48704129  1
  P  P246  1  0.19442456  0.41585918  0.73578538  1
  P  P247  1  0.19458742  0.41683737  0.98504055  1
  P  P248  1  0.19585834  0.74969972  0.23410292  1
  P  P249  1  0.19702554  0.74987895  0.48691519  1
  P  P250  1  0.19604213  0.74974828  0.73571168  1
  P  P251  1  0.19372203  0.75110800  0.98523062  1
  P  P252  1  0.69570062  0.08399171  0.23491731  1
  P  P253  1  0.69634311  0.08344110  0.48622675  1
  P  P254  1  0.69744367  0.08330862  0.73482318  1
  P  P255  1  0.69810866  0.08369196  0.98516503  1
  P  P256  1  0.69526727  0.41655933  0.23405750  1
  P  P257  1  0.69614618  0.41636978  0.48509923  1
  P  P258  1  0.69875602  0.41793577  0.73567189  1
  P  P259  1  0.69542548  0.41571014  0.98630145  1
  P  P260  1  0.69480498  0.74944324  0.23601728  1
  P  P261  1  0.69377790  0.75024632  0.48538900  1
  P  P262  1  0.69770687  0.74867189  0.73483872  1
  P  P263  1  0.69905556  0.75044654  0.98541844  1
  P  P264  1  0.30553130  0.24924671  0.01444642  1
  P  P265  1  0.30546462  0.25148629  0.26438029  1
  P  P266  1  0.30312599  0.24926283  0.51403260  1
  P  P267  1  0.30219410  0.24995855  0.76542838  1
  P  P268  1  0.30412144  0.58345401  0.01353993  1
  P  P269  1  0.30146182  0.58246034  0.26495563  1
  P  P270  1  0.30312755  0.58411331  0.51622927  1
  P  P271  1  0.30519341  0.58414592  0.76449650  1
  P  P272  1  0.30209985  0.91721541  0.01537689  1
  P  P273  1  0.30345533  0.91624617  0.26458829  1
  P  P274  1  0.30373389  0.91669633  0.51398342  1
  P  P275  1  0.30316444  0.91598117  0.76457810  1
  P  P276  1  0.80226303  0.24911715  0.01507896  1
  P  P277  1  0.80117907  0.25026715  0.26494760  1
  P  P278  1  0.80302624  0.24931160  0.51556481  1
  P  P279  1  0.80565730  0.25035699  0.76341225  1
  P  P280  1  0.80658904  0.58415474  0.01477165  1
  P  P281  1  0.80334132  0.58287394  0.26378428  1
  P  P282  1  0.80128991  0.58363135  0.51440600  1
  P  P283  1  0.80344434  0.58350359  0.76518804  1
  P  P284  1  0.80468588  0.91663436  0.01614009  1
  P  P285  1  0.80463237  0.91678853  0.26411581  1
  P  P286  1  0.80165818  0.91715551  0.51444792  1
  P  P287  1  0.80409444  0.91621285  0.76432667  1
  O  O288  1  0.05642333  0.24966885  0.18669982  1
  O  O289  1  0.05902446  0.24951449  0.43757495  1
  O  O290  1  0.05823781  0.24942467  0.68748272  1
  O  O291  1  0.05743039  0.24930993  0.93595062  1
  O  O292  1  0.05855727  0.58313039  0.18792674  1
  O  O293  1  0.06045588  0.58370509  0.43717749  1
  O  O294  1  0.05668901  0.58388924  0.68640245  1
  O  O295  1  0.05500072  0.58369585  0.93647806  1
  O  O296  1  0.05873859  0.91692401  0.18736307  1
  O  O297  1  0.06064253  0.91656297  0.43712906  1
  O  O298  1  0.05648378  0.91670704  0.68626213  1
  O  O299  1  0.05819988  0.91719054  0.93798934  1
  O  O300  1  0.55784753  0.24981186  0.18748736  1
  O  O301  1  0.55911469  0.24962295  0.43743823  1
  O  O302  1  0.55747065  0.24985895  0.68630266  1
  O  O303  1  0.55811079  0.24949952  0.93776824  1
  O  O304  1  0.55835649  0.58337535  0.18775105  1
  O  O305  1  0.55858577  0.58322282  0.43748341  1
  O  O306  1  0.55921118  0.58326559  0.68764870  1
  O  O307  1  0.55754199  0.58355325  0.93601678  1
  O  O308  1  0.55466478  0.91682633  0.18625948  1
  O  O309  1  0.55778392  0.91714683  0.43789151  1
  O  O310  1  0.55749775  0.91686520  0.68653799  1
  O  O311  1  0.55651946  0.91641401  0.93664298  1
  O  O312  1  0.44089849  0.08278234  0.06206516  1
  O  O313  1  0.44220066  0.08313689  0.31384413  1
  O  O314  1  0.44152143  0.08352884  0.56200531  1
  O  O315  1  0.44293967  0.08362861  0.81358158  1
  O  O316  1  0.44346777  0.41701670  0.06406893  1
  O  O317  1  0.44097840  0.41726406  0.31230597  1
  O  O318  1  0.44390823  0.41672237  0.56318706  1
  O  O319  1  0.44353194  0.41660783  0.81302415  1
  O  O320  1  0.44278700  0.74967740  0.06332082  1
  O  O321  1  0.44229024  0.74974517  0.31415203  1
  O  O322  1  0.44104065  0.74987557  0.56251943  1
  O  O323  1  0.44169675  0.74989435  0.81185169  1
  O  O324  1  0.94201851  0.08360709  0.06219343  1
  O  O325  1  0.94311844  0.08337080  0.31417330  1
  O  O326  1  0.94085136  0.08289710  0.56206222  1
  O  O327  1  0.94070120  0.08305647  0.81258849  1
  O  O328  1  0.94471851  0.41633153  0.06355179  1
  O  O329  1  0.94312312  0.41670874  0.31342023  1
  O  O330  1  0.94361130  0.41667313  0.56300176  1
  O  O331  1  0.94201949  0.41691873  0.81198577  1
  O  O332  1  0.94284137  0.75051473  0.06242177  1
  O  O333  1  0.94394826  0.75001106  0.31349908  1
  O  O334  1  0.94339034  0.75016557  0.56306811  1
  O  O335  1  0.94108327  0.74998387  0.81251272  1
  O  O336  1  0.19174153  0.08336260  0.06290426  1
  O  O337  1  0.19345225  0.08361736  0.31121996  1
  O  O338  1  0.19162425  0.08372900  0.56281419  1
  O  O339  1  0.19328523  0.08352307  0.81080212  1
  O  O340  1  0.19030990  0.41706663  0.06181598  1
  O  O341  1  0.19464881  0.41656969  0.31090384  1
  O  O342  1  0.19086482  0.41640792  0.56381204  1
  O  O343  1  0.19051717  0.41706612  0.81259267  1
  O  O344  1  0.18953968  0.74984771  0.06201389  1
  O  O345  1  0.19430860  0.74980865  0.31097480  1
  O  O346  1  0.19250282  0.74996265  0.56358600  1
  O  O347  1  0.19080660  0.74942127  0.81234837  1
  O  O348  1  0.69370774  0.08318081  0.06182891  1
  O  O349  1  0.69231894  0.08307760  0.31170086  1
  O  O350  1  0.69220724  0.08311301  0.56293571  1
  O  O351  1  0.69352739  0.08337446  0.81150953  1
  O  O352  1  0.69074434  0.41631874  0.06295518  1
  O  O353  1  0.69267777  0.41650384  0.31091539  1
  O  O354  1  0.69406971  0.41669030  0.56189655  1
  O  O355  1  0.69491012  0.41714479  0.81236605  1
  O  O356  1  0.69448631  0.75026618  0.06208290  1
  O  O357  1  0.69008804  0.75059801  0.31272705  1
  O  O358  1  0.69035325  0.75008998  0.56225738  1
  O  O359  1  0.69454866  0.74949324  0.81157873  1
  O  O360  1  0.30931155  0.25076906  0.18756465  1
  O  O361  1  0.30814637  0.24985386  0.43738070  1
  O  O362  1  0.30621618  0.25039859  0.68868478  1
  O  O363  1  0.30907800  0.25039761  0.93764874  1
  O  O364  1  0.30517199  0.58313206  0.18823855  1
  O  O365  1  0.30652188  0.58355476  0.43947604  1
  O  O366  1  0.30929282  0.58327700  0.68775340  1
  O  O367  1  0.30883532  0.58307618  0.93686020  1
  O  O368  1  0.30803275  0.91634102  0.18788321  1
  O  O369  1  0.30786994  0.91648917  0.43723194  1
  O  O370  1  0.30652848  0.91631239  0.68780899  1
  O  O371  1  0.30581394  0.91653454  0.93865549  1
  O  O372  1  0.80573168  0.25025247  0.18829745  1
  O  O373  1  0.80594749  0.24986853  0.43879982  1
  O  O374  1  0.80971350  0.25052731  0.68667645  1
  O  O375  1  0.80660864  0.25009778  0.93839398  1
  O  O376  1  0.80931127  0.58312944  0.18714844  1
  O  O377  1  0.80528603  0.58366521  0.43774060  1
  O  O378  1  0.80644462  0.58339708  0.68841650  1
  O  O379  1  0.81053254  0.58323723  0.93796567  1
  O  O380  1  0.81015884  0.91657239  0.18744974  1
  O  O381  1  0.80556424  0.91663338  0.43778098  1
  O  O382  1  0.80655935  0.91616928  0.68758438  1
  O  O383  1  0.80706289  0.91624352  0.93928430  1
  O  O384  1  0.23548225  0.24997104  0.03869016  1
  O  O385  1  0.23543753  0.25019099  0.28863665  1
  O  O386  1  0.23272926  0.24991003  0.53757242  1
  O  O387  1  0.23208053  0.24966394  0.78969853  1
  O  O388  1  0.23387005  0.58359780  0.03696013  1
  O  O389  1  0.23157475  0.58310260  0.28986026  1
  O  O390  1  0.23306293  0.58369475  0.54083101  1
  O  O391  1  0.23505261  0.58337367  0.78857096  1
  O  O392  1  0.23201317  0.91669423  0.03975143  1
  O  O393  1  0.23301913  0.91618015  0.28800151  1
  O  O394  1  0.23349458  0.91659201  0.53816488  1
  O  O395  1  0.23347867  0.91671869  0.78958875  1
  O  O396  1  0.73209345  0.24931777  0.03915915  1
  O  O397  1  0.73101276  0.25013769  0.28901013  1
  O  O398  1  0.73306973  0.24978960  0.54052229  1
  O  O399  1  0.73568553  0.24999219  0.78801406  1
  O  O400  1  0.73638508  0.58372582  0.03855958  1
  O  O401  1  0.73274915  0.58284886  0.28647697  1
  O  O402  1  0.73115192  0.58353872  0.53866725  1
  O  O403  1  0.73363321  0.58364643  0.79070476  1
  O  O404  1  0.73514141  0.91666030  0.04191457  1
  O  O405  1  0.73431886  0.91710151  0.28728802  1
  O  O406  1  0.73162492  0.91686884  0.53896970  1
  O  O407  1  0.73462546  0.91620672  0.79029962  1
  O  O408  1  0.26567814  0.08322973  0.20942727  1
  O  O409  1  0.26661795  0.08299475  0.46194359  1
  O  O410  1  0.26548281  0.08366667  0.70857722  1
  O  O411  1  0.26679122  0.08299244  0.96233602  1
  O  O412  1  0.26778873  0.41704565  0.20901273  1
  O  O413  1  0.26497257  0.41672524  0.46271712  1
  O  O414  1  0.26446807  0.41652736  0.71157054  1
  O  O415  1  0.26475843  0.41626775  0.96140425  1
  O  O416  1  0.26522734  0.74972463  0.20791015  1
  O  O417  1  0.26724789  0.74993780  0.46262883  1
  O  O418  1  0.26647926  0.74987844  0.71240084  1
  O  O419  1  0.26383967  0.75066005  0.96139527  1
  O  O420  1  0.76551578  0.08401029  0.21017548  1
  O  O421  1  0.76649708  0.08360715  0.46180126  1
  O  O422  1  0.76773825  0.08321904  0.71077829  1
  O  O423  1  0.76821943  0.08323906  0.96089064  1
  O  O424  1  0.76484716  0.41651595  0.20843914  1
  O  O425  1  0.76549185  0.41647008  0.45883205  1
  O  O426  1  0.76872768  0.41763037  0.71085946  1
  O  O427  1  0.76561917  0.41629125  0.96251341  1
  O  O428  1  0.76499487  0.74937071  0.21232023  1
  O  O429  1  0.76367329  0.75011400  0.46051040  1
  O  O430  1  0.76771767  0.74939112  0.70985195  1
  O  O431  1  0.76929488  0.75038445  0.96164079  1
  O  O432  1  0.01747840  0.08280189  0.16251141  1
  O  O433  1  0.01582048  0.08357415  0.41581116  1
  O  O434  1  0.01651345  0.08320607  0.66203627  1
  O  O435  1  0.01508344  0.08335606  0.91314024  1
  O  O436  1  0.01851643  0.41682975  0.16500477  1
  O  O437  1  0.01683406  0.41643354  0.41454765  1
  O  O438  1  0.01760482  0.41669413  0.66383348  1
  O  O439  1  0.01714665  0.41739731  0.91235630  1
  O  O440  1  0.01730772  0.75033280  0.16316696  1
  O  O441  1  0.01726648  0.74985419  0.41477679  1
  O  O442  1  0.01802454  0.75018011  0.66372335  1
  O  O443  1  0.01600530  0.74955666  0.91305909  1
  O  O444  1  0.51434123  0.08355796  0.16384957  1
  O  O445  1  0.51473722  0.08315270  0.41558477  1
  O  O446  1  0.51774594  0.08338193  0.66183206  1
  O  O447  1  0.51496273  0.08364361  0.91605368  1
  O  O448  1  0.51705887  0.41612821  0.16545134  1
  O  O449  1  0.51500419  0.41704185  0.41326601  1
  O  O450  1  0.51660646  0.41670684  0.66529033  1
  O  O451  1  0.51607798  0.41677137  0.91526444  1
  O  O452  1  0.51568063  0.75068545  0.16532877  1
  O  O453  1  0.51636146  0.74992800  0.41503868  1
  O  O454  1  0.51656433  0.75002760  0.66232587  1
  O  O455  1  0.51536966  0.74896179  0.91343612  1
  O  O456  1  0.48316677  0.25032410  0.08719679  1
  O  O457  1  0.48309048  0.24927984  0.33783253  1
  O  O458  1  0.48466201  0.25038104  0.58445896  1
  O  O459  1  0.48277603  0.24988620  0.83733989  1
  O  O460  1  0.48437391  0.58277693  0.08666392  1
  O  O461  1  0.48481597  0.58373729  0.33643489  1
  O  O462  1  0.48386081  0.58376519  0.58723082  1
  O  O463  1  0.48317310  0.58351201  0.83523175  1
  O  O464  1  0.48067737  0.91639881  0.08507150  1
  O  O465  1  0.48186112  0.91671617  0.33810005  1
  O  O466  1  0.48481212  0.91612198  0.58480193  1
  O  O467  1  0.48349704  0.91687291  0.83470436  1
  O  O468  1  0.98414733  0.25035831  0.08396962  1
  O  O469  1  0.98457822  0.24953166  0.33664658  1
  O  O470  1  0.98380266  0.24988738  0.58674223  1
  O  O471  1  0.98448248  0.25002467  0.83439631  1
  O  O472  1  0.98366552  0.58338626  0.08724211  1
  O  O473  1  0.98574188  0.58374231  0.33664236  1
  O  O474  1  0.98445777  0.58316128  0.58414095  1
  O  O475  1  0.98217900  0.58358877  0.83442669  1
  O  O476  1  0.98421795  0.91653421  0.08650854  1
  O  O477  1  0.98584105  0.91676134  0.33668312  1
  O  O478  1  0.98481480  0.91652156  0.58369509  1
  O  O479  1  0.98459265  0.91632023  0.83654252  1
  O  O480  1  0.08818591  0.31508179  0.07815541  1
  O  O481  1  0.08826907  0.31456493  0.32775714  1
  O  O482  1  0.08771781  0.31479524  0.57776120  1
  O  O483  1  0.08815688  0.31568310  0.82710256  1
  O  O484  1  0.08709591  0.64839091  0.07787726  1
  O  O485  1  0.08962150  0.64839395  0.32718103  1
  O  O486  1  0.08828650  0.64875384  0.57723611  1
  O  O487  1  0.08597630  0.64883909  0.82732192  1
  O  O488  1  0.08791137  0.98181665  0.07713210  1
  O  O489  1  0.08947248  0.98169521  0.32716326  1
  O  O490  1  0.08875610  0.98178311  0.57727536  1
  O  O491  1  0.08819581  0.98089028  0.82792609  1
  O  O492  1  0.58677899  0.31597299  0.07775804  1
  O  O493  1  0.58662452  0.31458861  0.32711134  1
  O  O494  1  0.58910302  0.31428685  0.57709882  1
  O  O495  1  0.58659794  0.31470289  0.82773274  1
  O  O496  1  0.58803307  0.64739325  0.07747410  1
  O  O497  1  0.58813581  0.64988213  0.32823019  1
  O  O498  1  0.58747196  0.64922844  0.57795067  1
  O  O499  1  0.58730277  0.64835421  0.82634499  1
  O  O500  1  0.58445478  0.98179476  0.07679430  1
  O  O501  1  0.58564170  0.98103152  0.32738852  1
  O  O502  1  0.58848473  0.98172780  0.57693202  1
  O  O503  1  0.58736437  0.98168699  0.82769177  1
  O  O504  1  0.41090324  0.01807175  0.17176194  1
  O  O505  1  0.41066459  0.01828653  0.42310255  1
  O  O506  1  0.41412028  0.01841211  0.67204772  1
  O  O507  1  0.41052862  0.01949459  0.92284388  1
  O  O508  1  0.41295407  0.35106539  0.17304946  1
  O  O509  1  0.41190289  0.35084407  0.42181271  1
  O  O510  1  0.41251486  0.35237137  0.67241566  1
  O  O511  1  0.41224104  0.35188940  0.92215295  1
  O  O512  1  0.41228587  0.68532370  0.17297050  1
  O  O513  1  0.41229126  0.68547473  0.42389983  1
  O  O514  1  0.41294217  0.68411525  0.67249415  1
  O  O515  1  0.41174970  0.68362627  0.92113339  1
  O  O516  1  0.91393623  0.01760261  0.17199256  1
  O  O517  1  0.91199707  0.01832968  0.42359475  1
  O  O518  1  0.91261731  0.01872534  0.67244330  1
  O  O519  1  0.91144240  0.01830292  0.92270576  1
  O  O520  1  0.91449907  0.35209280  0.17302795  1
  O  O521  1  0.91303772  0.35160637  0.42271287  1
  O  O522  1  0.91390554  0.35094422  0.67248813  1
  O  O523  1  0.91371304  0.35256690  0.92250320  1
  O  O524  1  0.91371244  0.68512101  0.17226529  1
  O  O525  1  0.91336077  0.68497962  0.42279069  1
  O  O526  1  0.91388967  0.68517234  0.67260660  1
  O  O527  1  0.91257903  0.68381666  0.92214743  1
  O  O528  1  0.16204062  0.01741965  0.20240956  1
  O  O529  1  0.16297403  0.01825708  0.45324219  1
  O  O530  1  0.16105296  0.01963797  0.70144858  1
  O  O531  1  0.16332259  0.01739857  0.95311862  1
  O  O532  1  0.16373226  0.35244025  0.20130105  1
  O  O533  1  0.16154966  0.35169958  0.45366299  1
  O  O534  1  0.16112247  0.35049121  0.70317857  1
  O  O535  1  0.16068186  0.35195214  0.95218355  1
  O  O536  1  0.16128757  0.68466633  0.20212845  1
  O  O537  1  0.16375932  0.68466627  0.45384021  1
  O  O538  1  0.16277938  0.68478593  0.70208054  1
  O  O539  1  0.15997544  0.68633782  0.95148813  1
  O  O540  1  0.66182083  0.01900603  0.20193745  1
  O  O541  1  0.66279093  0.01847668  0.45280620  1
  O  O542  1  0.66360577  0.01832768  0.70197052  1
  O  O543  1  0.66438192  0.01853730  0.95238722  1
  O  O544  1  0.66074675  0.35145000  0.20212266  1
  O  O545  1  0.66184707  0.35097437  0.45339536  1
  O  O546  1  0.66469124  0.35304205  0.70280263  1
  O  O547  1  0.66229946  0.35041481  0.95321972  1
  O  O548  1  0.66149452  0.68414636  0.20319851  1
  O  O549  1  0.65973696  0.68524096  0.45276807  1
  O  O550  1  0.66382490  0.68335774  0.70265531  1
  O  O551  1  0.66552421  0.68539168  0.95229125  1
  O  O552  1  0.33957471  0.31395834  0.04784495  1
  O  O553  1  0.33851450  0.31685258  0.29722270  1
  O  O554  1  0.33649800  0.31412435  0.54774096  1
  O  O555  1  0.33599321  0.31492203  0.79852801  1
  O  O556  1  0.33733008  0.64851295  0.04684859  1
  O  O557  1  0.33555257  0.64742151  0.29780868  1
  O  O558  1  0.33710613  0.64918921  0.54865894  1
  O  O559  1  0.33839150  0.64950341  0.79720709  1
  O  O560  1  0.33586295  0.98229372  0.04805959  1
  O  O561  1  0.33675148  0.98129395  0.29800340  1
  O  O562  1  0.33702309  0.98188627  0.54708143  1
  O  O563  1  0.33735281  0.98110940  0.79678047  1
  O  O564  1  0.83591686  0.31413269  0.04831762  1
  O  O565  1  0.83476630  0.31536524  0.29783404  1
  O  O566  1  0.83750994  0.31416690  0.54816575  1
  O  O567  1  0.83886274  0.31564611  0.79657288  1
  O  O568  1  0.83998098  0.64942986  0.04753538  1
  O  O569  1  0.83628431  0.64779822  0.29772221  1
  O  O570  1  0.83497221  0.64859756  0.54740827  1
  O  O571  1  0.83782966  0.64864981  0.79729855  1
  O  O572  1  0.83919127  0.98183949  0.04796859  1
  O  O573  1  0.83798348  0.98189854  0.29726510  1
  O  O574  1  0.83555412  0.98216398  0.54710204  1
  O  O575  1  0.83836594  0.98132768  0.79644350  1
  O  O576  1  0.41079192  0.14845912  0.17135077  1
  O  O577  1  0.41085164  0.14840356  0.42304392  1
  O  O578  1  0.41414414  0.14850019  0.67213501  1
  O  O579  1  0.41120150  0.14948750  0.92241159  1
  O  O580  1  0.41304392  0.48099368  0.17398489  1
  O  O581  1  0.41115262  0.48117264  0.42227931  1
  O  O582  1  0.41297614  0.48251288  0.67200954  1
  O  O583  1  0.41254389  0.48225098  0.92201150  1
  O  O584  1  0.41165871  0.81555548  0.17208774  1
  O  O585  1  0.41252234  0.81554627  0.42362924  1
  O  O586  1  0.41235904  0.81406943  0.67284737  1
  O  O587  1  0.41160069  0.81376601  0.92178073  1
  O  O588  1  0.91395509  0.14787662  0.17252031  1
  O  O589  1  0.91160570  0.14825724  0.42339060  1
  O  O590  1  0.91291485  0.14883871  0.67194437  1
  O  O591  1  0.91134030  0.14823833  0.92258259  1
  O  O592  1  0.91471449  0.48226059  0.17274885  1
  O  O593  1  0.91334172  0.48185381  0.42293211  1
  O  O594  1  0.91333297  0.48101488  0.67264459  1
  O  O595  1  0.91350785  0.48264491  0.92166982  1
  O  O596  1  0.91372537  0.81540641  0.17236218  1
  O  O597  1  0.91361274  0.81505671  0.42288841  1
  O  O598  1  0.91400561  0.81511839  0.67277108  1
  O  O599  1  0.91222919  0.81392074  0.92309050  1
  O  O600  1  0.08766572  0.18475131  0.07745263  1
  O  O601  1  0.08819860  0.18463514  0.32775241  1
  O  O602  1  0.08755101  0.18463462  0.57726905  1
  O  O603  1  0.08851524  0.18559714  0.82626120  1
  O  O604  1  0.08719276  0.51815718  0.07790821  1
  O  O605  1  0.08937980  0.51853904  0.32714083  1
  O  O606  1  0.08870713  0.51858897  0.57763246  1
  O  O607  1  0.08630323  0.51889167  0.82731649  1
  O  O608  1  0.08804979  0.85175146  0.07755823  1
  O  O609  1  0.08958129  0.85176041  0.32708401  1
  O  O610  1  0.08898409  0.85162194  0.57741710  1
  O  O611  1  0.08790631  0.85065827  0.82881091  1
  O  O612  1  0.58706905  0.18593060  0.07686619  1
  O  O613  1  0.58679440  0.18455017  0.32718556  1
  O  O614  1  0.58825873  0.18427018  0.57697997  1
  O  O615  1  0.58645774  0.18469899  0.82776478  1
  O  O616  1  0.58781466  0.51717139  0.07846165  1
  O  O617  1  0.58905936  0.51979088  0.32729081  1
  O  O618  1  0.58766857  0.51908581  0.57725533  1
  O  O619  1  0.58711458  0.51849723  0.82630628  1
  O  O620  1  0.58488940  0.85182849  0.07679866  1
  O  O621  1  0.58521332  0.85089168  0.32804199  1
  O  O622  1  0.58890955  0.85156293  0.57760590  1
  O  O623  1  0.58712567  0.85141360  0.82749352  1
  O  O624  1  0.33879332  0.18390452  0.04704555  1
  O  O625  1  0.33973258  0.18674641  0.29755044  1
  O  O626  1  0.33603819  0.18402449  0.54738031  1
  O  O627  1  0.33636111  0.18495523  0.79779972  1
  O  O628  1  0.33728423  0.51843386  0.04714301  1
  O  O629  1  0.33525873  0.51738280  0.29751464  1
  O  O630  1  0.33727454  0.51924777  0.54913872  1
  O  O631  1  0.33914717  0.51936452  0.79781420  1
  O  O632  1  0.33606729  0.85234803  0.04847686  1
  O  O633  1  0.33689675  0.85128580  0.29794280  1
  O  O634  1  0.33718748  0.85171250  0.54718829  1
  O  O635  1  0.33680123  0.85074117  0.79709598  1
  O  O636  1  0.83597680  0.18401779  0.04771581  1
  O  O637  1  0.83502081  0.18531924  0.29784733  1
  O  O638  1  0.83713776  0.18421756  0.54789453  1
  O  O639  1  0.83928314  0.18511070  0.79598653  1
  O  O640  1  0.84030144  0.51923118  0.04817503  1
  O  O641  1  0.83619235  0.51768215  0.29725650  1
  O  O642  1  0.83514612  0.51865876  0.54725539  1
  O  O643  1  0.83776264  0.51857337  0.79785457  1
  O  O644  1  0.83931049  0.85170236  0.04842757  1
  O  O645  1  0.83762057  0.85166674  0.29774176  1
  O  O646  1  0.83549446  0.85214816  0.54737647  1
  O  O647  1  0.83833143  0.85098621  0.79639397  1
  O  O648  1  0.16157630  0.14750373  0.20156910  1
  O  O649  1  0.16333262  0.14856842  0.45269420  1
  O  O650  1  0.16179629  0.14957961  0.70192280  1
  O  O651  1  0.16313606  0.14744495  0.95265251  1
  O  O652  1  0.16370732  0.48239725  0.20180634  1
  O  O653  1  0.16180836  0.48216033  0.45435138  1
  O  O654  1  0.16038004  0.48060141  0.70249794  1
  O  O655  1  0.16127954  0.48188986  0.95154259  1
  O  O656  1  0.16124015  0.81484004  0.20227182  1
  O  O657  1  0.16361188  0.81484123  0.45350691  1
  O  O658  1  0.16262693  0.81463975  0.70217687  1
  O  O659  1  0.16035593  0.81644661  0.95276430  1
  O  O660  1  0.66160110  0.14917160  0.20288890  1
  O  O661  1  0.66277062  0.14870784  0.45358066  1
  O  O662  1  0.66370711  0.14829277  0.70183473  1
  O  O663  1  0.66446108  0.14880603  0.95231174  1
  O  O664  1  0.66090707  0.48162423  0.20184534  1
  O  O665  1  0.66149021  0.48127138  0.45297208  1
  O  O666  1  0.66486613  0.48312194  0.70334507  1
  O  O667  1  0.66205987  0.48084197  0.95297382  1
  O  O668  1  0.66167104  0.81451084  0.20234617  1
  O  O669  1  0.65999168  0.81549124  0.45265022  1
  O  O670  1  0.66304459  0.81327446  0.70199481  1
  O  O671  1  0.66539075  0.81546204  0.95253324  1
