# generated using pymatgen
data_Na2MnFe(PO4)2
_symmetry_space_group_name_H-M   'P 1'
_cell_length_a   21.07891648
_cell_length_b   18.93012317
_cell_length_c   20.03810277
_cell_angle_alpha   89.99999429
_cell_angle_beta   89.99475494
_cell_angle_gamma   89.99775874
_symmetry_Int_Tables_number   1
_chemical_formula_structural   Na2MnFe(PO4)2
_chemical_formula_sum   'Na96 Mn48 Fe48 P96 O384'
_cell_volume   7995.73368289
_cell_formula_units_Z   48
loop_
 _symmetry_equiv_pos_site_id
 _symmetry_equiv_pos_as_xyz
  1  'x, y, z'
loop_
 _atom_site_type_symbol
 _atom_site_label
 _atom_site_symmetry_multiplicity
 _atom_site_fract_x
 _atom_site_fract_y
 _atom_site_fract_z
 _atom_site_occupancy
  Na  Na0  1  -0.00151226  -0.00012571  0.00061355  1
  Na  Na1  1  -0.00339994  -0.00044043  0.24962064  1
  Na  Na2  1  -0.00369817  -0.00054979  0.49951791  1
  Na  Na3  1  -0.00179091  -0.00030926  0.74964613  1
  Na  Na4  1  -0.00020571  0.33345277  0.00045694  1
  Na  Na5  1  -0.00109307  0.33307891  0.25137748  1
  Na  Na6  1  0.00218153  0.33474827  0.49877689  1
  Na  Na7  1  0.00070280  0.33330903  0.74924234  1
  Na  Na8  1  0.00062642  0.66676417  0.00043663  1
  Na  Na9  1  -0.00353376  0.66560049  0.24907787  1
  Na  Na10  1  -0.00022447  0.66684113  0.49966018  1
  Na  Na11  1  0.00210232  0.66683344  0.75069377  1
  Na  Na12  1  0.50064686  -0.00042597  0.00077453  1
  Na  Na13  1  0.50228930  0.00033910  0.24913530  1
  Na  Na14  1  0.50203107  0.00045754  0.49978106  1
  Na  Na15  1  0.50068113  -0.00019867  0.75022693  1
  Na  Na16  1  0.50122436  0.33419493  -0.00030673  1
  Na  Na17  1  0.49872430  0.33273892  0.25073926  1
  Na  Na18  1  0.50181302  0.33362341  0.49957919  1
  Na  Na19  1  0.50210974  0.33373535  0.75026018  1
  Na  Na20  1  0.50003917  0.66661445  0.00047607  1
  Na  Na21  1  0.49910884  0.66598437  0.25005062  1
  Na  Na22  1  0.50143512  0.66732576  0.49908103  1
  Na  Na23  1  0.50030662  0.66636713  0.75055819  1
  Na  Na24  1  0.24837327  -0.00087498  0.12450331  1
  Na  Na25  1  0.25185274  0.00042005  0.37540785  1
  Na  Na26  1  0.25013589  -0.00006300  0.62515941  1
  Na  Na27  1  0.24861495  -0.00034220  0.87484235  1
  Na  Na28  1  0.25130504  0.33383620  0.12502528  1
  Na  Na29  1  0.25186901  0.33312441  0.37535745  1
  Na  Na30  1  0.24925610  0.33302335  0.62517732  1
  Na  Na31  1  0.24890547  0.33331067  0.87483734  1
  Na  Na32  1  0.25000063  0.66653787  0.12446966  1
  Na  Na33  1  0.25206672  0.66725288  0.37606088  1
  Na  Na34  1  0.24878178  0.66636806  0.62477439  1
  Na  Na35  1  0.24670209  0.66580479  0.87482204  1
  Na  Na36  1  0.75133929  -0.00011994  0.12462944  1
  Na  Na37  1  0.75034955  0.00024851  0.37497455  1
  Na  Na38  1  0.75092438  0.00054667  0.62463425  1
  Na  Na39  1  0.75287275  0.00068740  0.87540415  1
  Na  Na40  1  0.75123536  0.33469375  0.12439860  1
  Na  Na41  1  0.74733094  0.33269065  0.37464576  1
  Na  Na42  1  0.74702876  0.33295114  0.62545553  1
  Na  Na43  1  0.74809037  0.33308765  0.87626145  1
  Na  Na44  1  0.75237049  0.66744205  0.12607393  1
  Na  Na45  1  0.75053574  0.66608060  0.37420042  1
  Na  Na46  1  0.74942491  0.66602948  0.62540690  1
  Na  Na47  1  0.74997844  0.66598294  0.87401337  1
  Na  Na48  1  -0.00239172  0.16752984  0.00088942  1
  Na  Na49  1  -0.00232003  0.16699332  0.25090369  1
  Na  Na50  1  -0.00011117  0.16650679  0.49873457  1
  Na  Na51  1  -0.00016459  0.16617137  0.74851650  1
  Na  Na52  1  0.00194018  0.49909923  -0.00014094  1
  Na  Na53  1  -0.00214827  0.50050947  0.25030034  1
  Na  Na54  1  -0.00148770  0.50088114  0.49982199  1
  Na  Na55  1  0.00223701  0.49943815  0.75064998  1
  Na  Na56  1  -0.00140526  0.83379392  0.00076969  1
  Na  Na57  1  -0.00310971  0.83384547  0.24902731  1
  Na  Na58  1  -0.00172306  0.83332769  0.49886787  1
  Na  Na59  1  -0.00042194  0.83360709  0.75063834  1
  Na  Na60  1  0.49947923  0.16713590  -0.00041016  1
  Na  Na61  1  0.50014333  0.16707159  0.25054273  1
  Na  Na62  1  0.50182627  0.16662502  0.50020061  1
  Na  Na63  1  0.50187351  0.16648494  0.75060223  1
  Na  Na64  1  0.50216137  0.49951099  -0.00003504  1
  Na  Na65  1  0.50031211  0.50021045  0.25019648  1
  Na  Na66  1  0.50194971  0.49928081  0.49891403  1
  Na  Na67  1  0.50161961  0.50000700  0.75043012  1
  Na  Na68  1  0.50003728  0.83328891  0.00131075  1
  Na  Na69  1  0.50023722  0.83342052  0.24926941  1
  Na  Na70  1  0.50068207  0.83334710  0.49934013  1
  Na  Na71  1  0.49997041  0.83319252  0.75006778  1
  Na  Na72  1  0.25113168  0.16644316  0.12539648  1
  Na  Na73  1  0.25122292  0.16763226  0.37437556  1
  Na  Na74  1  0.25049295  0.16689118  0.62561863  1
  Na  Na75  1  0.24867971  0.16699615  0.87403263  1
  Na  Na76  1  0.24841288  0.50048114  0.12386578  1
  Na  Na77  1  0.25272339  0.49868750  0.37597793  1
  Na  Na78  1  0.24840484  0.50072830  0.62489293  1
  Na  Na79  1  0.24741523  0.50017318  0.87545199  1
  Na  Na80  1  0.25017881  0.83341061  0.12474809  1
  Na  Na81  1  0.25209434  0.83274646  0.37636923  1
  Na  Na82  1  0.24900310  0.83345180  0.62477275  1
  Na  Na83  1  0.24828915  0.83358098  0.87486723  1
  Na  Na84  1  0.75227597  0.16611228  0.12530105  1
  Na  Na85  1  0.75016010  0.16595758  0.37397281  1
  Na  Na86  1  0.74747306  0.16776974  0.62524879  1
  Na  Na87  1  0.75113535  0.16645937  0.87616976  1
  Na  Na88  1  0.74927945  0.50041170  0.12541369  1
  Na  Na89  1  0.75013805  0.49954452  0.37486149  1
  Na  Na90  1  0.74840053  0.50021934  0.62520194  1
  Na  Na91  1  0.74902855  0.50009999  0.87489363  1
  Na  Na92  1  0.75284925  0.83229254  0.12460126  1
  Na  Na93  1  0.74975105  0.83360676  0.37464837  1
  Na  Na94  1  0.75059266  0.83333552  0.62525715  1
  Na  Na95  1  0.75159008  0.83315558  0.87456845  1
  Mn  Mn96  1  0.14131450  0.25018218  0.74737306  1
  Mn  Mn97  1  0.14315905  0.25019043  0.24785567  1
  Mn  Mn98  1  0.64370919  0.91569819  0.99748637  1
  Mn  Mn99  1  0.85753754  0.41605658  0.75184039  1
  Mn  Mn100  1  0.39262435  0.25013130  0.87732117  1
  Mn  Mn101  1  0.10656318  0.08381137  0.12332010  1
  Mn  Mn102  1  0.14175806  0.58278772  0.49718977  1
  Mn  Mn103  1  0.85642432  0.41584653  0.50263340  1
  Mn  Mn104  1  0.10694323  0.74982261  0.12367663  1
  Mn  Mn105  1  0.35813609  0.08307984  0.75236118  1
  Mn  Mn106  1  0.14144887  0.91765762  0.49704492  1
  Mn  Mn107  1  0.64299595  0.25027183  0.99840618  1
  Mn  Mn108  1  0.35892463  0.08289346  0.25236238  1
  Mn  Mn109  1  0.35763763  0.41728653  0.75186457  1
  Mn  Mn110  1  0.39189967  0.58265078  0.12689998  1
  Mn  Mn111  1  0.85865190  0.74954228  0.75238719  1
  Mn  Mn112  1  0.14252759  0.58344030  0.24844948  1
  Mn  Mn113  1  0.85778980  0.08451235  0.75204311  1
  Mn  Mn114  1  0.39269349  0.91728907  0.62757224  1
  Mn  Mn115  1  0.39223799  0.91732346  0.12730211  1
  Mn  Mn116  1  0.14114673  0.24939360  0.99815336  1
  Mn  Mn117  1  0.60826101  0.74996046  0.62247924  1
  Mn  Mn118  1  0.64271013  0.91721434  0.74853709  1
  Mn  Mn119  1  0.64268102  0.91640453  0.49723005  1
  Mn  Mn120  1  0.35687157  0.75010365  0.00115131  1
  Mn  Mn121  1  0.85716343  0.74987697  0.50258979  1
  Mn  Mn122  1  0.89168130  0.25075537  0.62668246  1
  Mn  Mn123  1  0.35725784  0.08308211  0.00171676  1
  Mn  Mn124  1  0.85802918  0.41739237  0.00235487  1
  Mn  Mn125  1  0.60858569  0.08269748  0.87331579  1
  Mn  Mn126  1  0.89143582  0.25040618  0.37812424  1
  Mn  Mn127  1  0.10688160  0.08270789  0.37277681  1
  Mn  Mn128  1  0.60860892  0.74967492  0.12243936  1
  Mn  Mn129  1  0.14110961  0.91630814  0.74756812  1
  Mn  Mn130  1  0.10721102  0.08313690  0.62153093  1
  Mn  Mn131  1  0.10703198  0.75030398  0.37198532  1
  Mn  Mn132  1  0.10785634  0.41739364  0.37212761  1
  Mn  Mn133  1  0.35710086  0.74956968  0.75259245  1
  Mn  Mn134  1  0.35750456  0.41666781  0.00183368  1
  Mn  Mn135  1  0.35912266  0.08350217  0.50212356  1
  Mn  Mn136  1  0.39288238  0.58272588  0.62761077  1
  Mn  Mn137  1  0.14212031  0.91639396  0.24866601  1
  Mn  Mn138  1  0.35864704  0.41638018  0.50276727  1
  Mn  Mn139  1  0.64281397  0.58378572  0.24764635  1
  Mn  Mn140  1  0.35838061  0.75008472  0.50234443  1
  Mn  Mn141  1  0.89317363  0.58295929  0.87773694  1
  Mn  Mn142  1  0.64178967  0.58311184  0.74780521  1
  Mn  Mn143  1  0.64222762  0.24957645  0.24684707  1
  Fe  Fe144  1  0.85705026  0.74998718  0.25227447  1
  Fe  Fe145  1  0.35829775  0.41760300  0.25125066  1
  Fe  Fe146  1  0.89242408  0.91593915  0.62663246  1
  Fe  Fe147  1  0.10712958  0.41641889  0.12454211  1
  Fe  Fe148  1  0.60754103  0.41624645  0.12389518  1
  Fe  Fe149  1  0.85586131  0.08416870  0.50153617  1
  Fe  Fe150  1  0.39408036  0.91690103  0.37601558  1
  Fe  Fe151  1  0.89246294  0.58250723  0.12604425  1
  Fe  Fe152  1  0.60811100  0.08396255  0.12300515  1
  Fe  Fe153  1  0.64346704  0.91647113  0.24834345  1
  Fe  Fe154  1  0.39411366  0.25010197  0.62659677  1
  Fe  Fe155  1  0.10645000  0.74990516  0.62308139  1
  Fe  Fe156  1  0.64185394  0.25011895  0.49798848  1
  Fe  Fe157  1  0.89112193  0.91621194  0.37675747  1
  Fe  Fe158  1  0.89233845  0.91670676  0.12726384  1
  Fe  Fe159  1  0.89238024  0.25104165  0.12742286  1
  Fe  Fe160  1  0.10676256  0.75062626  0.87358684  1
  Fe  Fe161  1  0.10717494  0.41572707  0.87308581  1
  Fe  Fe162  1  0.39396720  0.24957437  0.37738184  1
  Fe  Fe163  1  0.60678835  0.41693434  0.37256881  1
  Fe  Fe164  1  0.10711561  0.41689431  0.62275900  1
  Fe  Fe165  1  0.14121495  0.91663639  0.99804760  1
  Fe  Fe166  1  0.60791112  0.08346442  0.62321854  1
  Fe  Fe167  1  0.39305510  0.25006223  0.12598657  1
  Fe  Fe168  1  0.10600568  0.08350602  0.87380128  1
  Fe  Fe169  1  0.60745297  0.41744708  0.87343893  1
  Fe  Fe170  1  0.35819119  0.74958594  0.25177125  1
  Fe  Fe171  1  0.64273652  0.58317599  0.49776120  1
  Fe  Fe172  1  0.60763306  0.74992568  0.87410631  1
  Fe  Fe173  1  0.89224220  0.25006794  0.87623959  1
  Fe  Fe174  1  0.64232897  0.24971006  0.74872747  1
  Fe  Fe175  1  0.14359060  0.24961889  0.49833552  1
  Fe  Fe176  1  0.60793569  0.08291830  0.37276808  1
  Fe  Fe177  1  0.39251115  0.58386089  0.87672382  1
  Fe  Fe178  1  0.14226698  0.58332390  0.74779572  1
  Fe  Fe179  1  0.85719069  0.41672405  0.25175908  1
  Fe  Fe180  1  0.89279465  0.58332650  0.62652861  1
  Fe  Fe181  1  0.39240523  0.91593971  0.87671297  1
  Fe  Fe182  1  0.14147486  0.58371076  0.99838914  1
  Fe  Fe183  1  0.89314827  0.91691645  0.87699118  1
  Fe  Fe184  1  0.60730817  0.75029914  0.37265431  1
  Fe  Fe185  1  0.85634368  0.08339538  0.25195911  1
  Fe  Fe186  1  0.64294714  0.58433741  0.99872588  1
  Fe  Fe187  1  0.60753051  0.41641467  0.62286120  1
  Fe  Fe188  1  0.85811692  0.74937967  0.00107910  1
  Fe  Fe189  1  0.89174510  0.58343866  0.37729948  1
  Fe  Fe190  1  0.39365032  0.58360574  0.37656881  1
  Fe  Fe191  1  0.85844769  0.08318351  0.00207322  1
  P  P192  1  0.05166358  0.25080053  0.11113045  1
  P  P193  1  0.05437230  0.24978984  0.36093929  1
  P  P194  1  0.05355239  0.25079950  0.60845605  1
  P  P195  1  0.05163627  0.24929244  0.86012348  1
  P  P196  1  0.05262440  0.58250668  0.11033627  1
  P  P197  1  0.05130452  0.58372693  0.35946924  1
  P  P198  1  0.05328304  0.58336706  0.61097091  1
  P  P199  1  0.05550919  0.58340501  0.86104126  1
  P  P200  1  0.05215310  0.91667961  0.11017798  1
  P  P201  1  0.05052674  0.91675715  0.35938771  1
  P  P202  1  0.05150773  0.91584324  0.60949283  1
  P  P203  1  0.05284125  0.91721323  0.86162733  1
  P  P204  1  0.55268399  0.25010563  0.11019207  1
  P  P205  1  0.55432931  0.24999613  0.36108662  1
  P  P206  1  0.55478704  0.24990895  0.61078878  1
  P  P207  1  0.55466470  0.25066580  0.86004252  1
  P  P208  1  0.55419638  0.58256902  0.10964300  1
  P  P209  1  0.55405683  0.58354081  0.36092924  1
  P  P210  1  0.55424112  0.58252296  0.60896928  1
  P  P211  1  0.55382292  0.58414256  0.86181840  1
  P  P212  1  0.55560331  0.91732042  0.11111319  1
  P  P213  1  0.55391771  0.91651178  0.35908131  1
  P  P214  1  0.55404459  0.91745502  0.60998934  1
  P  P215  1  0.55261163  0.91528815  0.86069864  1
  P  P216  1  0.44829970  0.08414380  0.13962263  1
  P  P217  1  0.44880825  0.08286997  0.38959573  1
  P  P218  1  0.44861733  0.08465645  0.64004009  1
  P  P219  1  0.44708236  0.08211170  0.89022334  1
  P  P220  1  0.44756923  0.41611059  0.14008811  1
  P  P221  1  0.44660323  0.41680391  0.38860240  1
  P  P222  1  0.44859723  0.41568096  0.63996427  1
  P  P223  1  0.44776649  0.41789564  0.88968727  1
  P  P224  1  0.44601659  0.74978687  0.14030411  1
  P  P225  1  0.44693679  0.75038823  0.38828138  1
  P  P226  1  0.44710301  0.74974231  0.64036846  1
  P  P227  1  0.44761840  0.74989037  0.89011305  1
  P  P228  1  0.94397702  0.08362025  0.13977761  1
  P  P229  1  0.94334502  0.08255463  0.38941960  1
  P  P230  1  0.94468934  0.08321474  0.63807459  1
  P  P231  1  0.94660995  0.08381069  0.89026668  1
  P  P232  1  0.94700980  0.41702706  0.14058260  1
  P  P233  1  0.94482444  0.41756698  0.38931070  1
  P  P234  1  0.94760025  0.41743975  0.63963574  1
  P  P235  1  0.94785717  0.41583778  0.88962726  1
  P  P236  1  0.94397381  0.74945085  0.13898182  1
  P  P237  1  0.94423416  0.74979263  0.38866028  1
  P  P238  1  0.94735775  0.74944509  0.63984264  1
  P  P239  1  0.94754735  0.75025152  0.89060918  1
  P  P240  1  0.19711976  0.08315745  0.23500684  1
  P  P241  1  0.19718446  0.08457082  0.48450228  1
  P  P242  1  0.19488982  0.08312647  0.73570035  1
  P  P243  1  0.19509564  0.08276097  0.98436478  1
  P  P244  1  0.19818916  0.41695355  0.23464223  1
  P  P245  1  0.19569724  0.41549697  0.48592681  1
  P  P246  1  0.19437125  0.41735928  0.73525926  1
  P  P247  1  0.19399312  0.41678849  0.98583238  1
  P  P248  1  0.19841242  0.74986203  0.23525791  1
  P  P249  1  0.19494237  0.75008548  0.48581555  1
  P  P250  1  0.19406388  0.74930622  0.73532710  1
  P  P251  1  0.19474219  0.75031005  0.98470380  1
  P  P252  1  0.69603428  0.08236352  0.23532311  1
  P  P253  1  0.69561894  0.08408169  0.48519356  1
  P  P254  1  0.69628019  0.08398577  0.73479135  1
  P  P255  1  0.69791725  0.08327636  0.98650876  1
  P  P256  1  0.69611388  0.41668049  0.23542720  1
  P  P257  1  0.69403077  0.41681718  0.48527148  1
  P  P258  1  0.69451631  0.41589933  0.73579274  1
  P  P259  1  0.69494850  0.41803241  0.98606396  1
  P  P260  1  0.69697636  0.75077851  0.23615919  1
  P  P261  1  0.69610012  0.74895753  0.48389699  1
  P  P262  1  0.69601930  0.75017056  0.73608764  1
  P  P263  1  0.69835108  0.74903507  0.98442473  1
  P  P264  1  0.30349329  0.24989303  0.01553024  1
  P  P265  1  0.30656482  0.25118705  0.26438682  1
  P  P266  1  0.30518209  0.24980484  0.51512458  1
  P  P267  1  0.30442707  0.25052040  0.76393521  1
  P  P268  1  0.30263619  0.58346903  0.01337352  1
  P  P269  1  0.30434890  0.58310875  0.26569823  1
  P  P270  1  0.30485081  0.58320715  0.51444725  1
  P  P271  1  0.30220124  0.58308525  0.76580755  1
  P  P272  1  0.30257032  0.91648643  0.01376529  1
  P  P273  1  0.30425649  0.91572238  0.26597139  1
  P  P274  1  0.30474389  0.91696009  0.51424183  1
  P  P275  1  0.30345089  0.91635572  0.76588403  1
  P  P276  1  0.80574368  0.24990087  0.01475233  1
  P  P277  1  0.80439445  0.25061852  0.26374011  1
  P  P278  1  0.80075206  0.24964600  0.51502815  1
  P  P279  1  0.80201457  0.25051388  0.76592990  1
  P  P280  1  0.80284504  0.58391916  0.01541168  1
  P  P281  1  0.80548043  0.58264873  0.26417015  1
  P  P282  1  0.80318817  0.58294677  0.51482797  1
  P  P283  1  0.80474593  0.58264114  0.76417501  1
  P  P284  1  0.80631543  0.91616389  0.01412303  1
  P  P285  1  0.80394931  0.91680481  0.26417153  1
  P  P286  1  0.80464082  0.91737498  0.51449156  1
  P  P287  1  0.80569320  0.91679204  0.76474480  1
  O  O288  1  0.05580130  0.25004759  0.18778885  1
  O  O289  1  0.05923956  0.24975857  0.43758147  1
  O  O290  1  0.05614510  0.24974520  0.68534071  1
  O  O291  1  0.05480424  0.24947710  0.93682707  1
  O  O292  1  0.05601865  0.58335761  0.18703888  1
  O  O293  1  0.05564275  0.58360268  0.43617856  1
  O  O294  1  0.05760346  0.58317832  0.68767887  1
  O  O295  1  0.05866294  0.58342536  0.93793548  1
  O  O296  1  0.05610476  0.91660244  0.18687387  1
  O  O297  1  0.05483045  0.91697863  0.43608583  1
  O  O298  1  0.05518788  0.91673892  0.68625784  1
  O  O299  1  0.05694245  0.91702996  0.93833490  1
  O  O300  1  0.55584850  0.25001932  0.18694751  1
  O  O301  1  0.55858894  0.24985470  0.43782553  1
  O  O302  1  0.55862102  0.24979168  0.68751215  1
  O  O303  1  0.55753163  0.24989254  0.93686327  1
  O  O304  1  0.55730693  0.58362918  0.18645671  1
  O  O305  1  0.55845097  0.58368444  0.43757026  1
  O  O306  1  0.55670602  0.58345163  0.68587052  1
  O  O307  1  0.55842613  0.58426019  0.93846288  1
  O  O308  1  0.56005659  0.91640308  0.18783744  1
  O  O309  1  0.55716761  0.91640006  0.43584928  1
  O  O310  1  0.55699633  0.91670738  0.68675137  1
  O  O311  1  0.55670245  0.91591574  0.93743159  1
  O  O312  1  0.44407746  0.08324858  0.06296853  1
  O  O313  1  0.44514249  0.08300067  0.31291939  1
  O  O314  1  0.44520918  0.08398398  0.56330177  1
  O  O315  1  0.44413299  0.08266637  0.81342974  1
  O  O316  1  0.44380390  0.41703046  0.06336841  1
  O  O317  1  0.44234708  0.41714701  0.31193773  1
  O  O318  1  0.44498829  0.41627693  0.56323522  1
  O  O319  1  0.44398070  0.41746949  0.81301450  1
  O  O320  1  0.44221693  0.74989095  0.06354868  1
  O  O321  1  0.44250392  0.74995893  0.31159524  1
  O  O322  1  0.44407936  0.74976487  0.56353132  1
  O  O323  1  0.44401984  0.74971369  0.81341224  1
  O  O324  1  0.94105308  0.08352057  0.06289534  1
  O  O325  1  0.93933072  0.08353558  0.31257936  1
  O  O326  1  0.94015098  0.08447352  0.56135672  1
  O  O327  1  0.94368846  0.08389490  0.81346474  1
  O  O328  1  0.94399115  0.41701287  0.06381272  1
  O  O329  1  0.94058263  0.41645601  0.31258145  1
  O  O330  1  0.94328520  0.41680660  0.56294788  1
  O  O331  1  0.94400639  0.41649967  0.81297650  1
  O  O332  1  0.94103624  0.74932565  0.06216541  1
  O  O333  1  0.94031157  0.74996197  0.31181611  1
  O  O334  1  0.94363339  0.74930213  0.56311754  1
  O  O335  1  0.94429140  0.74944171  0.81387251  1
  O  O336  1  0.19213587  0.08348743  0.06120467  1
  O  O337  1  0.19350471  0.08341480  0.31175203  1
  O  O338  1  0.19374058  0.08351809  0.56133122  1
  O  O339  1  0.18980531  0.08322435  0.81240624  1
  O  O340  1  0.18990767  0.41606848  0.06263599  1
  O  O341  1  0.19431774  0.41664729  0.31141101  1
  O  O342  1  0.19107660  0.41679663  0.56268058  1
  O  O343  1  0.19018732  0.41597337  0.81210197  1
  O  O344  1  0.19232734  0.75033044  0.06155112  1
  O  O345  1  0.19426652  0.74998520  0.31197707  1
  O  O346  1  0.18996814  0.75008737  0.56259816  1
  O  O347  1  0.18978777  0.75055009  0.81210851  1
  O  O348  1  0.69276663  0.08359461  0.06317707  1
  O  O349  1  0.69121106  0.08312925  0.31208813  1
  O  O350  1  0.69131822  0.08344643  0.56192969  1
  O  O351  1  0.69382582  0.08286419  0.81166784  1
  O  O352  1  0.69099720  0.41689055  0.06286973  1
  O  O353  1  0.69085610  0.41654292  0.31212466  1
  O  O354  1  0.69065194  0.41680228  0.56214712  1
  O  O355  1  0.69075190  0.41715847  0.81263307  1
  O  O356  1  0.69482444  0.74979660  0.06119375  1
  O  O357  1  0.69156358  0.75010106  0.31276509  1
  O  O358  1  0.69353139  0.74981180  0.56076764  1
  O  O359  1  0.69158366  0.75016298  0.81283257  1
  O  O360  1  0.31060043  0.25006637  0.18756811  1
  O  O361  1  0.31062156  0.24978388  0.43834772  1
  O  O362  1  0.30952089  0.25053331  0.68722600  1
  O  O363  1  0.30665469  0.25006079  0.93868851  1
  O  O364  1  0.30637591  0.58295562  0.18879949  1
  O  O365  1  0.31028891  0.58316305  0.43772897  1
  O  O366  1  0.30656731  0.58307426  0.68905981  1
  O  O367  1  0.30802590  0.58325586  0.93676075  1
  O  O368  1  0.30677775  0.91680264  0.18907726  1
  O  O369  1  0.31027466  0.91704193  0.43755783  1
  O  O370  1  0.30711440  0.91644820  0.68905380  1
  O  O371  1  0.30800868  0.91645443  0.93714656  1
  O  O372  1  0.80840257  0.25126281  0.18694458  1
  O  O373  1  0.80478165  0.25031158  0.43833571  1
  O  O374  1  0.80590770  0.25080973  0.68919752  1
  O  O375  1  0.80948340  0.25065118  0.93793533  1
  O  O376  1  0.80920368  0.58247952  0.18738117  1
  O  O377  1  0.80786174  0.58297674  0.43808388  1
  O  O378  1  0.80937255  0.58280036  0.68740378  1
  O  O379  1  0.80656804  0.58279591  0.93865523  1
  O  O380  1  0.80817608  0.91657856  0.18740872  1
  O  O381  1  0.80782752  0.91628761  0.43764623  1
  O  O382  1  0.80952013  0.91621892  0.68789028  1
  O  O383  1  0.81015593  0.91654829  0.93723689  1
  O  O384  1  0.23371414  0.24992129  0.04043671  1
  O  O385  1  0.23642715  0.25051053  0.28848147  1
  O  O386  1  0.23473905  0.24999653  0.53831234  1
  O  O387  1  0.23416444  0.25057342  0.78750739  1
  O  O388  1  0.23216500  0.58376147  0.03679088  1
  O  O389  1  0.23488091  0.58299989  0.29186752  1
  O  O390  1  0.23455468  0.58326430  0.53761341  1
  O  O391  1  0.23190107  0.58300379  0.78945558  1
  O  O392  1  0.23211772  0.91633604  0.03718844  1
  O  O393  1  0.23465354  0.91652341  0.29158444  1
  O  O394  1  0.23447605  0.91696795  0.53768420  1
  O  O395  1  0.23340517  0.91646549  0.78989949  1
  O  O396  1  0.73569755  0.25053674  0.03918844  1
  O  O397  1  0.73436563  0.24967413  0.28802559  1
  O  O398  1  0.73065030  0.25036360  0.53928558  1
  O  O399  1  0.73200805  0.24974674  0.79045330  1
  O  O400  1  0.73289723  0.58397108  0.04027706  1
  O  O401  1  0.73536108  0.58275482  0.28840101  1
  O  O402  1  0.73277543  0.58308887  0.53824817  1
  O  O403  1  0.73458648  0.58269355  0.78784348  1
  O  O404  1  0.73627508  0.91596948  0.03845103  1
  O  O405  1  0.73364154  0.91686389  0.28833860  1
  O  O406  1  0.73471985  0.91657433  0.53911196  1
  O  O407  1  0.73573688  0.91718576  0.78915790  1
  O  O408  1  0.26696559  0.08277132  0.21024044  1
  O  O409  1  0.26693943  0.08425271  0.45958259  1
  O  O410  1  0.26510056  0.08302307  0.71203532  1
  O  O411  1  0.26480354  0.08344542  0.95913539  1
  O  O412  1  0.26828359  0.41735681  0.21023370  1
  O  O413  1  0.26588446  0.41561452  0.46224701  1
  O  O414  1  0.26444516  0.41706087  0.71106439  1
  O  O415  1  0.26409739  0.41632518  0.96154973  1
  O  O416  1  0.26837700  0.74971629  0.21059597  1
  O  O417  1  0.26524167  0.74991544  0.46257938  1
  O  O418  1  0.26415492  0.74994163  0.71121792  1
  O  O419  1  0.26433648  0.74995630  0.95902676  1
  O  O420  1  0.76657032  0.08313173  0.21216054  1
  O  O421  1  0.76591145  0.08340065  0.46121564  1
  O  O422  1  0.76587647  0.08406623  0.70938867  1
  O  O423  1  0.76832743  0.08318752  0.96301919  1
  O  O424  1  0.76656603  0.41727656  0.21217275  1
  O  O425  1  0.76397555  0.41632458  0.46067129  1
  O  O426  1  0.76443105  0.41666880  0.71110794  1
  O  O427  1  0.76504527  0.41701064  0.96181576  1
  O  O428  1  0.76753069  0.75014016  0.21306310  1
  O  O429  1  0.76579735  0.74958077  0.45881699  1
  O  O430  1  0.76601562  0.74976613  0.71182585  1
  O  O431  1  0.76843685  0.74942230  0.95982315  1
  O  O432  1  0.01381467  0.08343572  0.16482604  1
  O  O433  1  0.01343085  0.08311205  0.41345023  1
  O  O434  1  0.01470921  0.08317928  0.66225234  1
  O  O435  1  0.01642968  0.08369305  0.91565959  1
  O  O436  1  0.01699226  0.41681969  0.16575394  1
  O  O437  1  0.01489812  0.41765679  0.41327715  1
  O  O438  1  0.01769738  0.41662679  0.66391325  1
  O  O439  1  0.01795800  0.41627212  0.91406967  1
  O  O440  1  0.01388347  0.74963620  0.16402793  1
  O  O441  1  0.01407821  0.74995979  0.41327045  1
  O  O442  1  0.01726447  0.74978525  0.66483957  1
  O  O443  1  0.01757112  0.75015145  0.91527960  1
  O  O444  1  0.51840873  0.08389539  0.16414247  1
  O  O445  1  0.51893731  0.08311191  0.41413633  1
  O  O446  1  0.51859007  0.08394051  0.66484848  1
  O  O447  1  0.51680077  0.08288727  0.91549052  1
  O  O448  1  0.51768794  0.41648610  0.16472350  1
  O  O449  1  0.51694465  0.41659521  0.41257639  1
  O  O450  1  0.51861187  0.41622456  0.66455325  1
  O  O451  1  0.51793307  0.41730418  0.91407057  1
  O  O452  1  0.51607341  0.74946986  0.16443901  1
  O  O453  1  0.51730451  0.75047167  0.41226409  1
  O  O454  1  0.51681411  0.74964432  0.66536037  1
  O  O455  1  0.51750652  0.74984845  0.91538074  1
  O  O456  1  0.48286055  0.25045615  0.08487216  1
  O  O457  1  0.48398645  0.24993131  0.33727331  1
  O  O458  1  0.48468921  0.25015974  0.58603713  1
  O  O459  1  0.48494130  0.25014421  0.83494906  1
  O  O460  1  0.48435011  0.58304500  0.08490294  1
  O  O461  1  0.48376450  0.58336728  0.33685933  1
  O  O462  1  0.48467422  0.58308873  0.58348574  1
  O  O463  1  0.48363733  0.58364521  0.83738625  1
  O  O464  1  0.48543624  0.91678743  0.08724107  1
  O  O465  1  0.48388862  0.91666879  0.33428843  1
  O  O466  1  0.48448323  0.91719992  0.58446437  1
  O  O467  1  0.48267115  0.91594176  0.83590203  1
  O  O468  1  0.98152376  0.25080307  0.08680941  1
  O  O469  1  0.98405485  0.24986377  0.33767042  1
  O  O470  1  0.98382396  0.25070009  0.58318693  1
  O  O471  1  0.98176624  0.24959953  0.83464878  1
  O  O472  1  0.98256019  0.58290779  0.08549319  1
  O  O473  1  0.98116960  0.58337177  0.33552770  1
  O  O474  1  0.98307836  0.58348782  0.58652859  1
  O  O475  1  0.98552504  0.58320995  0.83641224  1
  O  O476  1  0.98178122  0.91668295  0.08649248  1
  O  O477  1  0.98037181  0.91653484  0.33532371  1
  O  O478  1  0.98140014  0.91613113  0.58500697  1
  O  O479  1  0.98258744  0.91691429  0.83726688  1
  O  O480  1  0.08546721  0.31582941  0.07853246  1
  O  O481  1  0.08764583  0.31495354  0.32759960  1
  O  O482  1  0.08795832  0.31605614  0.57684564  1
  O  O483  1  0.08600331  0.31425494  0.82761135  1
  O  O484  1  0.08686647  0.64742077  0.07747544  1
  O  O485  1  0.08473923  0.64882411  0.32643788  1
  O  O486  1  0.08671617  0.64851742  0.57790627  1
  O  O487  1  0.08906038  0.64867391  0.82830526  1
  O  O488  1  0.08583108  0.98165230  0.07715574  1
  O  O489  1  0.08412252  0.98183015  0.32649088  1
  O  O490  1  0.08528773  0.98083868  0.57635819  1
  O  O491  1  0.08584229  0.98243674  0.82832029  1
  O  O492  1  0.58697861  0.31519885  0.07806711  1
  O  O493  1  0.58753237  0.31514942  0.32782430  1
  O  O494  1  0.58851294  0.31497184  0.57768503  1
  O  O495  1  0.58860307  0.31595697  0.82795320  1
  O  O496  1  0.58870992  0.64733666  0.07674172  1
  O  O497  1  0.58738069  0.64855683  0.32742292  1
  O  O498  1  0.58912818  0.64718558  0.57645540  1
  O  O499  1  0.58716995  0.64928656  0.82850030  1
  O  O500  1  0.58888094  0.98265309  0.07830806  1
  O  O501  1  0.58812562  0.98160500  0.32670276  1
  O  O502  1  0.58814186  0.98276955  0.57798660  1
  O  O503  1  0.58690071  0.98027506  0.82804577  1
  O  O504  1  0.41453465  0.01913193  0.17276731  1
  O  O505  1  0.41527256  0.01760648  0.42224001  1
  O  O506  1  0.41425653  0.01983761  0.67274717  1
  O  O507  1  0.41334045  0.01677054  0.92253618  1
  O  O508  1  0.41373388  0.35099773  0.17250674  1
  O  O509  1  0.41342816  0.35153839  0.42182491  1
  O  O510  1  0.41491277  0.35053179  0.67249086  1
  O  O511  1  0.41391775  0.35284093  0.92253068  1
  O  O512  1  0.41191011  0.68477021  0.17291350  1
  O  O513  1  0.41362297  0.68537588  0.42177930  1
  O  O514  1  0.41301234  0.68465919  0.67283933  1
  O  O515  1  0.41348987  0.68476220  0.92265865  1
  O  O516  1  0.90990365  0.01842908  0.17222483  1
  O  O517  1  0.90982964  0.01723110  0.42186479  1
  O  O518  1  0.91124178  0.01794264  0.67072607  1
  O  O519  1  0.91242319  0.01877240  0.92282554  1
  O  O520  1  0.91255513  0.35225540  0.17335921  1
  O  O521  1  0.91144426  0.35255012  0.42295206  1
  O  O522  1  0.91351945  0.35241315  0.67246906  1
  O  O523  1  0.91410412  0.35079618  0.92220498  1
  O  O524  1  0.91012413  0.68431873  0.17157371  1
  O  O525  1  0.91073384  0.68454194  0.42162688  1
  O  O526  1  0.91372643  0.68427017  0.67269352  1
  O  O527  1  0.91351492  0.68528377  0.92354185  1
  O  O528  1  0.16278075  0.01817170  0.20271632  1
  O  O529  1  0.16284996  0.01964478  0.45175006  1
  O  O530  1  0.16150254  0.01803706  0.70234195  1
  O  O531  1  0.16103867  0.01748039  0.95223866  1
  O  O532  1  0.16428428  0.35195741  0.20167262  1
  O  O533  1  0.16247798  0.35016086  0.45315576  1
  O  O534  1  0.16035799  0.35271894  0.70175591  1
  O  O535  1  0.16017318  0.35186129  0.95239426  1
  O  O536  1  0.16440849  0.68477767  0.20263062  1
  O  O537  1  0.16165978  0.68500425  0.45241854  1
  O  O538  1  0.16089954  0.68367394  0.70278076  1
  O  O539  1  0.16016730  0.68534313  0.95259796  1
  O  O540  1  0.66319397  0.01718304  0.20210133  1
  O  O541  1  0.66205113  0.01912703  0.45165830  1
  O  O542  1  0.66202171  0.01913386  0.70194908  1
  O  O543  1  0.66482228  0.01820718  0.95298575  1
  O  O544  1  0.66316435  0.35155175  0.20172375  1
  O  O545  1  0.65987220  0.35191144  0.45244282  1
  O  O546  1  0.66123669  0.35028262  0.70350080  1
  O  O547  1  0.66069117  0.35340171  0.95281057  1
  O  O548  1  0.66391971  0.68574980  0.20241477  1
  O  O549  1  0.66213075  0.68372838  0.45171502  1
  O  O550  1  0.66230356  0.68514114  0.70307360  1
  O  O551  1  0.66432957  0.68391093  0.95204882  1
  O  O552  1  0.33790052  0.31485450  0.04794871  1
  O  O553  1  0.33970806  0.31670070  0.29703259  1
  O  O554  1  0.33867652  0.31471936  0.54867685  1
  O  O555  1  0.33762400  0.31564450  0.79736451  1
  O  O556  1  0.33600285  0.64836449  0.04680008  1
  O  O557  1  0.33890997  0.64824145  0.29775537  1
  O  O558  1  0.33801825  0.64825252  0.54784661  1
  O  O559  1  0.33582747  0.64816624  0.79888857  1
  O  O560  1  0.33572043  0.98157361  0.04742837  1
  O  O561  1  0.33934649  0.98040606  0.29843674  1
  O  O562  1  0.33793452  0.98218409  0.54759099  1
  O  O563  1  0.33764590  0.98119965  0.79863152  1
  O  O564  1  0.83963962  0.31487657  0.04790683  1
  O  O565  1  0.83731098  0.31587782  0.29716632  1
  O  O566  1  0.83459935  0.31452690  0.54824000  1
  O  O567  1  0.83565887  0.31557975  0.79897374  1
  O  O568  1  0.83720054  0.64888364  0.04756447  1
  O  O569  1  0.83896379  0.64783111  0.29719587  1
  O  O570  1  0.83673489  0.64793052  0.54819696  1
  O  O571  1  0.83819804  0.64761913  0.79750735  1
  O  O572  1  0.83983985  0.98121445  0.04736184  1
  O  O573  1  0.83723929  0.98195346  0.29730310  1
  O  O574  1  0.83798987  0.98282112  0.54679143  1
  O  O575  1  0.83962335  0.98187052  0.79738670  1
  O  O576  1  0.41467250  0.14933249  0.17215360  1
  O  O577  1  0.41501304  0.14790558  0.42250244  1
  O  O578  1  0.41500331  0.14997613  0.67246768  1
  O  O579  1  0.41262859  0.14717224  0.92240100  1
  O  O580  1  0.41350521  0.48103938  0.17315165  1
  O  O581  1  0.41341753  0.48184469  0.42210966  1
  O  O582  1  0.41456875  0.48065865  0.67280769  1
  O  O583  1  0.41419398  0.48300896  0.92258205  1
  O  O584  1  0.41217962  0.81484973  0.17308239  1
  O  O585  1  0.41375145  0.81573499  0.42131729  1
  O  O586  1  0.41295648  0.81478713  0.67268554  1
  O  O587  1  0.41362797  0.81507807  0.92266660  1
  O  O588  1  0.91004081  0.14871047  0.17240078  1
  O  O589  1  0.90928823  0.14729977  0.42295234  1
  O  O590  1  0.91139420  0.14831962  0.67168298  1
  O  O591  1  0.91229780  0.14881662  0.92266251  1
  O  O592  1  0.91289661  0.48225387  0.17277114  1
  O  O593  1  0.91112279  0.48274458  0.42194965  1
  O  O594  1  0.91430279  0.48264077  0.67253590  1
  O  O595  1  0.91410798  0.48079053  0.92292292  1
  O  O596  1  0.90996073  0.81458583  0.17168887  1
  O  O597  1  0.91039248  0.81488434  0.42145188  1
  O  O598  1  0.91331648  0.81456753  0.67228138  1
  O  O599  1  0.91336133  0.81519839  0.92291864  1
  O  O600  1  0.08505947  0.18572369  0.07781688  1
  O  O601  1  0.08749471  0.18473941  0.32739088  1
  O  O602  1  0.08803216  0.18592215  0.57585837  1
  O  O603  1  0.08546399  0.18409093  0.82757698  1
  O  O604  1  0.08659996  0.51731967  0.07810717  1
  O  O605  1  0.08532439  0.51878870  0.32668362  1
  O  O606  1  0.08668103  0.51821204  0.57766351  1
  O  O607  1  0.08938415  0.51835379  0.82826324  1
  O  O608  1  0.08582625  0.85158984  0.07728258  1
  O  O609  1  0.08430300  0.85169974  0.32653071  1
  O  O610  1  0.08513950  0.85063507  0.57710139  1
  O  O611  1  0.08627097  0.85208940  0.82845732  1
  O  O612  1  0.58681473  0.18504202  0.07765368  1
  O  O613  1  0.58771808  0.18496121  0.32780975  1
  O  O614  1  0.58842471  0.18482166  0.57760619  1
  O  O615  1  0.58925138  0.18581328  0.82749392  1
  O  O616  1  0.58817078  0.51728986  0.07773067  1
  O  O617  1  0.58741907  0.51835551  0.32778564  1
  O  O618  1  0.58829721  0.51710090  0.57720165  1
  O  O619  1  0.58762803  0.51911881  0.82868122  1
  O  O620  1  0.58919443  0.85232921  0.07773277  1
  O  O621  1  0.58800822  0.85152841  0.32628069  1
  O  O622  1  0.58831271  0.85254630  0.57724934  1
  O  O623  1  0.58637239  0.85008913  0.82819171  1
  O  O624  1  0.33780972  0.18490261  0.04797682  1
  O  O625  1  0.34060553  0.18642830  0.29796632  1
  O  O626  1  0.33854438  0.18480123  0.54857816  1
  O  O627  1  0.33765709  0.18539295  0.79724869  1
  O  O628  1  0.33561301  0.51835733  0.04707562  1
  O  O629  1  0.33907579  0.51804620  0.29771819  1
  O  O630  1  0.33783377  0.51796243  0.54791798  1
  O  O631  1  0.33602052  0.51813039  0.79883139  1
  O  O632  1  0.33602821  0.85155307  0.04716372  1
  O  O633  1  0.33826878  0.85029176  0.29778942  1
  O  O634  1  0.33796002  0.85187553  0.54766202  1
  O  O635  1  0.33723388  0.85120885  0.79867840  1
  O  O636  1  0.83918677  0.18470619  0.04748070  1
  O  O637  1  0.83820289  0.18546971  0.29630857  1
  O  O638  1  0.83418361  0.18445911  0.54769558  1
  O  O639  1  0.83652777  0.18568938  0.79849416  1
  O  O640  1  0.83683501  0.51892819  0.04854889  1
  O  O641  1  0.83888663  0.51757502  0.29740703  1
  O  O642  1  0.83652160  0.51793309  0.54826754  1
  O  O643  1  0.83797647  0.51756776  0.79751624  1
  O  O644  1  0.83992376  0.85093171  0.04678909  1
  O  O645  1  0.83745759  0.85182891  0.29752876  1
  O  O646  1  0.83886026  0.85264448  0.54779367  1
  O  O647  1  0.83949190  0.85191939  0.79798588  1
  O  O648  1  0.16341361  0.14836459  0.20223546  1
  O  O649  1  0.16336565  0.14995559  0.45248185  1
  O  O650  1  0.16160111  0.14824443  0.70238179  1
  O  O651  1  0.16052528  0.14762612  0.95173620  1
  O  O652  1  0.16384927  0.48189569  0.20219002  1
  O  O653  1  0.16234742  0.48045773  0.45213914  1
  O  O654  1  0.16092634  0.48284484  0.70273922  1
  O  O655  1  0.16052058  0.48205004  0.95315640  1
  O  O656  1  0.16430928  0.81483033  0.20255347  1
  O  O657  1  0.16178950  0.81521515  0.45237940  1
  O  O658  1  0.15989965  0.81390885  0.70178079  1
  O  O659  1  0.16052725  0.81546557  0.95230903  1
  O  O660  1  0.66259938  0.14727047  0.20157353  1
  O  O661  1  0.66246488  0.14927770  0.45199351  1
  O  O662  1  0.66187832  0.14921840  0.70303332  1
  O  O663  1  0.66468502  0.14833595  0.95321214  1
  O  O664  1  0.66232894  0.48142443  0.20213893  1
  O  O665  1  0.66064644  0.48214670  0.45228054  1
  O  O666  1  0.66020107  0.48042824  0.70233487  1
  O  O667  1  0.66194412  0.48359722  0.95334547  1
  O  O668  1  0.66439236  0.81590353  0.20248609  1
  O  O669  1  0.66157490  0.81383847  0.45130988  1
  O  O670  1  0.66283169  0.81538960  0.70295203  1
  O  O671  1  0.66419981  0.81385631  0.95136001  1
