# generated using pymatgen
data_Na2MnFe(PO4)2
_symmetry_space_group_name_H-M   'P 1'
_cell_length_a   21.08890440
_cell_length_b   18.94170101
_cell_length_c   20.04800181
_cell_angle_alpha   89.99947059
_cell_angle_beta   90.00030239
_cell_angle_gamma   90.00121265
_symmetry_Int_Tables_number   1
_chemical_formula_structural   Na2MnFe(PO4)2
_chemical_formula_sum   'Na96 Mn48 Fe48 P96 O384'
_cell_volume   8008.36922122
_cell_formula_units_Z   48
loop_
 _symmetry_equiv_pos_site_id
 _symmetry_equiv_pos_as_xyz
  1  'x, y, z'
loop_
 _atom_site_type_symbol
 _atom_site_label
 _atom_site_symmetry_multiplicity
 _atom_site_fract_x
 _atom_site_fract_y
 _atom_site_fract_z
 _atom_site_occupancy
  Na  Na0  1  -0.00036626  -0.00006992  -0.00084430  1
  Na  Na1  1  -0.00022616  0.00002608  0.25078517  1
  Na  Na2  1  0.00044457  0.00076710  0.50013160  1
  Na  Na3  1  0.00026572  0.00036648  0.75007742  1
  Na  Na4  1  0.00141001  0.33406012  -0.00074144  1
  Na  Na5  1  -0.00029450  0.33340828  0.24898006  1
  Na  Na6  1  0.00120839  0.33397749  0.50112121  1
  Na  Na7  1  -0.00059855  0.33277515  0.75038935  1
  Na  Na8  1  -0.00169825  0.66622795  -0.00002391  1
  Na  Na9  1  -0.00096466  0.66688765  0.25096186  1
  Na  Na10  1  0.00082257  0.66682173  0.49980947  1
  Na  Na11  1  0.00229131  0.66722117  0.74904740  1
  Na  Na12  1  0.49888146  0.00025057  0.00007379  1
  Na  Na13  1  0.49993174  0.00032566  0.24882455  1
  Na  Na14  1  0.49700176  -0.00106652  0.50045985  1
  Na  Na15  1  0.49722868  0.00002387  0.75054999  1
  Na  Na16  1  0.49927737  0.33292894  -0.00104242  1
  Na  Na17  1  0.49872518  0.33261965  0.25074743  1
  Na  Na18  1  0.50158523  0.33417678  0.50021694  1
  Na  Na19  1  0.50004876  0.33288883  0.75038382  1
  Na  Na20  1  0.49975840  0.66628010  -0.00016522  1
  Na  Na21  1  0.50142921  0.66756848  0.24902927  1
  Na  Na22  1  0.49935404  0.66590740  0.50103321  1
  Na  Na23  1  0.50028586  0.66663650  0.75059315  1
  Na  Na24  1  0.25031838  0.00038057  0.12498164  1
  Na  Na25  1  0.25219858  0.00025471  0.37595197  1
  Na  Na26  1  0.25098378  0.00085520  0.62472320  1
  Na  Na27  1  0.24875004  0.00031866  0.87491120  1
  Na  Na28  1  0.24911911  0.33335594  0.12434613  1
  Na  Na29  1  0.24925221  0.33339699  0.37402302  1
  Na  Na30  1  0.24983292  0.33374829  0.62548591  1
  Na  Na31  1  0.24905801  0.33324181  0.87602901  1
  Na  Na32  1  0.24893029  0.66692073  0.12580498  1
  Na  Na33  1  0.24872622  0.66624093  0.37523782  1
  Na  Na34  1  0.24815134  0.66549730  0.62440682  1
  Na  Na35  1  0.24947447  0.66716436  0.87459472  1
  Na  Na36  1  0.75188285  0.00030585  0.12389255  1
  Na  Na37  1  0.74935941  -0.00097979  0.37471334  1
  Na  Na38  1  0.75151487  0.00071778  0.62533042  1
  Na  Na39  1  0.75201420  0.00050295  0.87571080  1
  Na  Na40  1  0.75176859  0.33312272  0.12491448  1
  Na  Na41  1  0.75055954  0.33348510  0.37581421  1
  Na  Na42  1  0.74773706  0.33229096  0.62434880  1
  Na  Na43  1  0.75213340  0.33413794  0.87489820  1
  Na  Na44  1  0.75173089  0.66727356  0.12580960  1
  Na  Na45  1  0.75094036  0.66720495  0.37381658  1
  Na  Na46  1  0.75044262  0.66682557  0.62514083  1
  Na  Na47  1  0.75060226  0.66618859  0.87483304  1
  Na  Na48  1  0.00247867  0.16573446  -0.00082770  1
  Na  Na49  1  -0.00041209  0.16677836  0.25016320  1
  Na  Na50  1  -0.00088549  0.16755904  0.50032599  1
  Na  Na51  1  0.00213389  0.16646090  0.75043021  1
  Na  Na52  1  -0.00037124  0.49938863  -0.00080551  1
  Na  Na53  1  0.00006158  0.49961325  0.25057384  1
  Na  Na54  1  0.00017576  0.50002371  0.50009302  1
  Na  Na55  1  -0.00052681  0.50004266  0.74992126  1
  Na  Na56  1  -0.00189891  0.83391581  0.00011825  1
  Na  Na57  1  -0.00094383  0.83285227  0.25017256  1
  Na  Na58  1  0.00114679  0.83267911  0.50043309  1
  Na  Na59  1  0.00072083  0.83299869  0.74902457  1
  Na  Na60  1  0.49884851  0.16739541  -0.00117010  1
  Na  Na61  1  0.49914120  0.16751308  0.24978702  1
  Na  Na62  1  0.50044258  0.16655434  0.50131255  1
  Na  Na63  1  0.49859187  0.16707942  0.75014069  1
  Na  Na64  1  0.50021911  0.49913256  -0.00065475  1
  Na  Na65  1  0.49732350  0.50093382  0.24997521  1
  Na  Na66  1  0.49884570  0.50030704  0.50029168  1
  Na  Na67  1  0.49999893  0.49980923  0.75072400  1
  Na  Na68  1  0.49968873  0.83350693  0.00077893  1
  Na  Na69  1  0.50202316  0.83265941  0.24863473  1
  Na  Na70  1  0.49878266  0.83380634  0.50026525  1
  Na  Na71  1  0.49906118  0.83331139  0.75061994  1
  Na  Na72  1  0.24879023  0.16718106  0.12426405  1
  Na  Na73  1  0.25175340  0.16580900  0.37434327  1
  Na  Na74  1  0.24972428  0.16672684  0.62597460  1
  Na  Na75  1  0.25004367  0.16616945  0.87563421  1
  Na  Na76  1  0.25010461  0.49936615  0.12511948  1
  Na  Na77  1  0.25034883  0.49985215  0.37491801  1
  Na  Na78  1  0.24974965  0.49974191  0.62495099  1
  Na  Na79  1  0.24764819  0.50056551  0.87537677  1
  Na  Na80  1  0.24961666  0.83271468  0.12580403  1
  Na  Na81  1  0.24966280  0.83274006  0.37566400  1
  Na  Na82  1  0.24881216  0.83371781  0.62374800  1
  Na  Na83  1  0.24854621  0.83361066  0.87468151  1
  Na  Na84  1  0.75101584  0.16743852  0.12468329  1
  Na  Na85  1  0.75177851  0.16602686  0.37500193  1
  Na  Na86  1  0.74889601  0.16746842  0.62451451  1
  Na  Na87  1  0.75030114  0.16741516  0.87501653  1
  Na  Na88  1  0.75353870  0.49842153  0.12495152  1
  Na  Na89  1  0.75079747  0.50030820  0.37555618  1
  Na  Na90  1  0.75107151  0.49946528  0.62471438  1
  Na  Na91  1  0.75039071  0.50017525  0.87467408  1
  Na  Na92  1  0.75043947  0.83362445  0.12481476  1
  Na  Na93  1  0.74940702  0.83309113  0.37366507  1
  Na  Na94  1  0.75023234  0.83309346  0.62570054  1
  Na  Na95  1  0.75344506  0.83236687  0.87594605  1
  Mn  Mn96  1  0.39206011  0.58277459  0.12701291  1
  Mn  Mn97  1  0.60723917  0.08310109  0.62375600  1
  Mn  Mn98  1  0.60761883  0.41760197  0.37207007  1
  Mn  Mn99  1  0.39064704  0.91671503  0.87756174  1
  Mn  Mn100  1  0.85844349  0.74998368  0.75211240  1
  Mn  Mn101  1  0.39245130  0.91676913  0.12733705  1
  Mn  Mn102  1  0.39161659  0.58329390  0.87702156  1
  Mn  Mn103  1  0.35754559  0.74979954  0.50201346  1
  Mn  Mn104  1  0.64128305  0.91641727  0.49818058  1
  Mn  Mn105  1  0.60718548  0.08316905  0.87263449  1
  Mn  Mn106  1  0.35801156  0.08334013  0.25195427  1
  Mn  Mn107  1  0.14139873  0.91683053  0.99837404  1
  Mn  Mn108  1  0.64359025  0.58255042  0.99836335  1
  Mn  Mn109  1  0.14188663  0.24987165  0.24762154  1
  Mn  Mn110  1  0.64355048  0.91718681  0.99733068  1
  Mn  Mn111  1  0.85774960  0.08270361  0.50265370  1
  Mn  Mn112  1  0.10755269  0.74997254  0.87288545  1
  Mn  Mn113  1  0.14226614  0.25030737  0.49736035  1
  Mn  Mn114  1  0.60820353  0.41656549  0.12340581  1
  Mn  Mn115  1  0.89233283  0.58323870  0.87665115  1
  Mn  Mn116  1  0.35755534  0.41632881  0.50236709  1
  Mn  Mn117  1  0.14190629  0.58326850  0.24761434  1
  Mn  Mn118  1  0.89210114  0.25025411  0.62780603  1
  Mn  Mn119  1  0.39212948  0.24994245  0.37782082  1
  Mn  Mn120  1  0.89167722  0.91697196  0.37764488  1
  Mn  Mn121  1  0.89270255  0.58287155  0.37771804  1
  Mn  Mn122  1  0.10802798  0.08364734  0.37278105  1
  Mn  Mn123  1  0.89278258  0.91661924  0.62735984  1
  Mn  Mn124  1  0.39240500  0.25040477  0.62786405  1
  Mn  Mn125  1  0.89323863  0.24969785  0.12694254  1
  Mn  Mn126  1  0.85896634  0.08387079  0.00226746  1
  Mn  Mn127  1  0.14113878  0.58337548  0.99811980  1
  Mn  Mn128  1  0.64305657  0.24973587  0.24766823  1
  Mn  Mn129  1  0.10785617  0.41667843  0.62321476  1
  Mn  Mn130  1  0.14298576  0.91669105  0.49748169  1
  Mn  Mn131  1  0.35682071  0.41680437  0.00238330  1
  Mn  Mn132  1  0.60757252  0.74989940  0.62285651  1
  Mn  Mn133  1  0.60760011  0.08246178  0.37253500  1
  Mn  Mn134  1  0.35811532  0.74941213  0.25260524  1
  Mn  Mn135  1  0.64277980  0.58295782  0.24769177  1
  Mn  Mn136  1  0.64263869  0.91716807  0.74825636  1
  Mn  Mn137  1  0.60831199  0.41644188  0.87262282  1
  Mn  Mn138  1  0.85770341  0.41710656  0.50252082  1
  Mn  Mn139  1  0.14202202  0.91679537  0.24796173  1
  Mn  Mn140  1  0.64206093  0.58366823  0.49810124  1
  Mn  Mn141  1  0.60813670  0.75028238  0.87365674  1
  Mn  Mn142  1  0.35646800  0.74987581  0.75213099  1
  Mn  Mn143  1  0.60824493  0.08416659  0.12264882  1
  Fe  Fe144  1  0.39337483  0.91588553  0.37591432  1
  Fe  Fe145  1  0.60808819  0.74963463  0.12248555  1
  Fe  Fe146  1  0.10601200  0.75011156  0.12351491  1
  Fe  Fe147  1  0.14196286  0.91690334  0.74767294  1
  Fe  Fe148  1  0.60755437  0.74999453  0.37357806  1
  Fe  Fe149  1  0.64297031  0.25017518  0.74908015  1
  Fe  Fe150  1  0.35677672  0.41674688  0.25144756  1
  Fe  Fe151  1  0.85825037  0.08433593  0.75157687  1
  Fe  Fe152  1  0.64307236  0.91693857  0.24812700  1
  Fe  Fe153  1  0.85685778  0.41608447  0.75124330  1
  Fe  Fe154  1  0.10719933  0.41675020  0.37292324  1
  Fe  Fe155  1  0.89303781  0.58351470  0.12682542  1
  Fe  Fe156  1  0.10746848  0.08352789  0.87266167  1
  Fe  Fe157  1  0.60716420  0.41710916  0.62424381  1
  Fe  Fe158  1  0.10671047  0.41630322  0.87258272  1
  Fe  Fe159  1  0.64275689  0.24962040  0.49802073  1
  Fe  Fe160  1  0.35583958  0.08403513  0.75207065  1
  Fe  Fe161  1  0.85836124  0.74932763  0.00252158  1
  Fe  Fe162  1  0.14302547  0.25015053  0.74896521  1
  Fe  Fe163  1  0.39221578  0.25030417  0.12594699  1
  Fe  Fe164  1  0.85814419  0.08342527  0.25150538  1
  Fe  Fe165  1  0.85754633  0.75009872  0.50133475  1
  Fe  Fe166  1  0.39169517  0.91587810  0.62758099  1
  Fe  Fe167  1  0.89331901  0.58349496  0.62662712  1
  Fe  Fe168  1  0.10688735  0.41684178  0.12333300  1
  Fe  Fe169  1  0.35695360  0.41625001  0.75174400  1
  Fe  Fe170  1  0.85831369  0.41669511  0.00152940  1
  Fe  Fe171  1  0.85693614  0.75035119  0.25200084  1
  Fe  Fe172  1  0.14259310  0.58276263  0.49828190  1
  Fe  Fe173  1  0.10672360  0.74990311  0.37307042  1
  Fe  Fe174  1  0.39191510  0.25015368  0.87677256  1
  Fe  Fe175  1  0.10716172  0.08286748  0.12357439  1
  Fe  Fe176  1  0.14236860  0.58304346  0.74750111  1
  Fe  Fe177  1  0.39259334  0.58432853  0.37679970  1
  Fe  Fe178  1  0.64287845  0.58267916  0.74797662  1
  Fe  Fe179  1  0.10772527  0.08316664  0.62322028  1
  Fe  Fe180  1  0.35696513  0.75033885  0.00198486  1
  Fe  Fe181  1  0.85876623  0.41623027  0.25218836  1
  Fe  Fe182  1  0.39208116  0.58323668  0.62751095  1
  Fe  Fe183  1  0.89284526  0.25030229  0.37658403  1
  Fe  Fe184  1  0.35773141  0.08367434  0.50227472  1
  Fe  Fe185  1  0.14259028  0.24978703  0.99794979  1
  Fe  Fe186  1  0.89331291  0.24967886  0.87628219  1
  Fe  Fe187  1  0.10734614  0.75009624  0.62276519  1
  Fe  Fe188  1  0.64286762  0.25036990  0.99802038  1
  Fe  Fe189  1  0.35603863  0.08312340  0.00185354  1
  Fe  Fe190  1  0.89357297  0.91731062  0.87594554  1
  Fe  Fe191  1  0.89295317  0.91642784  0.12718371  1
  P  P192  1  0.05423889  0.24991842  0.10923137  1
  P  P193  1  0.05228960  0.25094948  0.35996362  1
  P  P194  1  0.05491201  0.24926551  0.61161590  1
  P  P195  1  0.05449972  0.25022028  0.86081034  1
  P  P196  1  0.05173219  0.58356818  0.11045489  1
  P  P197  1  0.05471220  0.58311928  0.36142586  1
  P  P198  1  0.05439872  0.58355257  0.61033174  1
  P  P199  1  0.05377171  0.58248780  0.85908392  1
  P  P200  1  0.05175519  0.91643384  0.11051427  1
  P  P201  1  0.05321056  0.91599701  0.36025850  1
  P  P202  1  0.05513039  0.91722005  0.61101120  1
  P  P203  1  0.05313208  0.91727177  0.85941067  1
  P  P204  1  0.55274722  0.25046721  0.10898713  1
  P  P205  1  0.55449175  0.24969044  0.36103532  1
  P  P206  1  0.55549200  0.25095728  0.61134003  1
  P  P207  1  0.55363233  0.24989697  0.86038147  1
  P  P208  1  0.55371557  0.58341263  0.10978154  1
  P  P209  1  0.55223447  0.58437931  0.35996914  1
  P  P210  1  0.55315316  0.58220879  0.61171787  1
  P  P211  1  0.55442360  0.58320165  0.85962292  1
  P  P212  1  0.55553768  0.91644258  0.11073323  1
  P  P213  1  0.55290347  0.91576078  0.35921892  1
  P  P214  1  0.55132676  0.91695401  0.61066625  1
  P  P215  1  0.55266058  0.91682632  0.86017611  1
  P  P216  1  0.44539157  0.08467376  0.13825342  1
  P  P217  1  0.44601203  0.08240955  0.39064376  1
  P  P218  1  0.44414683  0.08286285  0.64016086  1
  P  P219  1  0.44350510  0.08438166  0.88939054  1
  P  P220  1  0.44585356  0.41537535  0.14040621  1
  P  P221  1  0.44521897  0.41773995  0.38901407  1
  P  P222  1  0.44677269  0.41717926  0.64102592  1
  P  P223  1  0.44496859  0.41585291  0.88873567  1
  P  P224  1  0.44677153  0.74989691  0.13875789  1
  P  P225  1  0.44804909  0.75000243  0.38976043  1
  P  P226  1  0.44587308  0.74961034  0.64031916  1
  P  P227  1  0.44549642  0.74991907  0.89102022  1
  P  P228  1  0.94772623  0.08260847  0.14025660  1
  P  P229  1  0.94553062  0.08439159  0.38922078  1
  P  P230  1  0.94765106  0.08363694  0.64086339  1
  P  P231  1  0.94696873  0.08407093  0.88813444  1
  P  P232  1  0.94639528  0.41731997  0.13899764  1
  P  P233  1  0.94698164  0.41559882  0.38929745  1
  P  P234  1  0.94604691  0.41752750  0.64074396  1
  P  P235  1  0.94568257  0.41562792  0.88863907  1
  P  P236  1  0.94564080  0.74983153  0.13961060  1
  P  P237  1  0.94589652  0.75010502  0.38974526  1
  P  P238  1  0.94704760  0.74905605  0.63833636  1
  P  P239  1  0.94619741  0.75054698  0.89016051  1
  P  P240  1  0.19623810  0.08314611  0.23413798  1
  P  P241  1  0.19731705  0.08351494  0.48599862  1
  P  P242  1  0.19533404  0.08375747  0.73596132  1
  P  P243  1  0.19490609  0.08374510  0.98569463  1
  P  P244  1  0.19567726  0.41674542  0.23512689  1
  P  P245  1  0.19574514  0.41746190  0.48430212  1
  P  P246  1  0.19633063  0.41625058  0.73652968  1
  P  P247  1  0.19372213  0.41599994  0.98567726  1
  P  P248  1  0.19467319  0.74996950  0.23558882  1
  P  P249  1  0.19452057  0.74886495  0.48541738  1
  P  P250  1  0.19511656  0.75006003  0.73405634  1
  P  P251  1  0.19600215  0.75023024  0.98640553  1
  P  P252  1  0.69861003  0.08271767  0.23484840  1
  P  P253  1  0.69628641  0.08349140  0.48508134  1
  P  P254  1  0.69830751  0.08423899  0.73558309  1
  P  P255  1  0.69710151  0.08466122  0.98483989  1
  P  P256  1  0.69913216  0.41659300  0.23516416  1
  P  P257  1  0.69504727  0.41656542  0.48618814  1
  P  P258  1  0.69720309  0.41634746  0.73486199  1
  P  P259  1  0.69837868  0.41572456  0.98514037  1
  P  P260  1  0.69579485  0.75061696  0.23548690  1
  P  P261  1  0.69740760  0.74982330  0.48415140  1
  P  P262  1  0.69686092  0.74945859  0.73543147  1
  P  P263  1  0.69803436  0.74962082  0.98628400  1
  P  P264  1  0.30334914  0.24926514  0.01410304  1
  P  P265  1  0.30432538  0.25090446  0.26344144  1
  P  P266  1  0.30324356  0.24963528  0.51549045  1
  P  P267  1  0.30259409  0.25029103  0.76558231  1
  P  P268  1  0.30246351  0.58422831  0.01518206  1
  P  P269  1  0.30382886  0.58259479  0.26562973  1
  P  P270  1  0.30377324  0.58338046  0.51452529  1
  P  P271  1  0.30261006  0.58241178  0.76375996  1
  P  P272  1  0.30277936  0.91671612  0.01523359  1
  P  P273  1  0.30391151  0.91622631  0.26600492  1
  P  P274  1  0.30576041  0.91695505  0.51419281  1
  P  P275  1  0.30206657  0.91721538  0.76364670  1
  P  P276  1  0.80433668  0.25082309  0.01348324  1
  P  P277  1  0.80502792  0.24998942  0.26549339  1
  P  P278  1  0.80352040  0.25010848  0.51401487  1
  P  P279  1  0.80319823  0.25028552  0.76529547  1
  P  P280  1  0.80519123  0.58293806  0.01516688  1
  P  P281  1  0.80554284  0.58330687  0.26374922  1
  P  P282  1  0.80432009  0.58457433  0.51556737  1
  P  P283  1  0.80363993  0.58227947  0.76351324  1
  P  P284  1  0.80666161  0.91615034  0.01437361  1
  P  P285  1  0.80396443  0.91662594  0.26333656  1
  P  P286  1  0.80299746  0.91526329  0.51521839  1
  P  P287  1  0.80465503  0.91773824  0.76580513  1
  O  O288  1  0.05651535  0.24997381  0.18600916  1
  O  O289  1  0.05587610  0.25038698  0.43671647  1
  O  O290  1  0.05926089  0.25007775  0.68832307  1
  O  O291  1  0.05871143  0.25003235  0.93747300  1
  O  O292  1  0.05518262  0.58350996  0.18711814  1
  O  O293  1  0.05838101  0.58290620  0.43816795  1
  O  O294  1  0.05898480  0.58270274  0.68707433  1
  O  O295  1  0.05625870  0.58324099  0.93604773  1
  O  O296  1  0.05531938  0.91641765  0.18712756  1
  O  O297  1  0.05671123  0.91674741  0.43701732  1
  O  O298  1  0.05859496  0.91718197  0.68781264  1
  O  O299  1  0.05633755  0.91674377  0.93613156  1
  O  O300  1  0.55701282  0.25021923  0.18574399  1
  O  O301  1  0.55898477  0.24970542  0.43776957  1
  O  O302  1  0.55969838  0.24983911  0.68815884  1
  O  O303  1  0.55888180  0.25019481  0.93700716  1
  O  O304  1  0.55692026  0.58296395  0.18654542  1
  O  O305  1  0.55585999  0.58338567  0.43668986  1
  O  O306  1  0.55859231  0.58274196  0.68830484  1
  O  O307  1  0.55806567  0.58273603  0.93640622  1
  O  O308  1  0.55996105  0.91725161  0.18750815  1
  O  O309  1  0.55584567  0.91668228  0.43599025  1
  O  O310  1  0.55580880  0.91728777  0.68728613  1
  O  O311  1  0.55678336  0.91714301  0.93689946  1
  O  O312  1  0.44087088  0.08385289  0.06156392  1
  O  O313  1  0.44341180  0.08367070  0.31380157  1
  O  O314  1  0.44065816  0.08390330  0.56336967  1
  O  O315  1  0.43899885  0.08371668  0.81260815  1
  O  O316  1  0.44280931  0.41620437  0.06359493  1
  O  O317  1  0.44091811  0.41668808  0.31234500  1
  O  O318  1  0.44317794  0.41657502  0.56428183  1
  O  O319  1  0.44039883  0.41629114  0.81201911  1
  O  O320  1  0.44115652  0.74993672  0.06217103  1
  O  O321  1  0.44493559  0.74987003  0.31306884  1
  O  O322  1  0.44307338  0.74942877  0.56356382  1
  O  O323  1  0.44186171  0.74988801  0.81426421  1
  O  O324  1  0.94453805  0.08344780  0.06347729  1
  O  O325  1  0.94132420  0.08329343  0.31247713  1
  O  O326  1  0.94350308  0.08389126  0.56414175  1
  O  O327  1  0.94225557  0.08456757  0.81154134  1
  O  O328  1  0.94209766  0.41656089  0.06228968  1
  O  O329  1  0.94250857  0.41622499  0.31257977  1
  O  O330  1  0.94313158  0.41662835  0.56390954  1
  O  O331  1  0.94076664  0.41616776  0.81197636  1
  O  O332  1  0.94167338  0.74976989  0.06285408  1
  O  O333  1  0.94074905  0.75032453  0.31307874  1
  O  O334  1  0.94229186  0.74966072  0.56174307  1
  O  O335  1  0.94381820  0.74966299  0.81324492  1
  O  O336  1  0.19013390  0.08283409  0.06235974  1
  O  O337  1  0.19329615  0.08305192  0.31096995  1
  O  O338  1  0.19230679  0.08356400  0.56261376  1
  O  O339  1  0.19085918  0.08335630  0.81275644  1
  O  O340  1  0.18964820  0.41699791  0.06243632  1
  O  O341  1  0.19087725  0.41663937  0.31182715  1
  O  O342  1  0.19280734  0.41682144  0.56098571  1
  O  O343  1  0.19165045  0.41649787  0.81328485  1
  O  O344  1  0.19032922  0.75010189  0.06299670  1
  O  O345  1  0.19020786  0.74998207  0.31234357  1
  O  O346  1  0.19054400  0.74965774  0.56217815  1
  O  O347  1  0.19269217  0.75019800  0.81096260  1
  O  O348  1  0.69397553  0.08409504  0.06160155  1
  O  O349  1  0.69449369  0.08287695  0.31148543  1
  O  O350  1  0.69297892  0.08301815  0.56189157  1
  O  O351  1  0.69429093  0.08346734  0.81218718  1
  O  O352  1  0.69462469  0.41596126  0.06188512  1
  O  O353  1  0.69453709  0.41719893  0.31180815  1
  O  O354  1  0.69088458  0.41734402  0.56292870  1
  O  O355  1  0.69421012  0.41675732  0.81129319  1
  O  O356  1  0.69286688  0.74975890  0.06298501  1
  O  O357  1  0.69094050  0.74988558  0.31216252  1
  O  O358  1  0.69325307  0.74986892  0.56090359  1
  O  O359  1  0.69402879  0.74985239  0.81213644  1
  O  O360  1  0.30794594  0.25048176  0.18674523  1
  O  O361  1  0.30626986  0.25011448  0.43859971  1
  O  O362  1  0.30617691  0.25062534  0.68906435  1
  O  O363  1  0.30779507  0.25014703  0.93743066  1
  O  O364  1  0.30688520  0.58359625  0.18886232  1
  O  O365  1  0.30883639  0.58391867  0.43786212  1
  O  O366  1  0.30764537  0.58267455  0.68711902  1
  O  O367  1  0.30538818  0.58376457  0.93839369  1
  O  O368  1  0.30702152  0.91604901  0.18921764  1
  O  O369  1  0.31001396  0.91567474  0.43748320  1
  O  O370  1  0.30694512  0.91650809  0.68701684  1
  O  O371  1  0.30490387  0.91655153  0.93835940  1
  O  O372  1  0.80805531  0.25007570  0.18857800  1
  O  O373  1  0.80870721  0.25036281  0.43751033  1
  O  O374  1  0.80625427  0.24994003  0.68838972  1
  O  O375  1  0.80932556  0.24995946  0.93692073  1
  O  O376  1  0.80949267  0.58311016  0.18694972  1
  O  O377  1  0.80739481  0.58368457  0.43882129  1
  O  O378  1  0.80863079  0.58331274  0.68663495  1
  O  O379  1  0.80735449  0.58318752  0.93889104  1
  O  O380  1  0.80878746  0.91671115  0.18665246  1
  O  O381  1  0.80587431  0.91579485  0.43843831  1
  O  O382  1  0.80741633  0.91702810  0.68896893  1
  O  O383  1  0.81099911  0.91702849  0.93764949  1
  O  O384  1  0.23292131  0.24984752  0.03767121  1
  O  O385  1  0.23446587  0.24979815  0.28825935  1
  O  O386  1  0.23363796  0.25024361  0.54067935  1
  O  O387  1  0.23244770  0.24981658  0.79020175  1
  O  O388  1  0.23284874  0.58322879  0.04057536  1
  O  O389  1  0.23401767  0.58315617  0.29031851  1
  O  O390  1  0.23327880  0.58296511  0.53772839  1
  O  O391  1  0.23217529  0.58338156  0.78732804  1
  O  O392  1  0.23334264  0.91680028  0.04109649  1
  O  O393  1  0.23424652  0.91661976  0.29107368  1
  O  O394  1  0.23557648  0.91682291  0.53797893  1
  O  O395  1  0.23171495  0.91701937  0.78747096  1
  O  O396  1  0.73415931  0.25050385  0.03761025  1
  O  O397  1  0.73530471  0.25004832  0.29052049  1
  O  O398  1  0.73315967  0.24997267  0.53751851  1
  O  O399  1  0.73315397  0.25072359  0.78995803  1
  O  O400  1  0.73563738  0.58277843  0.04142062  1
  O  O401  1  0.73565910  0.58358426  0.28841984  1
  O  O402  1  0.73458585  0.58348456  0.54044610  1
  O  O403  1  0.73336109  0.58261292  0.78729376  1
  O  O404  1  0.73651738  0.91712091  0.03815422  1
  O  O405  1  0.73365569  0.91623008  0.28725634  1
  O  O406  1  0.73349414  0.91619225  0.54079516  1
  O  O407  1  0.73509898  0.91659922  0.79134231  1
  O  O408  1  0.26592917  0.08358330  0.20925470  1
  O  O409  1  0.26762320  0.08317419  0.46235887  1
  O  O410  1  0.26580123  0.08406591  0.71244659  1
  O  O411  1  0.26530076  0.08321854  0.96219007  1
  O  O412  1  0.26597577  0.41686756  0.21148274  1
  O  O413  1  0.26548622  0.41661960  0.45937339  1
  O  O414  1  0.26653069  0.41622480  0.71233500  1
  O  O415  1  0.26383525  0.41680922  0.96183228  1
  O  O416  1  0.26488709  0.74958729  0.21211018  1
  O  O417  1  0.26464829  0.74954556  0.46143799  1
  O  O418  1  0.26468564  0.74968876  0.70852110  1
  O  O419  1  0.26626388  0.75053033  0.96270389  1
  O  O420  1  0.76872304  0.08353910  0.21030350  1
  O  O421  1  0.76602855  0.08283378  0.46017191  1
  O  O422  1  0.76837234  0.08439007  0.71091213  1
  O  O423  1  0.76693747  0.08420245  0.96015667  1
  O  O424  1  0.76936386  0.41598920  0.21131641  1
  O  O425  1  0.76515986  0.41710230  0.46210461  1
  O  O426  1  0.76722288  0.41573995  0.70967547  1
  O  O427  1  0.76840222  0.41681166  0.96057498  1
  O  O428  1  0.76639668  0.75028277  0.21230148  1
  O  O429  1  0.76747282  0.74989290  0.45980273  1
  O  O430  1  0.76662392  0.74986325  0.71029077  1
  O  O431  1  0.76844268  0.74928657  0.96294828  1
  O  O432  1  0.01776077  0.08333553  0.16494788  1
  O  O433  1  0.01546992  0.08397999  0.41365504  1
  O  O434  1  0.01776684  0.08314786  0.66489469  1
  O  O435  1  0.01735541  0.08370043  0.91192231  1
  O  O436  1  0.01676865  0.41651568  0.16284768  1
  O  O437  1  0.01712092  0.41668284  0.41351175  1
  O  O438  1  0.01571907  0.41661925  0.66559654  1
  O  O439  1  0.01622249  0.41630859  0.91197344  1
  O  O440  1  0.01591238  0.74991872  0.16377450  1
  O  O441  1  0.01636363  0.74981810  0.41291487  1
  O  O442  1  0.01736183  0.74979731  0.66213510  1
  O  O443  1  0.01590416  0.74990777  0.91549370  1
  O  O444  1  0.51536542  0.08429774  0.16263795  1
  O  O445  1  0.51559365  0.08276644  0.41612191  1
  O  O446  1  0.51416713  0.08352179  0.66469682  1
  O  O447  1  0.51367648  0.08360661  0.91311797  1
  O  O448  1  0.51549100  0.41652676  0.16577187  1
  O  O449  1  0.51513828  0.41733836  0.41343932  1
  O  O450  1  0.51685328  0.41657023  0.66552657  1
  O  O451  1  0.51501358  0.41617796  0.91264706  1
  O  O452  1  0.51729094  0.74997833  0.16178154  1
  O  O453  1  0.51779847  0.74992329  0.41535850  1
  O  O454  1  0.51548205  0.74984391  0.66572555  1
  O  O455  1  0.51536057  0.74987183  0.91557137  1
  O  O456  1  0.48259543  0.25032832  0.08484936  1
  O  O457  1  0.48434335  0.24974240  0.33729565  1
  O  O458  1  0.48537178  0.25046097  0.58746682  1
  O  O459  1  0.48309600  0.24990438  0.83720456  1
  O  O460  1  0.48404247  0.58287078  0.08464915  1
  O  O461  1  0.48229308  0.58445178  0.33515695  1
  O  O462  1  0.48272940  0.58274649  0.58826520  1
  O  O463  1  0.48439558  0.58325508  0.83542625  1
  O  O464  1  0.48539746  0.91660523  0.08690475  1
  O  O465  1  0.48301718  0.91628114  0.33405403  1
  O  O466  1  0.48118962  0.91642475  0.58663458  1
  O  O467  1  0.48267367  0.91676754  0.83597278  1
  O  O468  1  0.98458994  0.24981572  0.08365862  1
  O  O469  1  0.98253013  0.25034314  0.33484150  1
  O  O470  1  0.98482203  0.25029404  0.58749240  1
  O  O471  1  0.98419736  0.24996573  0.83677106  1
  O  O472  1  0.98184420  0.58341460  0.08534851  1
  O  O473  1  0.98485820  0.58318822  0.33682349  1
  O  O474  1  0.98407047  0.58307787  0.58653418  1
  O  O475  1  0.98427153  0.58337476  0.83396434  1
  O  O476  1  0.98181245  0.91648015  0.08556803  1
  O  O477  1  0.98348846  0.91632263  0.33542738  1
  O  O478  1  0.98531150  0.91705667  0.58614211  1
  O  O479  1  0.98308421  0.91690168  0.83473541  1
  O  O480  1  0.08841804  0.31505077  0.07707645  1
  O  O481  1  0.08605039  0.31612168  0.32747132  1
  O  O482  1  0.08874636  0.31405054  0.57842480  1
  O  O483  1  0.08778724  0.31540276  0.82749611  1
  O  O484  1  0.08543452  0.64874213  0.07778064  1
  O  O485  1  0.08819476  0.64831010  0.32857777  1
  O  O486  1  0.08778653  0.64861697  0.57729839  1
  O  O487  1  0.08867048  0.64717312  0.82681163  1
  O  O488  1  0.08557393  0.98152372  0.07779890  1
  O  O489  1  0.08730861  0.98099769  0.32767198  1
  O  O490  1  0.08872911  0.98252252  0.57836658  1
  O  O491  1  0.08708748  0.98233843  0.82693238  1
  O  O492  1  0.58653494  0.31563188  0.07627465  1
  O  O493  1  0.58786664  0.31470997  0.32774204  1
  O  O494  1  0.58870460  0.31641280  0.57874145  1
  O  O495  1  0.58712924  0.31471977  0.82689426  1
  O  O496  1  0.58772123  0.64862902  0.07760575  1
  O  O497  1  0.58638984  0.64948022  0.32788382  1
  O  O498  1  0.58653460  0.64713791  0.57803700  1
  O  O499  1  0.58844024  0.64826185  0.82720288  1
  O  O500  1  0.58883332  0.98151431  0.07740762  1
  O  O501  1  0.58738212  0.98048863  0.32626710  1
  O  O502  1  0.58459590  0.98208734  0.57749119  1
  O  O503  1  0.58627168  0.98186981  0.82717466  1
  O  O504  1  0.41180538  0.01973508  0.17164594  1
  O  O505  1  0.41194443  0.01692233  0.42209515  1
  O  O506  1  0.41045348  0.01758292  0.67256354  1
  O  O507  1  0.40941811  0.01969946  0.92281071  1
  O  O508  1  0.41213544  0.34989216  0.17239784  1
  O  O509  1  0.41157072  0.35288123  0.42262605  1
  O  O510  1  0.41252317  0.35236216  0.67390447  1
  O  O511  1  0.41153914  0.35067346  0.92169740  1
  O  O512  1  0.41373275  0.68484286  0.17236414  1
  O  O513  1  0.41364821  0.68514360  0.42239293  1
  O  O514  1  0.41185410  0.68444397  0.67268736  1
  O  O515  1  0.41130195  0.68493871  0.92352598  1
  O  O516  1  0.91390458  0.01753723  0.17277606  1
  O  O517  1  0.91185780  0.01943538  0.42251838  1
  O  O518  1  0.91338533  0.01884595  0.67346951  1
  O  O519  1  0.91370599  0.01892779  0.92117344  1
  O  O520  1  0.91272239  0.35242396  0.17236738  1
  O  O521  1  0.91397024  0.35034965  0.42239120  1
  O  O522  1  0.91131515  0.35290565  0.67348724  1
  O  O523  1  0.91291353  0.35032310  0.92205824  1
  O  O524  1  0.91216571  0.68480500  0.17276254  1
  O  O525  1  0.91260724  0.68515208  0.42316001  1
  O  O526  1  0.91422285  0.68375308  0.67174181  1
  O  O527  1  0.91160624  0.68583822  0.92256280  1
  O  O528  1  0.16224936  0.01804044  0.20160036  1
  O  O529  1  0.16385156  0.01862999  0.45257161  1
  O  O530  1  0.16222994  0.01885143  0.70223707  1
  O  O531  1  0.16126487  0.01902887  0.95194275  1
  O  O532  1  0.16216556  0.35187330  0.20175897  1
  O  O533  1  0.16108816  0.35277576  0.45150150  1
  O  O534  1  0.16306528  0.35102444  0.70360331  1
  O  O535  1  0.16067699  0.35055724  0.95281854  1
  O  O536  1  0.16087342  0.68514377  0.20230309  1
  O  O537  1  0.16124870  0.68357675  0.45270582  1
  O  O538  1  0.16060349  0.68502398  0.70201287  1
  O  O539  1  0.16289473  0.68515447  0.95281612  1
  O  O540  1  0.66509866  0.01765926  0.20199336  1
  O  O541  1  0.66216570  0.01839824  0.45262117  1
  O  O542  1  0.66456537  0.01919355  0.70248944  1
  O  O543  1  0.66304901  0.01970079  0.95215017  1
  O  O544  1  0.66525511  0.35160242  0.20245744  1
  O  O545  1  0.66180699  0.35128434  0.45343475  1
  O  O546  1  0.66275652  0.35130879  0.70261980  1
  O  O547  1  0.66487520  0.35055959  0.95231360  1
  O  O548  1  0.66254781  0.68565858  0.20175823  1
  O  O549  1  0.66363004  0.68472184  0.45135286  1
  O  O550  1  0.66299949  0.68431971  0.70292248  1
  O  O551  1  0.66464900  0.68465195  0.95312560  1
  O  O552  1  0.33696188  0.31401759  0.04774609  1
  O  O553  1  0.33737238  0.31631791  0.29642263  1
  O  O554  1  0.33748206  0.31462844  0.54791844  1
  O  O555  1  0.33635929  0.31526455  0.79867956  1
  O  O556  1  0.33617526  0.64939845  0.04760292  1
  O  O557  1  0.33817234  0.64734679  0.29867589  1
  O  O558  1  0.33685288  0.64838860  0.54818242  1
  O  O559  1  0.33608405  0.64739005  0.79709319  1
  O  O560  1  0.33712365  0.98202115  0.04694255  1
  O  O561  1  0.33848761  0.98114457  0.29809506  1
  O  O562  1  0.33912999  0.98209099  0.54708385  1
  O  O563  1  0.33524533  0.98232180  0.79682268  1
  O  O564  1  0.83774718  0.31598540  0.04644620  1
  O  O565  1  0.83929454  0.31500345  0.29795796  1
  O  O566  1  0.83661427  0.31513155  0.54769897  1
  O  O567  1  0.83754531  0.31527764  0.79747132  1
  O  O568  1  0.83961084  0.64791849  0.04793288  1
  O  O569  1  0.83913451  0.64861523  0.29628775  1
  O  O570  1  0.83800783  0.65001118  0.54771696  1
  O  O571  1  0.83719814  0.64700775  0.79702096  1
  O  O572  1  0.84068932  0.98091283  0.04772579  1
  O  O573  1  0.83707414  0.98173814  0.29667343  1
  O  O574  1  0.83784468  0.98003578  0.54746461  1
  O  O575  1  0.83847232  0.98322412  0.79774117  1
  O  O576  1  0.41205059  0.14997365  0.17101384  1
  O  O577  1  0.41134009  0.14706004  0.42359505  1
  O  O578  1  0.41014454  0.14765775  0.67337458  1
  O  O579  1  0.41032849  0.14974085  0.92221960  1
  O  O580  1  0.41069222  0.47990270  0.17286962  1
  O  O581  1  0.41192659  0.48323341  0.42154976  1
  O  O582  1  0.41275538  0.48221914  0.67355748  1
  O  O583  1  0.41137339  0.48080713  0.92200405  1
  O  O584  1  0.41368379  0.81482825  0.17248431  1
  O  O585  1  0.41395169  0.81518092  0.42197836  1
  O  O586  1  0.41153924  0.81472876  0.67250385  1
  O  O587  1  0.41135457  0.81494933  0.92359359  1
  O  O588  1  0.91339475  0.14746412  0.17287592  1
  O  O589  1  0.91223409  0.14977698  0.42180318  1
  O  O590  1  0.91407154  0.14873558  0.67394293  1
  O  O591  1  0.91400573  0.14908202  0.92193426  1
  O  O592  1  0.91337416  0.48243830  0.17231450  1
  O  O593  1  0.91303830  0.48040600  0.42248443  1
  O  O594  1  0.91227420  0.48295686  0.67268923  1
  O  O595  1  0.91223936  0.48037390  0.92221876  1
  O  O596  1  0.91210634  0.81492387  0.17271352  1
  O  O597  1  0.91269298  0.81502442  0.42338398  1
  O  O598  1  0.91352752  0.81384484  0.67188230  1
  O  O599  1  0.91240314  0.81591144  0.92201241  1
  O  O600  1  0.08858122  0.18484842  0.07709283  1
  O  O601  1  0.08660654  0.18603960  0.32743707  1
  O  O602  1  0.08774224  0.18374807  0.57866838  1
  O  O603  1  0.08835194  0.18543818  0.82758495  1
  O  O604  1  0.08566598  0.51855112  0.07784182  1
  O  O605  1  0.08819898  0.51800733  0.32831957  1
  O  O606  1  0.08802991  0.51864371  0.57700428  1
  O  O607  1  0.08768039  0.51711193  0.82704761  1
  O  O608  1  0.08545526  0.85133206  0.07768202  1
  O  O609  1  0.08693124  0.85075477  0.32795612  1
  O  O610  1  0.08897134  0.85215896  0.57836296  1
  O  O611  1  0.08724127  0.85235863  0.82668550  1
  O  O612  1  0.58682511  0.18568890  0.07593403  1
  O  O613  1  0.58767641  0.18458375  0.32769693  1
  O  O614  1  0.58932571  0.18614670  0.57787620  1
  O  O615  1  0.58684974  0.18488419  0.82684166  1
  O  O616  1  0.58785244  0.51826459  0.07746998  1
  O  O617  1  0.58606978  0.51947502  0.32673728  1
  O  O618  1  0.58604256  0.51698256  0.57834407  1
  O  O619  1  0.58835799  0.51825618  0.82675275  1
  O  O620  1  0.58898565  0.85115799  0.07801891  1
  O  O621  1  0.58697973  0.85048690  0.32728622  1
  O  O622  1  0.58525028  0.85200298  0.57779264  1
  O  O623  1  0.58649330  0.85169595  0.82778821  1
  O  O624  1  0.33643883  0.18398830  0.04710554  1
  O  O625  1  0.33861008  0.18620526  0.29647806  1
  O  O626  1  0.33721881  0.18457402  0.54770135  1
  O  O627  1  0.33655324  0.18521672  0.79824339  1
  O  O628  1  0.33694885  0.51920003  0.04732486  1
  O  O629  1  0.33761693  0.51725558  0.29764232  1
  O  O630  1  0.33716414  0.51839567  0.54789009  1
  O  O631  1  0.33540810  0.51727601  0.79729451  1
  O  O632  1  0.33719912  0.85180430  0.04748355  1
  O  O633  1  0.33799489  0.85117532  0.29856345  1
  O  O634  1  0.33906000  0.85192838  0.54786166  1
  O  O635  1  0.33529944  0.85221719  0.79721908  1
  O  O636  1  0.83788319  0.18594580  0.04712578  1
  O  O637  1  0.83916353  0.18481530  0.29759270  1
  O  O638  1  0.83679866  0.18511419  0.54754259  1
  O  O639  1  0.83729292  0.18541982  0.79808644  1
  O  O640  1  0.83974361  0.51774011  0.04730296  1
  O  O641  1  0.83908721  0.51818137  0.29671669  1
  O  O642  1  0.83927022  0.52000742  0.54821747  1
  O  O643  1  0.83668209  0.51693099  0.79626600  1
  O  O644  1  0.83957541  0.85078377  0.04747538  1
  O  O645  1  0.83731322  0.85150709  0.29656301  1
  O  O646  1  0.83693305  0.84994559  0.54729456  1
  O  O647  1  0.83979810  0.85307486  0.79797433  1
  O  O648  1  0.16164127  0.14786847  0.20175904  1
  O  O649  1  0.16422198  0.14858737  0.45246043  1
  O  O650  1  0.16207685  0.14899482  0.70304619  1
  O  O651  1  0.16188303  0.14900558  0.95245081  1
  O  O652  1  0.16210809  0.48169291  0.20180045  1
  O  O653  1  0.16200506  0.48275856  0.45194855  1
  O  O654  1  0.16294468  0.48114326  0.70304629  1
  O  O655  1  0.15955328  0.48053564  0.95219861  1
  O  O656  1  0.16130976  0.81500097  0.20227243  1
  O  O657  1  0.16062266  0.81363335  0.45209834  1
  O  O658  1  0.16098190  0.81521365  0.70185153  1
  O  O659  1  0.16257868  0.81519763  0.95299253  1
  O  O660  1  0.66462062  0.14781256  0.20216813  1
  O  O661  1  0.66265229  0.14870860  0.45265571  1
  O  O662  1  0.66428510  0.14932735  0.70327028  1
  O  O663  1  0.66316697  0.14984500  0.95266700  1
  O  O664  1  0.66583351  0.48164706  0.20191880  1
  O  O665  1  0.66161325  0.48160483  0.45281490  1
  O  O666  1  0.66329588  0.48135928  0.70173174  1
  O  O667  1  0.66413107  0.48052081  0.95246618  1
  O  O668  1  0.66270812  0.81575042  0.20224553  1
  O  O669  1  0.66322672  0.81471496  0.45145143  1
  O  O670  1  0.66272374  0.81452137  0.70291974  1
  O  O671  1  0.66507326  0.81474721  0.95273527  1
