# generated using pymatgen
data_Na2MnFe(PO4)2
_symmetry_space_group_name_H-M   'P 1'
_cell_length_a   21.09076482
_cell_length_b   18.94382525
_cell_length_c   20.04880062
_cell_angle_alpha   89.99966880
_cell_angle_beta   89.99733537
_cell_angle_gamma   90.00388152
_symmetry_Int_Tables_number   1
_chemical_formula_structural   Na2MnFe(PO4)2
_chemical_formula_sum   'Na96 Mn48 Fe48 P96 O384'
_cell_volume   8010.29302257
_cell_formula_units_Z   48
loop_
 _symmetry_equiv_pos_site_id
 _symmetry_equiv_pos_as_xyz
  1  'x, y, z'
loop_
 _atom_site_type_symbol
 _atom_site_label
 _atom_site_symmetry_multiplicity
 _atom_site_fract_x
 _atom_site_fract_y
 _atom_site_fract_z
 _atom_site_occupancy
  Na  Na0  1  0.00003710  -0.00051930  -0.00010051  1
  Na  Na1  1  0.00305562  -0.00008032  0.25095868  1
  Na  Na2  1  0.00280610  -0.00002256  0.50050051  1
  Na  Na3  1  -0.00122456  -0.00068881  0.74925771  1
  Na  Na4  1  -0.00140084  0.33233335  0.00169175  1
  Na  Na5  1  0.00039213  0.33298628  0.25094293  1
  Na  Na6  1  0.00118536  0.33393829  0.49811163  1
  Na  Na7  1  -0.00040214  0.33363446  0.74976235  1
  Na  Na8  1  -0.00119917  0.66663957  0.00023017  1
  Na  Na9  1  0.00172323  0.66797432  0.24901920  1
  Na  Na10  1  0.00022449  0.66675866  0.50008777  1
  Na  Na11  1  -0.00083619  0.66681877  0.75062446  1
  Na  Na12  1  0.49858490  -0.00076597  0.00090131  1
  Na  Na13  1  0.49833614  -0.00096451  0.25068409  1
  Na  Na14  1  0.50229986  0.00082337  0.49909941  1
  Na  Na15  1  0.50211099  -0.00011663  0.74980880  1
  Na  Na16  1  0.49980857  0.33376600  -0.00130033  1
  Na  Na17  1  0.49857674  0.33257710  0.25120774  1
  Na  Na18  1  0.50054302  0.33382172  0.50044091  1
  Na  Na19  1  0.50023788  0.33346669  0.74914034  1
  Na  Na20  1  0.49985434  0.66696817  0.00091583  1
  Na  Na21  1  0.49722605  0.66618656  0.24930752  1
  Na  Na22  1  0.49873506  0.66771572  0.49970789  1
  Na  Na23  1  0.49911530  0.66659048  0.74984753  1
  Na  Na24  1  0.25066274  0.00058494  0.12536812  1
  Na  Na25  1  0.24885767  -0.00101059  0.37468754  1
  Na  Na26  1  0.24760809  -0.00115785  0.62378921  1
  Na  Na27  1  0.24908342  -0.00038021  0.87599856  1
  Na  Na28  1  0.24991175  0.33318524  0.12521400  1
  Na  Na29  1  0.25052969  0.33311489  0.37533842  1
  Na  Na30  1  0.24969232  0.33362521  0.62479194  1
  Na  Na31  1  0.24995381  0.33366868  0.87456067  1
  Na  Na32  1  0.25088674  0.66754457  0.12476446  1
  Na  Na33  1  0.25038758  0.66730203  0.37577963  1
  Na  Na34  1  0.25104797  0.66690933  0.62462305  1
  Na  Na35  1  0.25169676  0.66717193  0.87436948  1
  Na  Na36  1  0.75048873  -0.00060174  0.12553624  1
  Na  Na37  1  0.74700077  -0.00083727  0.37458181  1
  Na  Na38  1  0.74954867  -0.00011535  0.62437565  1
  Na  Na39  1  0.75244612  0.00021867  0.87564147  1
  Na  Na40  1  0.75196408  0.33391386  0.12467863  1
  Na  Na41  1  0.75022985  0.33358225  0.37491699  1
  Na  Na42  1  0.74839713  0.33223031  0.62470374  1
  Na  Na43  1  0.75113982  0.33348691  0.87518011  1
  Na  Na44  1  0.74817886  0.66665152  0.12650711  1
  Na  Na45  1  0.74946057  0.66682663  0.37584206  1
  Na  Na46  1  0.75115749  0.66741501  0.62445864  1
  Na  Na47  1  0.75041763  0.66730829  0.87358935  1
  Na  Na48  1  -0.00114922  0.16684516  0.00020088  1
  Na  Na49  1  0.00190056  0.16648301  0.25080490  1
  Na  Na50  1  0.00172484  0.16635108  0.49953166  1
  Na  Na51  1  -0.00277704  0.16791792  0.74964227  1
  Na  Na52  1  0.00179615  0.49937101  0.00144684  1
  Na  Na53  1  -0.00088328  0.50119794  0.24974242  1
  Na  Na54  1  -0.00038742  0.50067678  0.49878873  1
  Na  Na55  1  0.00053623  0.49988614  0.74987423  1
  Na  Na56  1  -0.00189954  0.83397108  0.00041049  1
  Na  Na57  1  0.00275802  0.83291175  0.25004945  1
  Na  Na58  1  0.00307455  0.83234847  0.50029061  1
  Na  Na59  1  -0.00080919  0.83323087  0.74998226  1
  Na  Na60  1  0.49891483  0.16693164  0.00006944  1
  Na  Na61  1  0.49741747  0.16749760  0.25095405  1
  Na  Na62  1  0.50197017  0.16571330  0.49911222  1
  Na  Na63  1  0.50179605  0.16590733  0.74974668  1
  Na  Na64  1  0.50102884  0.49981115  -0.00106178  1
  Na  Na65  1  0.49974145  0.49967074  0.25042746  1
  Na  Na66  1  0.49643798  0.50109904  0.50017827  1
  Na  Na67  1  0.49862264  0.50039091  0.75037632  1
  Na  Na68  1  0.49794497  0.83394529  0.00118168  1
  Na  Na69  1  0.49925276  0.83277315  0.25049546  1
  Na  Na70  1  0.50047703  0.83329286  0.49897215  1
  Na  Na71  1  0.50238939  0.83191496  0.74908792  1
  Na  Na72  1  0.25072423  0.16622087  0.12583898  1
  Na  Na73  1  0.24894522  0.16714871  0.37449180  1
  Na  Na74  1  0.24865678  0.16731920  0.62435977  1
  Na  Na75  1  0.25055090  0.16634654  0.87568240  1
  Na  Na76  1  0.24871627  0.50104163  0.12381521  1
  Na  Na77  1  0.25119652  0.49995127  0.37626689  1
  Na  Na78  1  0.25198562  0.49961961  0.62506918  1
  Na  Na79  1  0.25110896  0.49969113  0.87380361  1
  Na  Na80  1  0.25083528  0.83287050  0.12586020  1
  Na  Na81  1  0.25025970  0.83280867  0.37491816  1
  Na  Na82  1  0.24712931  0.83419567  0.62399939  1
  Na  Na83  1  0.24979752  0.83305538  0.87517299  1
  Na  Na84  1  0.75054575  0.16659888  0.12569928  1
  Na  Na85  1  0.74774871  0.16753666  0.37444177  1
  Na  Na86  1  0.75135843  0.16620195  0.62496560  1
  Na  Na87  1  0.75257696  0.16636635  0.87505100  1
  Na  Na88  1  0.74904817  0.50040121  0.12507247  1
  Na  Na89  1  0.75187902  0.49893458  0.37635026  1
  Na  Na90  1  0.75011510  0.50031820  0.62377387  1
  Na  Na91  1  0.74895773  0.50103536  0.87442642  1
  Na  Na92  1  0.75137711  0.83236566  0.12572643  1
  Na  Na93  1  0.74684527  0.83402034  0.37467600  1
  Na  Na94  1  0.74811217  0.83357539  0.62473160  1
  Na  Na95  1  0.75133433  0.83268331  0.87508288  1
  Mn  Mn96  1  0.14236164  0.91639702  0.99821064  1
  Mn  Mn97  1  0.35800942  0.75067720  0.75189130  1
  Mn  Mn98  1  0.14135515  0.24972786  0.74752005  1
  Mn  Mn99  1  0.85882837  0.08243110  0.00346214  1
  Mn  Mn100  1  0.10758534  0.41655885  0.12330105  1
  Mn  Mn101  1  0.64208681  0.58341162  0.74703125  1
  Mn  Mn102  1  0.64257250  0.25005706  0.99823801  1
  Mn  Mn103  1  0.10712329  0.08379898  0.87209741  1
  Mn  Mn104  1  0.64298268  0.91694757  0.74835303  1
  Mn  Mn105  1  0.89318672  0.91620354  0.37716316  1
  Mn  Mn106  1  0.14279633  0.58375761  0.74762529  1
  Mn  Mn107  1  0.89237292  0.91635403  0.62643392  1
  Mn  Mn108  1  0.35821826  0.08316458  0.75139605  1
  Mn  Mn109  1  0.89196436  0.58293141  0.87777358  1
  Mn  Mn110  1  0.60649834  0.08396491  0.12297945  1
  Mn  Mn111  1  0.39282019  0.24955628  0.62700928  1
  Mn  Mn112  1  0.39182378  0.91599771  0.87633342  1
  Mn  Mn113  1  0.64326730  0.24975609  0.74782376  1
  Mn  Mn114  1  0.10723213  0.74972221  0.87291921  1
  Mn  Mn115  1  0.89193286  0.58374766  0.12785128  1
  Mn  Mn116  1  0.35802362  0.41663504  0.00242301  1
  Mn  Mn117  1  0.10734172  0.08388720  0.62296602  1
  Mn  Mn118  1  0.85764613  0.75079416  0.50150311  1
  Mn  Mn119  1  0.60785744  0.41710541  0.87215509  1
  Mn  Mn120  1  0.14259432  0.58352908  0.99733048  1
  Mn  Mn121  1  0.60664399  0.41716254  0.37281544  1
  Mn  Mn122  1  0.39259415  0.91684915  0.62698904  1
  Mn  Mn123  1  0.85788648  0.41601683  0.50253488  1
  Mn  Mn124  1  0.39206918  0.24983851  0.87680293  1
  Mn  Mn125  1  0.85782641  0.74961139  0.25296208  1
  Mn  Mn126  1  0.35788267  0.08300075  0.00243530  1
  Mn  Mn127  1  0.35751585  0.08313227  0.50252575  1
  Mn  Mn128  1  0.64159915  0.58317858  0.24893802  1
  Mn  Mn129  1  0.64240562  0.91597873  0.99846474  1
  Mn  Mn130  1  0.14178240  0.25042617  0.99807185  1
  Mn  Mn131  1  0.64156521  0.58311602  0.49753273  1
  Mn  Mn132  1  0.10836475  0.41749981  0.37208454  1
  Mn  Mn133  1  0.85789175  0.41796390  0.00249103  1
  Mn  Mn134  1  0.14270294  0.58329557  0.49802959  1
  Mn  Mn135  1  0.35773234  0.41705101  0.25201024  1
  Mn  Mn136  1  0.85846746  0.41673397  0.75169982  1
  Mn  Mn137  1  0.60867121  0.08266668  0.87319979  1
  Mn  Mn138  1  0.89314364  0.24969835  0.37728922  1
  Mn  Mn139  1  0.60673958  0.74954999  0.12266372  1
  Mn  Mn140  1  0.85737783  0.08302758  0.50089613  1
  Mn  Mn141  1  0.85805684  0.08318980  0.25305639  1
  Mn  Mn142  1  0.39221791  0.58260761  0.12736244  1
  Mn  Mn143  1  0.64159182  0.25027998  0.24738420  1
  Fe  Fe144  1  0.10851754  0.74973990  0.37316700  1
  Fe  Fe145  1  0.60666815  0.41675947  0.62323836  1
  Fe  Fe146  1  0.39222004  0.25002413  0.12676139  1
  Fe  Fe147  1  0.35715441  0.41643236  0.50237539  1
  Fe  Fe148  1  0.89287621  0.25031595  0.87701407  1
  Fe  Fe149  1  0.14135006  0.91653130  0.74874422  1
  Fe  Fe150  1  0.60742260  0.75003833  0.87384368  1
  Fe  Fe151  1  0.10866039  0.08291120  0.37295530  1
  Fe  Fe152  1  0.10769754  0.75053045  0.12281616  1
  Fe  Fe153  1  0.64230940  0.58391485  0.99840491  1
  Fe  Fe154  1  0.39119133  0.58352387  0.37656924  1
  Fe  Fe155  1  0.10709612  0.74892206  0.62380382  1
  Fe  Fe156  1  0.35714960  0.41609206  0.75137686  1
  Fe  Fe157  1  0.39303989  0.58365086  0.62673075  1
  Fe  Fe158  1  0.10756911  0.08300714  0.12387900  1
  Fe  Fe159  1  0.89330091  0.58426069  0.37611138  1
  Fe  Fe160  1  0.39207889  0.24981515  0.37754940  1
  Fe  Fe161  1  0.85782954  0.08268497  0.75136201  1
  Fe  Fe162  1  0.64242445  0.24956157  0.49832204  1
  Fe  Fe163  1  0.14286922  0.91673145  0.49771835  1
  Fe  Fe164  1  0.10768218  0.41722359  0.62346713  1
  Fe  Fe165  1  0.89254892  0.91675041  0.87687704  1
  Fe  Fe166  1  0.14283638  0.58366122  0.24884663  1
  Fe  Fe167  1  0.89358443  0.91697146  0.12778802  1
  Fe  Fe168  1  0.85730118  0.41683799  0.25136325  1
  Fe  Fe169  1  0.89305198  0.58312996  0.62607415  1
  Fe  Fe170  1  0.64164921  0.91695173  0.49778900  1
  Fe  Fe171  1  0.14388370  0.91637595  0.24792557  1
  Fe  Fe172  1  0.60543190  0.75000122  0.37331712  1
  Fe  Fe173  1  0.60763214  0.74966776  0.62276061  1
  Fe  Fe174  1  0.35650829  0.08308783  0.25214592  1
  Fe  Fe175  1  0.39327616  0.58393496  0.87685388  1
  Fe  Fe176  1  0.60768996  0.41611778  0.12368375  1
  Fe  Fe177  1  0.35688052  0.75012512  0.50203460  1
  Fe  Fe178  1  0.85740532  0.75051616  0.75132596  1
  Fe  Fe179  1  0.85686496  0.74960593  0.00195618  1
  Fe  Fe180  1  0.60614167  0.08301256  0.37251566  1
  Fe  Fe181  1  0.14371528  0.25001681  0.24802006  1
  Fe  Fe182  1  0.35630964  0.75029133  0.25207920  1
  Fe  Fe183  1  0.89310429  0.24928808  0.12764995  1
  Fe  Fe184  1  0.39184063  0.91722440  0.12785505  1
  Fe  Fe185  1  0.10730887  0.41650673  0.87322260  1
  Fe  Fe186  1  0.35781142  0.75017339  0.00147449  1
  Fe  Fe187  1  0.60914277  0.08336037  0.62290222  1
  Fe  Fe188  1  0.14254540  0.24995992  0.49844264  1
  Fe  Fe189  1  0.89278080  0.25075215  0.62566155  1
  Fe  Fe190  1  0.64192651  0.91669302  0.24776512  1
  Fe  Fe191  1  0.39268787  0.91662398  0.37696182  1
  P  P192  1  0.05374687  0.24891421  0.11191637  1
  P  P193  1  0.05634033  0.24941594  0.36052711  1
  P  P194  1  0.05264139  0.25117763  0.60913478  1
  P  P195  1  0.05187393  0.25087316  0.86028020  1
  P  P196  1  0.05492347  0.58463891  0.11134709  1
  P  P197  1  0.05340699  0.58444529  0.35932392  1
  P  P198  1  0.05264667  0.58342507  0.61022649  1
  P  P199  1  0.05334767  0.58262017  0.86018216  1
  P  P200  1  0.05440212  0.91664918  0.11160256  1
  P  P201  1  0.05646936  0.91615374  0.36064578  1
  P  P202  1  0.05540119  0.91548115  0.61066714  1
  P  P203  1  0.05226393  0.91643978  0.85971584  1
  P  P204  1  0.55161740  0.25081827  0.11016393  1
  P  P205  1  0.55287739  0.24954625  0.36144915  1
  P  P206  1  0.55450517  0.24989291  0.60949794  1
  P  P207  1  0.55368104  0.24989531  0.85963416  1
  P  P208  1  0.55393626  0.58211651  0.10972794  1
  P  P209  1  0.55065273  0.58434684  0.36046065  1
  P  P210  1  0.55209704  0.58318870  0.60996365  1
  P  P211  1  0.55374172  0.58487846  0.86102626  1
  P  P212  1  0.55238465  0.91667310  0.11162472  1
  P  P213  1  0.55368249  0.91642945  0.36059029  1
  P  P214  1  0.55458113  0.91648507  0.60927643  1
  P  P215  1  0.55341648  0.91520101  0.86040228  1
  P  P216  1  0.44511533  0.08346684  0.14127097  1
  P  P217  1  0.44546453  0.08283374  0.38866037  1
  P  P218  1  0.44907963  0.08301718  0.63945402  1
  P  P219  1  0.44701773  0.08269469  0.89000639  1
  P  P220  1  0.44812352  0.41596250  0.14006949  1
  P  P221  1  0.44485303  0.41652435  0.39069172  1
  P  P222  1  0.44569548  0.41710392  0.63918100  1
  P  P223  1  0.44525371  0.41746536  0.88827212  1
  P  P224  1  0.44392661  0.75067839  0.13988398  1
  P  P225  1  0.44438518  0.75045439  0.38892046  1
  P  P226  1  0.44679690  0.74997459  0.63830754  1
  P  P227  1  0.44723740  0.74951536  0.89048834  1
  P  P228  1  0.94812548  0.08257950  0.14086465  1
  P  P229  1  0.94908502  0.08267424  0.39001715  1
  P  P230  1  0.94572989  0.08402988  0.63952596  1
  P  P231  1  0.94520612  0.08309327  0.88873163  1
  P  P232  1  0.94592250  0.41618652  0.14111236  1
  P  P233  1  0.94554555  0.41781169  0.38830479  1
  P  P234  1  0.94813004  0.41677802  0.63904049  1
  P  P235  1  0.94792196  0.41634763  0.89048008  1
  P  P236  1  0.94656896  0.75108475  0.13910061  1
  P  P237  1  0.94867974  0.74971860  0.38973174  1
  P  P238  1  0.94703531  0.74942937  0.63997777  1
  P  P239  1  0.94448851  0.75077683  0.88966211  1
  P  P240  1  0.19615312  0.08300978  0.23594633  1
  P  P241  1  0.19583823  0.08352004  0.48442121  1
  P  P242  1  0.19663457  0.08261762  0.73473388  1
  P  P243  1  0.19517146  0.08339902  0.98630434  1
  P  P244  1  0.19708927  0.41714814  0.23514257  1
  P  P245  1  0.19645382  0.41645386  0.48642202  1
  P  P246  1  0.19607741  0.41690452  0.73514967  1
  P  P247  1  0.19603539  0.41662949  0.98394482  1
  P  P248  1  0.19594182  0.74991824  0.23591024  1
  P  P249  1  0.19588877  0.75005012  0.48581566  1
  P  P250  1  0.19602059  0.75046580  0.73428545  1
  P  P251  1  0.19706661  0.75022769  0.98581300  1
  P  P252  1  0.69486657  0.08255261  0.23596283  1
  P  P253  1  0.69438154  0.08352718  0.48488364  1
  P  P254  1  0.69829341  0.08314146  0.73465577  1
  P  P255  1  0.69738448  0.08308976  0.98558525  1
  P  P256  1  0.69702279  0.41676456  0.23473559  1
  P  P257  1  0.69493977  0.41579794  0.48607745  1
  P  P258  1  0.69644042  0.41689034  0.73370643  1
  P  P259  1  0.69550077  0.41751410  0.98600835  1
  P  P260  1  0.69442131  0.75056882  0.23669092  1
  P  P261  1  0.69408549  0.75050234  0.48514422  1
  P  P262  1  0.69621343  0.75008772  0.73529366  1
  P  P263  1  0.69699198  0.74934713  0.98477656  1
  P  P264  1  0.30367942  0.25008182  0.01600508  1
  P  P265  1  0.30426482  0.24939802  0.26446918  1
  P  P266  1  0.30323560  0.25032863  0.51392848  1
  P  P267  1  0.30300348  0.25041793  0.76454437  1
  P  P268  1  0.30486789  0.58423849  0.01354170  1
  P  P269  1  0.30235830  0.58417402  0.26539809  1
  P  P270  1  0.30556958  0.58366259  0.51451229  1
  P  P271  1  0.30596571  0.58282594  0.76397027  1
  P  P272  1  0.30416811  0.91572693  0.01593802  1
  P  P273  1  0.30406344  0.91671056  0.26450701  1
  P  P274  1  0.30341390  0.91591629  0.51344127  1
  P  P275  1  0.30127207  0.91674772  0.76451915  1
  P  P276  1  0.80577776  0.25003519  0.01508714  1
  P  P277  1  0.80462159  0.25058789  0.26421110  1
  P  P278  1  0.80267146  0.24949118  0.51500529  1
  P  P279  1  0.80598397  0.24955576  0.76407269  1
  P  P280  1  0.80181735  0.58466291  0.01527220  1
  P  P281  1  0.80352874  0.58257913  0.26625897  1
  P  P282  1  0.80517751  0.58383687  0.51421957  1
  P  P283  1  0.80490943  0.58393518  0.76320522  1
  P  P284  1  0.80544905  0.91520059  0.01525038  1
  P  P285  1  0.80325724  0.91653836  0.26457132  1
  P  P286  1  0.80152577  0.91666420  0.51425114  1
  P  P287  1  0.80452414  0.91639824  0.76502428  1
  O  O288  1  0.05925852  0.24971845  0.18854213  1
  O  O289  1  0.06023494  0.25028410  0.43731533  1
  O  O290  1  0.05575379  0.25053445  0.68589147  1
  O  O291  1  0.05543709  0.25001763  0.93696741  1
  O  O292  1  0.05933327  0.58424692  0.18805082  1
  O  O293  1  0.05711662  0.58362896  0.43598873  1
  O  O294  1  0.05628884  0.58342971  0.68687532  1
  O  O295  1  0.05644979  0.58352252  0.93695639  1
  O  O296  1  0.05957075  0.91639654  0.18824766  1
  O  O297  1  0.06014876  0.91615699  0.43751243  1
  O  O298  1  0.05863132  0.91636094  0.68744868  1
  O  O299  1  0.05635491  0.91626507  0.93642382  1
  O  O300  1  0.55517269  0.25021196  0.18689729  1
  O  O301  1  0.55804729  0.24998503  0.43798968  1
  O  O302  1  0.55744357  0.24981721  0.68626575  1
  O  O303  1  0.55674045  0.25012987  0.93641517  1
  O  O304  1  0.55662302  0.58308511  0.18651459  1
  O  O305  1  0.55464574  0.58395813  0.43707264  1
  O  O306  1  0.55559110  0.58319244  0.68666633  1
  O  O307  1  0.55842943  0.58423234  0.93766540  1
  O  O308  1  0.55734307  0.91634993  0.18825724  1
  O  O309  1  0.55811790  0.91671042  0.43727703  1
  O  O310  1  0.55761546  0.91637946  0.68605491  1
  O  O311  1  0.55607798  0.91593545  0.93717334  1
  O  O312  1  0.44291702  0.08326345  0.06443153  1
  O  O313  1  0.44028300  0.08294693  0.31207683  1
  O  O314  1  0.44443054  0.08301519  0.56279310  1
  O  O315  1  0.44417114  0.08263471  0.81322094  1
  O  O316  1  0.44460440  0.41677461  0.06336542  1
  O  O317  1  0.44237811  0.41639355  0.31392794  1
  O  O318  1  0.44092744  0.41613179  0.56247013  1
  O  O319  1  0.44114972  0.41642978  0.81154762  1
  O  O320  1  0.44047484  0.75021823  0.06313009  1
  O  O321  1  0.43983632  0.75017020  0.31220295  1
  O  O322  1  0.44160828  0.75100990  0.56170357  1
  O  O323  1  0.44391842  0.75030921  0.81371489  1
  O  O324  1  0.94461550  0.08255454  0.06411703  1
  O  O325  1  0.94481335  0.08260625  0.31337496  1
  O  O326  1  0.94314989  0.08301086  0.56274618  1
  O  O327  1  0.94155430  0.08286482  0.81198488  1
  O  O328  1  0.94322478  0.41713692  0.06430271  1
  O  O329  1  0.94132544  0.41691123  0.31166661  1
  O  O330  1  0.94460636  0.41674256  0.56234534  1
  O  O331  1  0.94425126  0.41726064  0.81378646  1
  O  O332  1  0.94142870  0.74997106  0.06251708  1
  O  O333  1  0.94464344  0.75066752  0.31307277  1
  O  O334  1  0.94355959  0.75043918  0.56326517  1
  O  O335  1  0.94069273  0.74999303  0.81290197  1
  O  O336  1  0.19086928  0.08347123  0.06307589  1
  O  O337  1  0.19203524  0.08302470  0.31264857  1
  O  O338  1  0.19271741  0.08372860  0.56118056  1
  O  O339  1  0.19372786  0.08343554  0.81155871  1
  O  O340  1  0.19236668  0.41657085  0.06072163  1
  O  O341  1  0.19484524  0.41704131  0.31201045  1
  O  O342  1  0.19136597  0.41720913  0.56305801  1
  O  O343  1  0.19103848  0.41684017  0.81177925  1
  O  O344  1  0.19208900  0.75025493  0.06249113  1
  O  O345  1  0.19188277  0.74970384  0.31265642  1
  O  O346  1  0.19099229  0.74905506  0.56240678  1
  O  O347  1  0.19297129  0.74944217  0.81107974  1
  O  O348  1  0.69338849  0.08323035  0.06233609  1
  O  O349  1  0.68987834  0.08324570  0.31271013  1
  O  O350  1  0.69153870  0.08348645  0.56176104  1
  O  O351  1  0.69457684  0.08327240  0.81135563  1
  O  O352  1  0.69146345  0.41636429  0.06274804  1
  O  O353  1  0.69275189  0.41648168  0.31146952  1
  O  O354  1  0.69027197  0.41696682  0.56274640  1
  O  O355  1  0.69335221  0.41719786  0.81054713  1
  O  O356  1  0.69295756  0.75005951  0.06151704  1
  O  O357  1  0.68950074  0.74986230  0.31336902  1
  O  O358  1  0.69038877  0.74936843  0.56198583  1
  O  O359  1  0.69139666  0.74970514  0.81191481  1
  O  O360  1  0.30896068  0.25020599  0.18780292  1
  O  O361  1  0.30810269  0.24962403  0.43723485  1
  O  O362  1  0.30641333  0.24994376  0.68776545  1
  O  O363  1  0.30689150  0.25015245  0.93923314  1
  O  O364  1  0.30590755  0.58334346  0.18869211  1
  O  O365  1  0.30892661  0.58382751  0.43766053  1
  O  O366  1  0.30997411  0.58374590  0.68713561  1
  O  O367  1  0.30901888  0.58374872  0.93680365  1
  O  O368  1  0.30822682  0.91698741  0.18781544  1
  O  O369  1  0.30846831  0.91649160  0.43682545  1
  O  O370  1  0.30550505  0.91664759  0.68782476  1
  O  O371  1  0.30684822  0.91630985  0.93912663  1
  O  O372  1  0.80939463  0.24933483  0.18748138  1
  O  O373  1  0.80691978  0.24989698  0.43830066  1
  O  O374  1  0.80981917  0.25075368  0.68729007  1
  O  O375  1  0.80998943  0.25020879  0.93825524  1
  O  O376  1  0.80630347  0.58382558  0.18943968  1
  O  O377  1  0.80983723  0.58401947  0.43753630  1
  O  O378  1  0.80951788  0.58309658  0.68647477  1
  O  O379  1  0.80563875  0.58378808  0.93855367  1
  O  O380  1  0.80900249  0.91662998  0.18796673  1
  O  O381  1  0.80600290  0.91633906  0.43762064  1
  O  O382  1  0.80678321  0.91625416  0.68820491  1
  O  O383  1  0.80931923  0.91642537  0.93849073  1
  O  O384  1  0.23394603  0.24996130  0.04088129  1
  O  O385  1  0.23372679  0.24977951  0.28775508  1
  O  O386  1  0.23288162  0.25009194  0.53760824  1
  O  O387  1  0.23335955  0.25022325  0.78975908  1
  O  O388  1  0.23495172  0.58402731  0.03794233  1
  O  O389  1  0.23237571  0.58388062  0.29023052  1
  O  O390  1  0.23559572  0.58347626  0.53898879  1
  O  O391  1  0.23587642  0.58373305  0.78800227  1
  O  O392  1  0.23451213  0.91655591  0.04119645  1
  O  O393  1  0.23359404  0.91624217  0.28804279  1
  O  O394  1  0.23287886  0.91635720  0.53654499  1
  O  O395  1  0.23133489  0.91618215  0.78929285  1
  O  O396  1  0.73569631  0.24997830  0.03907090  1
  O  O397  1  0.73445898  0.25044247  0.28790673  1
  O  O398  1  0.73251880  0.24915667  0.53897905  1
  O  O399  1  0.73601626  0.25025715  0.78860715  1
  O  O400  1  0.73191355  0.58428079  0.04004828  1
  O  O401  1  0.73386135  0.58291720  0.29156385  1
  O  O402  1  0.73491050  0.58387252  0.53769838  1
  O  O403  1  0.73484188  0.58368366  0.78716472  1
  O  O404  1  0.73543534  0.91579879  0.03960143  1
  O  O405  1  0.73273650  0.91650886  0.28748027  1
  O  O406  1  0.73141191  0.91682666  0.53833067  1
  O  O407  1  0.73502800  0.91658320  0.79084784  1
  O  O408  1  0.26658566  0.08305807  0.21231656  1
  O  O409  1  0.26557956  0.08311047  0.45940079  1
  O  O410  1  0.26600188  0.08299022  0.70864888  1
  O  O411  1  0.26520525  0.08302755  0.96231827  1
  O  O412  1  0.26648896  0.41720686  0.20913160  1
  O  O413  1  0.26684561  0.41695412  0.46294274  1
  O  O414  1  0.26651033  0.41685046  0.71174529  1
  O  O415  1  0.26589735  0.41677014  0.95961471  1
  O  O416  1  0.26638858  0.75043559  0.21226247  1
  O  O417  1  0.26635785  0.74974290  0.46239986  1
  O  O418  1  0.26577377  0.75036590  0.70928178  1
  O  O419  1  0.26729304  0.75027355  0.96199656  1
  O  O420  1  0.76505111  0.08287603  0.21237140  1
  O  O421  1  0.76418360  0.08348904  0.45965758  1
  O  O422  1  0.76835941  0.08276842  0.71024425  1
  O  O423  1  0.76726255  0.08306455  0.96126527  1
  O  O424  1  0.76716547  0.41706084  0.21065619  1
  O  O425  1  0.76509081  0.41598139  0.46236022  1
  O  O426  1  0.76620007  0.41660408  0.70888425  1
  O  O427  1  0.76542610  0.41741107  0.96138231  1
  O  O428  1  0.76460621  0.74990297  0.21304143  1
  O  O429  1  0.76414382  0.75029624  0.46091178  1
  O  O430  1  0.76661555  0.75053955  0.71168015  1
  O  O431  1  0.76706024  0.74984461  0.96044593  1
  O  O432  1  0.01811956  0.08279538  0.16557685  1
  O  O433  1  0.01922852  0.08278991  0.41402418  1
  O  O434  1  0.01538185  0.08367130  0.66494954  1
  O  O435  1  0.01498450  0.08311119  0.91376780  1
  O  O436  1  0.01566399  0.41684652  0.16614701  1
  O  O437  1  0.01569073  0.41727761  0.41230179  1
  O  O438  1  0.01805880  0.41690612  0.66406011  1
  O  O439  1  0.01774067  0.41621039  0.91562722  1
  O  O440  1  0.01698986  0.75100812  0.16256151  1
  O  O441  1  0.01877272  0.74976487  0.41404577  1
  O  O442  1  0.01709386  0.74980538  0.66461660  1
  O  O443  1  0.01450818  0.75002321  0.91405230  1
  O  O444  1  0.51463155  0.08337429  0.16696274  1
  O  O445  1  0.51600574  0.08287682  0.41180216  1
  O  O446  1  0.51930223  0.08307283  0.66329740  1
  O  O447  1  0.51645967  0.08277542  0.91577358  1
  O  O448  1  0.51788455  0.41627563  0.16541878  1
  O  O449  1  0.51455772  0.41709421  0.41593049  1
  O  O450  1  0.51613275  0.41662279  0.66273146  1
  O  O451  1  0.51524603  0.41732220  0.91244011  1
  O  O452  1  0.51395286  0.74948064  0.16411962  1
  O  O453  1  0.51484530  0.75084587  0.41247448  1
  O  O454  1  0.51719774  0.74956537  0.66184208  1
  O  O455  1  0.51703740  0.75021153  0.91568951  1
  O  O456  1  0.48170668  0.25024277  0.08529902  1
  O  O457  1  0.48231727  0.24988580  0.33828208  1
  O  O458  1  0.48472578  0.24968614  0.58436056  1
  O  O459  1  0.48411337  0.24971983  0.83426632  1
  O  O460  1  0.48421777  0.58311596  0.08469297  1
  O  O461  1  0.48054797  0.58344822  0.33598643  1
  O  O462  1  0.48205541  0.58373820  0.58528769  1
  O  O463  1  0.48354189  0.58399431  0.83700899  1
  O  O464  1  0.48198545  0.91694814  0.08831525  1
  O  O465  1  0.48314533  0.91612081  0.33718988  1
  O  O466  1  0.48486844  0.91688603  0.58397992  1
  O  O467  1  0.48406739  0.91550548  0.83428928  1
  O  O468  1  0.98328970  0.24931737  0.08865322  1
  O  O469  1  0.98619102  0.24998636  0.33673329  1
  O  O470  1  0.98268766  0.25029097  0.58410542  1
  O  O471  1  0.98193041  0.25064882  0.83550243  1
  O  O472  1  0.98483116  0.58359490  0.08730026  1
  O  O473  1  0.98339580  0.58437249  0.33471924  1
  O  O474  1  0.98269188  0.58346862  0.58532706  1
  O  O475  1  0.98369446  0.58333759  0.83513448  1
  O  O476  1  0.98413087  0.91655894  0.08784639  1
  O  O477  1  0.98648095  0.91616301  0.33625314  1
  O  O478  1  0.98544689  0.91613077  0.58590210  1
  O  O479  1  0.98213760  0.91639722  0.83562576  1
  O  O480  1  0.08678210  0.31398132  0.07824217  1
  O  O481  1  0.09022616  0.31422276  0.32720005  1
  O  O482  1  0.08656668  0.31629750  0.57676670  1
  O  O483  1  0.08573026  0.31598097  0.82786575  1
  O  O484  1  0.08781922  0.65003626  0.07820009  1
  O  O485  1  0.08755137  0.64942333  0.32689189  1
  O  O486  1  0.08649420  0.64856574  0.57762195  1
  O  O487  1  0.08776300  0.64742475  0.82754630  1
  O  O488  1  0.08745293  0.98193625  0.07850098  1
  O  O489  1  0.09029803  0.98120192  0.32777912  1
  O  O490  1  0.08963488  0.98022607  0.57759279  1
  O  O491  1  0.08607301  0.98136900  0.82675800  1
  O  O492  1  0.58556687  0.31591582  0.07782955  1
  O  O493  1  0.58595530  0.31462691  0.32783348  1
  O  O494  1  0.58838110  0.31513796  0.57710843  1
  O  O495  1  0.58772864  0.31492859  0.82714412  1
  O  O496  1  0.58855499  0.64687108  0.07696372  1
  O  O497  1  0.58391478  0.64949529  0.32756971  1
  O  O498  1  0.58622174  0.64803491  0.57731362  1
  O  O499  1  0.58655529  0.65036156  0.82800580  1
  O  O500  1  0.58580046  0.98154487  0.07828495  1
  O  O501  1  0.58688984  0.98144773  0.32710530  1
  O  O502  1  0.58910667  0.98144121  0.57700298  1
  O  O503  1  0.58807277  0.98005650  0.82805181  1
  O  O504  1  0.41054579  0.01850958  0.17352206  1
  O  O505  1  0.41274122  0.01753638  0.42214562  1
  O  O506  1  0.41542805  0.01800538  0.67239558  1
  O  O507  1  0.41268589  0.01760923  0.92213184  1
  O  O508  1  0.41395986  0.35098905  0.17238377  1
  O  O509  1  0.41093135  0.35131553  0.42319796  1
  O  O510  1  0.41208454  0.35230052  0.67273444  1
  O  O511  1  0.41171323  0.35260852  0.92174368  1
  O  O512  1  0.40954911  0.68596358  0.17284872  1
  O  O513  1  0.41126465  0.68543978  0.42238310  1
  O  O514  1  0.41330661  0.68499400  0.67131187  1
  O  O515  1  0.41330484  0.68428854  0.92279164  1
  O  O516  1  0.91444322  0.01738794  0.17352451  1
  O  O517  1  0.91539455  0.01769814  0.42292153  1
  O  O518  1  0.91131888  0.01912119  0.67210744  1
  O  O519  1  0.91164255  0.01790012  0.92171669  1
  O  O520  1  0.91205221  0.35094630  0.17320814  1
  O  O521  1  0.91198212  0.35294009  0.42189376  1
  O  O522  1  0.91427785  0.35161173  0.67146877  1
  O  O523  1  0.91360698  0.35141615  0.92261057  1
  O  O524  1  0.91336591  0.68610591  0.17285388  1
  O  O525  1  0.91470827  0.68464435  0.42199197  1
  O  O526  1  0.91317556  0.68433431  0.67239802  1
  O  O527  1  0.91034670  0.68608082  0.92305798  1
  O  O528  1  0.16288420  0.01784941  0.20273401  1
  O  O529  1  0.16153111  0.01845951  0.45211539  1
  O  O530  1  0.16225814  0.01749498  0.70300468  1
  O  O531  1  0.16150835  0.01840950  0.95336582  1
  O  O532  1  0.16288447  0.35193330  0.20312453  1
  O  O533  1  0.16339545  0.35143018  0.45312509  1
  O  O534  1  0.16252548  0.35208028  0.70166375  1
  O  O535  1  0.16208066  0.35154105  0.95132399  1
  O  O536  1  0.16286000  0.68491320  0.20243917  1
  O  O537  1  0.16258858  0.68518973  0.45196116  1
  O  O538  1  0.16197648  0.68546147  0.70131865  1
  O  O539  1  0.16370380  0.68539147  0.95227359  1
  O  O540  1  0.66162744  0.01730393  0.20305524  1
  O  O541  1  0.66028201  0.01842762  0.45236514  1
  O  O542  1  0.66413338  0.01827992  0.70197220  1
  O  O543  1  0.66377872  0.01778973  0.95307524  1
  O  O544  1  0.66335139  0.35183797  0.20144908  1
  O  O545  1  0.66173039  0.35049823  0.45324256  1
  O  O546  1  0.66195486  0.35194718  0.70164994  1
  O  O547  1  0.66193845  0.35257678  0.95265972  1
  O  O548  1  0.66087078  0.68556879  0.20349715  1
  O  O549  1  0.66009946  0.68570277  0.45185970  1
  O  O550  1  0.66297536  0.68520390  0.70141514  1
  O  O551  1  0.66327615  0.68424755  0.95201935  1
  O  O552  1  0.33779985  0.31508741  0.04861885  1
  O  O553  1  0.33764298  0.31427546  0.29807179  1
  O  O554  1  0.33639739  0.31545098  0.54700995  1
  O  O555  1  0.33699278  0.31566699  0.79667446  1
  O  O556  1  0.33836642  0.64927796  0.04642088  1
  O  O557  1  0.33623405  0.64927435  0.29793495  1
  O  O558  1  0.33922845  0.64884997  0.54729035  1
  O  O559  1  0.34009012  0.64752506  0.79723007  1
  O  O560  1  0.33878878  0.98051238  0.04853167  1
  O  O561  1  0.33720340  0.98172022  0.29806364  1
  O  O562  1  0.33649180  0.98084536  0.54721953  1
  O  O563  1  0.33496821  0.98178357  0.79725227  1
  O  O564  1  0.83948594  0.31500438  0.04800884  1
  O  O565  1  0.83787062  0.31594211  0.29683200  1
  O  O566  1  0.83636325  0.31442388  0.54829424  1
  O  O567  1  0.84000725  0.31427543  0.79754447  1
  O  O568  1  0.83562887  0.64978099  0.04786597  1
  O  O569  1  0.83805600  0.64743411  0.29894031  1
  O  O570  1  0.83870555  0.64877474  0.54747385  1
  O  O571  1  0.83815023  0.64924851  0.79594214  1
  O  O572  1  0.83969163  0.97978119  0.04882400  1
  O  O573  1  0.83634593  0.98149615  0.29828825  1
  O  O574  1  0.83542236  0.98165299  0.54685602  1
  O  O575  1  0.83902020  0.98140172  0.79716741  1
  O  O576  1  0.41076540  0.14861048  0.17326486  1
  O  O577  1  0.41246043  0.14782281  0.42235494  1
  O  O578  1  0.41536282  0.14802298  0.67227066  1
  O  O579  1  0.41255574  0.14768478  0.92215887  1
  O  O580  1  0.41394710  0.48096146  0.17277189  1
  O  O581  1  0.41019794  0.48148839  0.42263324  1
  O  O582  1  0.41255509  0.48238768  0.67199066  1
  O  O583  1  0.41194695  0.48279433  0.92101706  1
  O  O584  1  0.41076365  0.81592044  0.17294125  1
  O  O585  1  0.41107593  0.81554588  0.42225719  1
  O  O586  1  0.41402658  0.81502257  0.67229271  1
  O  O587  1  0.41246775  0.81415990  0.92311156  1
  O  O588  1  0.91407188  0.14753807  0.17343250  1
  O  O589  1  0.91524012  0.14776419  0.42255876  1
  O  O590  1  0.91172197  0.14930800  0.67132518  1
  O  O591  1  0.91161889  0.14829980  0.92145001  1
  O  O592  1  0.91125464  0.48103107  0.17343223  1
  O  O593  1  0.91247003  0.48318310  0.42104700  1
  O  O594  1  0.91412811  0.48168740  0.67179530  1
  O  O595  1  0.91412830  0.48149181  0.92344024  1
  O  O596  1  0.91345210  0.81617739  0.17250708  1
  O  O597  1  0.91501870  0.81465276  0.42303011  1
  O  O598  1  0.91284608  0.81432008  0.67281871  1
  O  O599  1  0.91120561  0.81612910  0.92230695  1
  O  O600  1  0.08653577  0.18369936  0.07858176  1
  O  O601  1  0.08958996  0.18410732  0.32778911  1
  O  O602  1  0.08730989  0.18633430  0.57672352  1
  O  O603  1  0.08556452  0.18592003  0.82712533  1
  O  O604  1  0.08888352  0.51972269  0.07848578  1
  O  O605  1  0.08740637  0.51951844  0.32632051  1
  O  O606  1  0.08657307  0.51850485  0.57734698  1
  O  O607  1  0.08710119  0.51727748  0.82806701  1
  O  O608  1  0.08765848  0.85161237  0.07802784  1
  O  O609  1  0.09021677  0.85109522  0.32775035  1
  O  O610  1  0.08896931  0.85017432  0.57822324  1
  O  O611  1  0.08615139  0.85151263  0.82684298  1
  O  O612  1  0.58572300  0.18584282  0.07747840  1
  O  O613  1  0.58582937  0.18455371  0.32779986  1
  O  O614  1  0.58884670  0.18495808  0.57708084  1
  O  O615  1  0.58808801  0.18482086  0.82761843  1
  O  O616  1  0.58769974  0.51678976  0.07768682  1
  O  O617  1  0.58488260  0.51945160  0.32784284  1
  O  O618  1  0.58544023  0.51792316  0.57717076  1
  O  O619  1  0.58760071  0.52026628  0.82739640  1
  O  O620  1  0.58543819  0.85159830  0.07809423  1
  O  O621  1  0.58700498  0.85135449  0.32741932  1
  O  O622  1  0.58841465  0.85124232  0.57678799  1
  O  O623  1  0.58764554  0.84995506  0.82853609  1
  O  O624  1  0.33794320  0.18515076  0.04847122  1
  O  O625  1  0.33723850  0.18421311  0.29784260  1
  O  O626  1  0.33652058  0.18534723  0.54740703  1
  O  O627  1  0.33708628  0.18534075  0.79696117  1
  O  O628  1  0.33827954  0.51916820  0.04691102  1
  O  O629  1  0.33660211  0.51937024  0.29823916  1
  O  O630  1  0.33942856  0.51863636  0.54722006  1
  O  O631  1  0.33910074  0.51740617  0.79651425  1
  O  O632  1  0.33804135  0.85048357  0.04808086  1
  O  O633  1  0.33750221  0.85170045  0.29768412  1
  O  O634  1  0.33624401  0.85075728  0.54689375  1
  O  O635  1  0.33540480  0.85178008  0.79716982  1
  O  O636  1  0.83950924  0.18504308  0.04827832  1
  O  O637  1  0.83801157  0.18568898  0.29794585  1
  O  O638  1  0.83680111  0.18458969  0.54744413  1
  O  O639  1  0.83923008  0.18404079  0.79646174  1
  O  O640  1  0.83596044  0.51981059  0.04809411  1
  O  O641  1  0.83772960  0.51735030  0.29793164  1
  O  O642  1  0.83866409  0.51879643  0.54749281  1
  O  O643  1  0.83825665  0.51896673  0.79683909  1
  O  O644  1  0.83875148  0.84974324  0.04772464  1
  O  O645  1  0.83630437  0.85146274  0.29815417  1
  O  O646  1  0.83515613  0.85174312  0.54742161  1
  O  O647  1  0.83871559  0.85126183  0.79721666  1
  O  O648  1  0.16277552  0.14798306  0.20262174  1
  O  O649  1  0.16191722  0.14861993  0.45191227  1
  O  O650  1  0.16210703  0.14761797  0.70243504  1
  O  O651  1  0.16187892  0.14848157  0.95308550  1
  O  O652  1  0.16279814  0.48228869  0.20333471  1
  O  O653  1  0.16319582  0.48145060  0.45278213  1
  O  O654  1  0.16297700  0.48201706  0.70157911  1
  O  O655  1  0.16195247  0.48150504  0.95119765  1
  O  O656  1  0.16246069  0.81499092  0.20268780  1
  O  O657  1  0.16273653  0.81509278  0.45247115  1
  O  O658  1  0.16157981  0.81540358  0.70234555  1
  O  O659  1  0.16361580  0.81524931  0.95267174  1
  O  O660  1  0.66153698  0.14766951  0.20269517  1
  O  O661  1  0.66034072  0.14860802  0.45233340  1
  O  O662  1  0.66456870  0.14808413  0.70164502  1
  O  O663  1  0.66372253  0.14811716  0.95277894  1
  O  O664  1  0.66290155  0.48173387  0.20229125  1
  O  O665  1  0.66170115  0.48083213  0.45241414  1
  O  O666  1  0.66219869  0.48179362  0.70106346  1
  O  O667  1  0.66202726  0.48298423  0.95357517  1
  O  O668  1  0.66139563  0.81575082  0.20332405  1
  O  O669  1  0.66037675  0.81572658  0.45272869  1
  O  O670  1  0.66251305  0.81500493  0.70224037  1
  O  O671  1  0.66302733  0.81427605  0.95179908  1
