# generated using pymatgen
data_Na2MnFe(PO4)2
_symmetry_space_group_name_H-M   'P 1'
_cell_length_a   21.08209183
_cell_length_b   18.93396160
_cell_length_c   20.04132479
_cell_angle_alpha   89.99992242
_cell_angle_beta   89.99686943
_cell_angle_gamma   90.00017990
_symmetry_Int_Tables_number   1
_chemical_formula_structural   Na2MnFe(PO4)2
_chemical_formula_sum   'Na96 Mn48 Fe48 P96 O384'
_cell_volume   7999.84584337
_cell_formula_units_Z   48
loop_
 _symmetry_equiv_pos_site_id
 _symmetry_equiv_pos_as_xyz
  1  'x, y, z'
loop_
 _atom_site_type_symbol
 _atom_site_label
 _atom_site_symmetry_multiplicity
 _atom_site_fract_x
 _atom_site_fract_y
 _atom_site_fract_z
 _atom_site_occupancy
  Na  Na0  1  0.00055821  0.00044019  0.00048609  1
  Na  Na1  1  0.00143410  0.00105987  0.24984902  1
  Na  Na2  1  -0.00058145  0.00015092  0.50005590  1
  Na  Na3  1  -0.00086291  -0.00022319  0.74948896  1
  Na  Na4  1  0.00161211  0.33306530  0.00000935  1
  Na  Na5  1  -0.00000247  0.33270504  0.24989402  1
  Na  Na6  1  0.00092940  0.33315442  0.49948471  1
  Na  Na7  1  0.00254524  0.33359427  0.75088036  1
  Na  Na8  1  -0.00029527  0.66709644  0.00163550  1
  Na  Na9  1  0.00040100  0.66724218  0.24997874  1
  Na  Na10  1  0.00214511  0.66786721  0.49820199  1
  Na  Na11  1  0.00202714  0.66802097  0.74967460  1
  Na  Na12  1  0.49878948  -0.00011389  0.00086486  1
  Na  Na13  1  0.50106762  0.00041184  0.24899209  1
  Na  Na14  1  0.50047480  0.00000151  0.49988354  1
  Na  Na15  1  0.49886137  -0.00012337  0.74996997  1
  Na  Na16  1  0.50074867  0.33214533  0.00027887  1
  Na  Na17  1  0.49957269  0.33207196  0.25063740  1
  Na  Na18  1  0.50047753  0.33246823  0.50002223  1
  Na  Na19  1  0.50133389  0.33224798  0.74987673  1
  Na  Na20  1  0.50172796  0.66745531  -0.00028016  1
  Na  Na21  1  0.50093999  0.66740189  0.24975764  1
  Na  Na22  1  0.49938573  0.66685789  0.50033526  1
  Na  Na23  1  0.50153420  0.66756442  0.75014276  1
  Na  Na24  1  0.24999847  0.00011247  0.12514864  1
  Na  Na25  1  0.24805102  -0.00060895  0.37431858  1
  Na  Na26  1  0.24749792  -0.00065163  0.62490694  1
  Na  Na27  1  0.25162318  0.00095176  0.87577627  1
  Na  Na28  1  0.24971735  0.33210733  0.12441304  1
  Na  Na29  1  0.25038800  0.33304388  0.37514610  1
  Na  Na30  1  0.24919833  0.33229656  0.62393404  1
  Na  Na31  1  0.24949507  0.33220848  0.87605135  1
  Na  Na32  1  0.24733461  0.66621154  0.12441162  1
  Na  Na33  1  0.24825092  0.66653963  0.37550320  1
  Na  Na34  1  0.24871297  0.66709922  0.62471419  1
  Na  Na35  1  0.24924539  0.66753146  0.87552468  1
  Na  Na36  1  0.74788773  -0.00071408  0.12444307  1
  Na  Na37  1  0.75016085  -0.00011891  0.37466870  1
  Na  Na38  1  0.75348768  0.00108652  0.62569222  1
  Na  Na39  1  0.75083210  0.00047703  0.87503896  1
  Na  Na40  1  0.75017176  0.33297755  0.12512256  1
  Na  Na41  1  0.74950951  0.33225691  0.37412016  1
  Na  Na42  1  0.74762384  0.33159828  0.62588656  1
  Na  Na43  1  0.74912649  0.33245938  0.87501081  1
  Na  Na44  1  0.74863009  0.66715232  0.12447761  1
  Na  Na45  1  0.74996864  0.66763996  0.37571548  1
  Na  Na46  1  0.74765782  0.66625809  0.62544864  1
  Na  Na47  1  0.74827501  0.66718399  0.87459223  1
  Na  Na48  1  0.00207970  0.16640027  -0.00064678  1
  Na  Na49  1  0.00199301  0.16604692  0.24953789  1
  Na  Na50  1  0.00131123  0.16589398  0.50057738  1
  Na  Na51  1  0.00218031  0.16569687  0.74988729  1
  Na  Na52  1  0.00002110  0.49998063  0.00114024  1
  Na  Na53  1  0.00052037  0.49928004  0.25047051  1
  Na  Na54  1  0.00170175  0.49922494  0.49862490  1
  Na  Na55  1  0.00136476  0.50019369  0.74984786  1
  Na  Na56  1  -0.00043273  0.83366107  0.00150317  1
  Na  Na57  1  -0.00041632  0.83365382  0.24991685  1
  Na  Na58  1  -0.00035358  0.83397844  0.49847748  1
  Na  Na59  1  -0.00003353  0.83354779  0.75027071  1
  Na  Na60  1  0.50039420  0.16673219  0.00027054  1
  Na  Na61  1  0.50189383  0.16591560  0.24956253  1
  Na  Na62  1  0.50102111  0.16667859  0.50006279  1
  Na  Na63  1  0.50111040  0.16633234  0.75013197  1
  Na  Na64  1  0.50174824  0.49953629  0.00066108  1
  Na  Na65  1  0.49958230  0.50044470  0.24936788  1
  Na  Na66  1  0.49914855  0.50070863  0.50051856  1
  Na  Na67  1  0.50189229  0.49923718  0.74986834  1
  Na  Na68  1  0.49994266  0.83372852  -0.00007594  1
  Na  Na69  1  0.49989491  0.83382772  0.25036573  1
  Na  Na70  1  0.50005678  0.83313775  0.49971285  1
  Na  Na71  1  0.49951836  0.83339194  0.75035107  1
  Na  Na72  1  0.24941139  0.16681126  0.12539974  1
  Na  Na73  1  0.24828542  0.16691982  0.37474914  1
  Na  Na74  1  0.24813183  0.16679538  0.62436629  1
  Na  Na75  1  0.24935939  0.16667941  0.87550183  1
  Na  Na76  1  0.24833749  0.50052315  0.12476811  1
  Na  Na77  1  0.24883144  0.50038931  0.37532533  1
  Na  Na78  1  0.24788512  0.50099173  0.62425542  1
  Na  Na79  1  0.25045849  0.49929626  0.87583509  1
  Na  Na80  1  0.24939912  0.83428058  0.12383686  1
  Na  Na81  1  0.24944158  0.83393938  0.37487188  1
  Na  Na82  1  0.24922297  0.83368053  0.62494735  1
  Na  Na83  1  0.25083424  0.83298762  0.87598307  1
  Na  Na84  1  0.74733663  0.16699096  0.12552242  1
  Na  Na85  1  0.74816469  0.16706149  0.37319696  1
  Na  Na86  1  0.75017084  0.16572051  0.62568361  1
  Na  Na87  1  0.74780674  0.16708552  0.87594339  1
  Na  Na88  1  0.74974398  0.49994931  0.12432667  1
  Na  Na89  1  0.75010814  0.50012254  0.37534380  1
  Na  Na90  1  0.74994593  0.49933307  0.62581988  1
  Na  Na91  1  0.74791050  0.50065572  0.87493403  1
  Na  Na92  1  0.75033179  0.83342303  0.12386419  1
  Na  Na93  1  0.75105707  0.83346567  0.37619804  1
  Na  Na94  1  0.75046779  0.83383227  0.62506090  1
  Na  Na95  1  0.75151337  0.83302338  0.87419977  1
  Mn  Mn96  1  0.35734851  0.08328737  0.25251602  1
  Mn  Mn97  1  0.14149703  0.58303099  0.99756170  1
  Mn  Mn98  1  0.89292376  0.24968159  0.87738280  1
  Mn  Mn99  1  0.39173924  0.58350671  0.62787158  1
  Mn  Mn100  1  0.60827657  0.41704284  0.62237054  1
  Mn  Mn101  1  0.64171018  0.58261375  0.49728375  1
  Mn  Mn102  1  0.89310883  0.58369237  0.62714950  1
  Mn  Mn103  1  0.85805014  0.75004988  0.50296338  1
  Mn  Mn104  1  0.35816180  0.75010196  0.00248847  1
  Mn  Mn105  1  0.14201029  0.91703371  0.74816311  1
  Mn  Mn106  1  0.35731666  0.08287536  0.50134674  1
  Mn  Mn107  1  0.14185435  0.24977072  0.49722585  1
  Mn  Mn108  1  0.35774431  0.41671770  0.75253760  1
  Mn  Mn109  1  0.85755085  0.08378437  0.00206169  1
  Mn  Mn110  1  0.39130684  0.91655920  0.62688422  1
  Mn  Mn111  1  0.89193620  0.58413129  0.87694814  1
  Mn  Mn112  1  0.60894267  0.08213586  0.62266402  1
  Mn  Mn113  1  0.64270511  0.91692660  0.74790137  1
  Mn  Mn114  1  0.35751640  0.41699470  0.50208143  1
  Mn  Mn115  1  0.64294923  0.91758911  0.49793971  1
  Mn  Mn116  1  0.89237812  0.91781511  0.12770473  1
  Mn  Mn117  1  0.39322374  0.58299776  0.87700827  1
  Mn  Mn118  1  0.60755189  0.41666969  0.37234040  1
  Mn  Mn119  1  0.60758961  0.75046755  0.37252543  1
  Mn  Mn120  1  0.89206695  0.58267624  0.12815058  1
  Mn  Mn121  1  0.14202497  0.58293498  0.74761238  1
  Mn  Mn122  1  0.60823969  0.41644801  0.12311377  1
  Mn  Mn123  1  0.89256393  0.25010665  0.62743404  1
  Mn  Mn124  1  0.39257995  0.24975359  0.62737284  1
  Mn  Mn125  1  0.10796004  0.41573254  0.37158156  1
  Mn  Mn126  1  0.89183387  0.24885088  0.37677344  1
  Mn  Mn127  1  0.64195286  0.91700305  0.99707436  1
  Mn  Mn128  1  0.85784516  0.41585255  0.50296663  1
  Mn  Mn129  1  0.85763932  0.41656198  0.00193867  1
  Mn  Mn130  1  0.10858930  0.41702482  0.87232570  1
  Mn  Mn131  1  0.85813172  0.74973233  0.75207122  1
  Mn  Mn132  1  0.35850082  0.41622030  0.00231979  1
  Mn  Mn133  1  0.85791166  0.41616536  0.75222347  1
  Mn  Mn134  1  0.35715715  0.74963939  0.25140474  1
  Mn  Mn135  1  0.35718262  0.41709934  0.25211902  1
  Mn  Mn136  1  0.64223872  0.58301771  0.99750748  1
  Mn  Mn137  1  0.39241359  0.58360361  0.12764900  1
  Mn  Mn138  1  0.85709563  0.08309862  0.25167861  1
  Mn  Mn139  1  0.35728500  0.08330259  0.75215611  1
  Mn  Mn140  1  0.14275352  0.91741219  0.99763919  1
  Mn  Mn141  1  0.35691089  0.75039107  0.50192579  1
  Mn  Mn142  1  0.10750463  0.75098908  0.37151361  1
  Mn  Mn143  1  0.89192045  0.58349500  0.37680849  1
  Fe  Fe144  1  0.85718384  0.41697824  0.25101408  1
  Fe  Fe145  1  0.14261397  0.25022282  0.24734477  1
  Fe  Fe146  1  0.64231166  0.25028755  0.24778002  1
  Fe  Fe147  1  0.85765568  0.08410293  0.50113255  1
  Fe  Fe148  1  0.39311362  0.24949686  0.12704023  1
  Fe  Fe149  1  0.10791360  0.41683998  0.62301916  1
  Fe  Fe150  1  0.10779599  0.08380968  0.12290090  1
  Fe  Fe151  1  0.60779437  0.08281766  0.37360170  1
  Fe  Fe152  1  0.60799922  0.75097775  0.12359708  1
  Fe  Fe153  1  0.60660709  0.08280594  0.12304953  1
  Fe  Fe154  1  0.39284351  0.91701955  0.87647880  1
  Fe  Fe155  1  0.89316840  0.91663089  0.87652099  1
  Fe  Fe156  1  0.10656443  0.08277783  0.62301602  1
  Fe  Fe157  1  0.60651691  0.08296529  0.87340842  1
  Fe  Fe158  1  0.39239828  0.91706141  0.37620809  1
  Fe  Fe159  1  0.10792643  0.75044981  0.62344390  1
  Fe  Fe160  1  0.14230869  0.58371886  0.49798077  1
  Fe  Fe161  1  0.10695852  0.08313839  0.37323730  1
  Fe  Fe162  1  0.60757821  0.41598581  0.87312916  1
  Fe  Fe163  1  0.60749664  0.75057966  0.87269977  1
  Fe  Fe164  1  0.85805243  0.08390356  0.75236027  1
  Fe  Fe165  1  0.10785253  0.08237766  0.87310647  1
  Fe  Fe166  1  0.85662053  0.74985101  0.25076093  1
  Fe  Fe167  1  0.39310945  0.24943970  0.37613373  1
  Fe  Fe168  1  0.35767871  0.08387594  0.00170801  1
  Fe  Fe169  1  0.14297658  0.25014274  0.74849622  1
  Fe  Fe170  1  0.89252388  0.91748288  0.37587391  1
  Fe  Fe171  1  0.89367110  0.91647909  0.62625957  1
  Fe  Fe172  1  0.35710963  0.74989489  0.75197163  1
  Fe  Fe173  1  0.10694395  0.75079039  0.87378738  1
  Fe  Fe174  1  0.64218877  0.58312239  0.74823181  1
  Fe  Fe175  1  0.14214544  0.58322900  0.24813924  1
  Fe  Fe176  1  0.39334539  0.91680037  0.12727493  1
  Fe  Fe177  1  0.14232257  0.91661475  0.24778600  1
  Fe  Fe178  1  0.64262666  0.24962462  0.74884919  1
  Fe  Fe179  1  0.10713286  0.41611089  0.12370082  1
  Fe  Fe180  1  0.39166359  0.58348566  0.37614856  1
  Fe  Fe181  1  0.89322579  0.24993124  0.12619910  1
  Fe  Fe182  1  0.85723013  0.74997464  0.00147212  1
  Fe  Fe183  1  0.60678246  0.75055405  0.62380368  1
  Fe  Fe184  1  0.64225333  0.58370057  0.24903464  1
  Fe  Fe185  1  0.64276551  0.24941041  0.49809367  1
  Fe  Fe186  1  0.10662630  0.75020153  0.12340433  1
  Fe  Fe187  1  0.64220760  0.24999760  0.99830876  1
  Fe  Fe188  1  0.64229518  0.91604206  0.24860084  1
  Fe  Fe189  1  0.39305579  0.24937292  0.87665546  1
  Fe  Fe190  1  0.14135629  0.91648160  0.49750958  1
  Fe  Fe191  1  0.14339985  0.24964652  0.99843393  1
  P  P192  1  0.05456703  0.25003557  0.11048494  1
  P  P193  1  0.05388488  0.24870526  0.35888628  1
  P  P194  1  0.05484364  0.24982639  0.61138967  1
  P  P195  1  0.05590763  0.24868202  0.86077460  1
  P  P196  1  0.05458371  0.58307586  0.11184236  1
  P  P197  1  0.05487981  0.58345468  0.35981498  1
  P  P198  1  0.05440475  0.58369916  0.60886446  1
  P  P199  1  0.05300525  0.58485582  0.86020782  1
  P  P200  1  0.05493809  0.91707946  0.11137745  1
  P  P201  1  0.05355034  0.91784886  0.35999902  1
  P  P202  1  0.05308761  0.91677570  0.60955068  1
  P  P203  1  0.05254603  0.91666334  0.86056541  1
  P  P204  1  0.55438905  0.24909866  0.11079687  1
  P  P205  1  0.55436095  0.24883664  0.36056221  1
  P  P206  1  0.55577385  0.24928303  0.61033475  1
  P  P207  1  0.55405973  0.24910708  0.86104884  1
  P  P208  1  0.55513497  0.58452491  0.11134840  1
  P  P209  1  0.55189343  0.58342499  0.35935938  1
  P  P210  1  0.55423031  0.58458444  0.61103790  1
  P  P211  1  0.55447684  0.58328029  0.85957971  1
  P  P212  1  0.55390944  0.91653543  0.11125819  1
  P  P213  1  0.55280713  0.91760544  0.35961457  1
  P  P214  1  0.55320167  0.91574921  0.60998791  1
  P  P215  1  0.55223180  0.91743718  0.86019201  1
  P  P216  1  0.44608968  0.08357715  0.13873644  1
  P  P217  1  0.44782976  0.08316369  0.38939108  1
  P  P218  1  0.44689170  0.08321975  0.63993412  1
  P  P219  1  0.44675704  0.08351682  0.89039791  1
  P  P220  1  0.44692796  0.41530727  0.14020530  1
  P  P221  1  0.44629171  0.41650056  0.38970357  1
  P  P222  1  0.44691102  0.41635945  0.64032388  1
  P  P223  1  0.44851499  0.41549611  0.88984774  1
  P  P224  1  0.44816866  0.75100875  0.13995018  1
  P  P225  1  0.44583657  0.75026992  0.38952884  1
  P  P226  1  0.44642523  0.75021980  0.64076264  1
  P  P227  1  0.44690052  0.75056565  0.88877824  1
  P  P228  1  0.94801626  0.08475233  0.13958989  1
  P  P229  1  0.94703032  0.08277952  0.38995931  1
  P  P230  1  0.94592509  0.08291439  0.63925492  1
  P  P231  1  0.94710521  0.08277287  0.88899593  1
  P  P232  1  0.94714851  0.41525597  0.14033681  1
  P  P233  1  0.94514659  0.41612533  0.38867051  1
  P  P234  1  0.94870799  0.41654579  0.64011488  1
  P  P235  1  0.94732373  0.41671468  0.89030325  1
  P  P236  1  0.94574919  0.75022853  0.13970189  1
  P  P237  1  0.94464636  0.75109512  0.38798476  1
  P  P238  1  0.94853444  0.75078215  0.63952408  1
  P  P239  1  0.94722546  0.75099304  0.89084114  1
  P  P240  1  0.19453445  0.08328735  0.23562894  1
  P  P241  1  0.19418246  0.08219100  0.48510356  1
  P  P242  1  0.19469631  0.08390139  0.73555453  1
  P  P243  1  0.19628801  0.08413994  0.98584351  1
  P  P244  1  0.19606389  0.41619421  0.23412715  1
  P  P245  1  0.19506493  0.41725324  0.48557199  1
  P  P246  1  0.19656690  0.41554274  0.73416284  1
  P  P247  1  0.19568929  0.41545805  0.98647811  1
  P  P248  1  0.19568802  0.75051274  0.23396957  1
  P  P249  1  0.19433837  0.75058687  0.48586033  1
  P  P250  1  0.19598533  0.75059433  0.73575796  1
  P  P251  1  0.19477356  0.75048473  0.98555991  1
  P  P252  1  0.69407411  0.08250902  0.23546795  1
  P  P253  1  0.69780146  0.08383230  0.48414436  1
  P  P254  1  0.69692492  0.08354689  0.73672969  1
  P  P255  1  0.69435575  0.08393178  0.98562712  1
  P  P256  1  0.69766793  0.41692941  0.23516986  1
  P  P257  1  0.69684706  0.41525004  0.48463366  1
  P  P258  1  0.69513118  0.41618683  0.73652954  1
  P  P259  1  0.69588684  0.41536267  0.98439900  1
  P  P260  1  0.69703002  0.75070268  0.23479903  1
  P  P261  1  0.69549125  0.75053970  0.48632336  1
  P  P262  1  0.69489585  0.74994740  0.73542522  1
  P  P263  1  0.69596524  0.75069201  0.98500456  1
  P  P264  1  0.30485056  0.24877368  0.01456469  1
  P  P265  1  0.30362139  0.24975966  0.26430186  1
  P  P266  1  0.30461348  0.24936085  0.51353952  1
  P  P267  1  0.30266278  0.24975190  0.76570229  1
  P  P268  1  0.30354903  0.58341554  0.01510783  1
  P  P269  1  0.30170544  0.58366275  0.26529757  1
  P  P270  1  0.30296943  0.58380964  0.51396168  1
  P  P271  1  0.30281353  0.58425485  0.76542785  1
  P  P272  1  0.30602944  0.91795598  0.01451007  1
  P  P273  1  0.30350589  0.91660482  0.26408184  1
  P  P274  1  0.30223012  0.91706245  0.51363771  1
  P  P275  1  0.30358484  0.91594906  0.76588919  1
  P  P276  1  0.80260010  0.24952323  0.01573932  1
  P  P277  1  0.80328287  0.25015768  0.26296902  1
  P  P278  1  0.80216302  0.24862352  0.51496286  1
  P  P279  1  0.80254080  0.24895768  0.76536716  1
  P  P280  1  0.80348247  0.58444025  0.01484163  1
  P  P281  1  0.80177746  0.58370981  0.26467244  1
  P  P282  1  0.80305275  0.58328535  0.51565910  1
  P  P283  1  0.80185817  0.58335479  0.76490926  1
  P  P284  1  0.80483226  0.91628934  0.01351701  1
  P  P285  1  0.80241058  0.91604665  0.26504340  1
  P  P286  1  0.80581767  0.91822293  0.51448563  1
  P  P287  1  0.80607356  0.91737974  0.76434010  1
  O  O288  1  0.05863071  0.24994579  0.18721006  1
  O  O289  1  0.05668602  0.24981455  0.43576533  1
  O  O290  1  0.05854395  0.25004110  0.68809313  1
  O  O291  1  0.05975831  0.24944258  0.93757257  1
  O  O292  1  0.05837955  0.58317084  0.18861982  1
  O  O293  1  0.05906173  0.58344249  0.43655978  1
  O  O294  1  0.05688355  0.58374547  0.68574173  1
  O  O295  1  0.05554846  0.58387862  0.93702939  1
  O  O296  1  0.05849615  0.91692969  0.18815013  1
  O  O297  1  0.05761177  0.91687544  0.43671435  1
  O  O298  1  0.05639935  0.91658780  0.68626403  1
  O  O299  1  0.05612212  0.91710053  0.93727324  1
  O  O300  1  0.55903559  0.25019376  0.18756324  1
  O  O301  1  0.55892110  0.24956232  0.43726406  1
  O  O302  1  0.56001005  0.24902397  0.68715583  1
  O  O303  1  0.55816555  0.24949716  0.93777832  1
  O  O304  1  0.55936420  0.58375999  0.18812830  1
  O  O305  1  0.55573915  0.58335354  0.43610416  1
  O  O306  1  0.55856975  0.58348276  0.68777559  1
  O  O307  1  0.55689658  0.58330044  0.93645955  1
  O  O308  1  0.55836721  0.91618676  0.18790982  1
  O  O309  1  0.55683454  0.91699390  0.43628082  1
  O  O310  1  0.55648552  0.91678725  0.68672970  1
  O  O311  1  0.55556017  0.91730507  0.93689513  1
  O  O312  1  0.44176138  0.08392736  0.06211181  1
  O  O313  1  0.44417893  0.08322978  0.31266099  1
  O  O314  1  0.44332464  0.08336255  0.56319002  1
  O  O315  1  0.44327198  0.08383271  0.81367840  1
  O  O316  1  0.44426247  0.41584385  0.06339701  1
  O  O317  1  0.44348809  0.41655899  0.31288937  1
  O  O318  1  0.44321826  0.41639790  0.56353662  1
  O  O319  1  0.44470707  0.41596010  0.81316772  1
  O  O320  1  0.44457219  0.75026121  0.06323759  1
  O  O321  1  0.44294086  0.75022102  0.31278556  1
  O  O322  1  0.44230856  0.75007980  0.56401549  1
  O  O323  1  0.44182125  0.74992345  0.81218001  1
  O  O324  1  0.94394476  0.08413199  0.06293552  1
  O  O325  1  0.94311336  0.08361449  0.31326017  1
  O  O326  1  0.94149489  0.08426367  0.56257938  1
  O  O327  1  0.94241823  0.08384781  0.81230100  1
  O  O328  1  0.94346070  0.41605745  0.06361843  1
  O  O329  1  0.94015616  0.41637586  0.31190161  1
  O  O330  1  0.94462155  0.41598042  0.56336060  1
  O  O331  1  0.94392632  0.41654964  0.81350027  1
  O  O332  1  0.94096433  0.75010592  0.06304561  1
  O  O333  1  0.94007498  0.75014315  0.31126158  1
  O  O334  1  0.94476282  0.75008809  0.56281819  1
  O  O335  1  0.94390938  0.74998064  0.81406805  1
  O  O336  1  0.19159915  0.08334835  0.06256222  1
  O  O337  1  0.19070973  0.08315773  0.31239670  1
  O  O338  1  0.19022305  0.08267965  0.56190810  1
  O  O339  1  0.19129909  0.08248197  0.81240287  1
  O  O340  1  0.19124086  0.41613707  0.06315092  1
  O  O341  1  0.19381115  0.41596659  0.31097574  1
  O  O342  1  0.19113748  0.41649621  0.56233741  1
  O  O343  1  0.19412682  0.41638386  0.81105271  1
  O  O344  1  0.19003057  0.75059190  0.06226128  1
  O  O345  1  0.19335962  0.75086420  0.31089289  1
  O  O346  1  0.19089869  0.75097810  0.56265491  1
  O  O347  1  0.19111951  0.75089691  0.81244655  1
  O  O348  1  0.69010819  0.08273912  0.06240814  1
  O  O349  1  0.69065762  0.08253991  0.31228208  1
  O  O350  1  0.69473574  0.08260675  0.56092252  1
  O  O351  1  0.69145757  0.08263318  0.81333175  1
  O  O352  1  0.69320629  0.41603942  0.06120738  1
  O  O353  1  0.69414141  0.41663603  0.31186118  1
  O  O354  1  0.69390432  0.41619612  0.56144537  1
  O  O355  1  0.69118770  0.41623653  0.81331849  1
  O  O356  1  0.69123738  0.75122210  0.06172226  1
  O  O357  1  0.69374089  0.75103130  0.31156721  1
  O  O358  1  0.69098599  0.75073568  0.56301971  1
  O  O359  1  0.69071183  0.75122577  0.81228259  1
  O  O360  1  0.30882215  0.24932148  0.18761793  1
  O  O361  1  0.30938046  0.24912799  0.43678895  1
  O  O362  1  0.30640363  0.24944873  0.68894023  1
  O  O363  1  0.30974292  0.24937672  0.93786577  1
  O  O364  1  0.30602520  0.58377363  0.18860317  1
  O  O365  1  0.30811638  0.58364276  0.43727319  1
  O  O366  1  0.30544632  0.58390054  0.68857435  1
  O  O367  1  0.30746280  0.58356380  0.93835264  1
  O  O368  1  0.30904118  0.91690110  0.18741728  1
  O  O369  1  0.30785274  0.91734199  0.43698097  1
  O  O370  1  0.30588936  0.91668794  0.68903043  1
  O  O371  1  0.31028528  0.91704738  0.93772008  1
  O  O372  1  0.80852739  0.24930154  0.18639914  1
  O  O373  1  0.80570640  0.24916414  0.43822465  1
  O  O374  1  0.80655899  0.24933004  0.68866724  1
  O  O375  1  0.80687622  0.24916031  0.93903897  1
  O  O376  1  0.80524906  0.58361474  0.18790992  1
  O  O377  1  0.80660385  0.58377637  0.43885989  1
  O  O378  1  0.80630545  0.58353142  0.68823950  1
  O  O379  1  0.80623598  0.58409998  0.93805780  1
  O  O380  1  0.80613725  0.91711261  0.18826086  1
  O  O381  1  0.80945958  0.91731790  0.43770321  1
  O  O382  1  0.81030977  0.91649067  0.68755237  1
  O  O383  1  0.80925455  0.91698660  0.93678029  1
  O  O384  1  0.23433562  0.24919029  0.03789443  1
  O  O385  1  0.23305405  0.24982106  0.28734049  1
  O  O386  1  0.23438887  0.24941225  0.53708050  1
  O  O387  1  0.23257836  0.24953200  0.79007949  1
  O  O388  1  0.23361725  0.58339921  0.03932635  1
  O  O389  1  0.23143446  0.58342787  0.28916916  1
  O  O390  1  0.23259172  0.58408712  0.53740070  1
  O  O391  1  0.23326783  0.58349601  0.79103695  1
  O  O392  1  0.23574749  0.91753132  0.03804685  1
  O  O393  1  0.23284883  0.91673388  0.28683099  1
  O  O394  1  0.23186752  0.91664775  0.53708796  1
  O  O395  1  0.23400602  0.91679106  0.79147712  1
  O  O396  1  0.73231149  0.24978050  0.03954046  1
  O  O397  1  0.73271617  0.24963103  0.28625751  1
  O  O398  1  0.73227750  0.24863391  0.53993082  1
  O  O399  1  0.73241878  0.24948253  0.78969674  1
  O  O400  1  0.73377925  0.58370841  0.03995277  1
  O  O401  1  0.73183105  0.58395836  0.28987884  1
  O  O402  1  0.73325431  0.58290675  0.54030731  1
  O  O403  1  0.73172780  0.58370870  0.78910124  1
  O  O404  1  0.73471830  0.91675908  0.03740425  1
  O  O405  1  0.73231315  0.91652195  0.28954506  1
  O  O406  1  0.73587040  0.91763129  0.53908598  1
  O  O407  1  0.73591937  0.91686789  0.78836442  1
  O  O408  1  0.26465028  0.08327656  0.21141644  1
  O  O409  1  0.26410460  0.08303349  0.46055366  1
  O  O410  1  0.26457909  0.08313330  0.71081398  1
  O  O411  1  0.26670610  0.08377015  0.96234784  1
  O  O412  1  0.26563272  0.41630802  0.20845969  1
  O  O413  1  0.26494947  0.41674173  0.46102865  1
  O  O414  1  0.26602074  0.41650508  0.70834768  1
  O  O415  1  0.26570465  0.41558816  0.96218971  1
  O  O416  1  0.26524777  0.75042024  0.20827946  1
  O  O417  1  0.26413412  0.75048131  0.46092142  1
  O  O418  1  0.26625880  0.75059945  0.71184717  1
  O  O419  1  0.26507043  0.75045724  0.96227923  1
  O  O420  1  0.76409305  0.08283053  0.21081606  1
  O  O421  1  0.76763676  0.08369423  0.45894903  1
  O  O422  1  0.76732732  0.08349848  0.71321664  1
  O  O423  1  0.76448181  0.08352082  0.96172640  1
  O  O424  1  0.76759748  0.41669761  0.20996449  1
  O  O425  1  0.76638373  0.41571724  0.45920748  1
  O  O426  1  0.76501417  0.41564403  0.71170529  1
  O  O427  1  0.76554753  0.41628739  0.95912952  1
  O  O428  1  0.76705475  0.75045754  0.20981296  1
  O  O429  1  0.76559081  0.75067799  0.46245990  1
  O  O430  1  0.76504146  0.75037165  0.71143293  1
  O  O431  1  0.76632243  0.75033884  0.96134234  1
  O  O432  1  0.01817491  0.08400710  0.16369998  1
  O  O433  1  0.01713307  0.08304964  0.41429791  1
  O  O434  1  0.01639993  0.08286385  0.66285107  1
  O  O435  1  0.01740462  0.08288804  0.91290511  1
  O  O436  1  0.01727620  0.41587967  0.16469125  1
  O  O437  1  0.01542129  0.41592017  0.41191351  1
  O  O438  1  0.01882207  0.41685975  0.66437492  1
  O  O439  1  0.01705516  0.41662747  0.91516542  1
  O  O440  1  0.01621011  0.75043018  0.16311166  1
  O  O441  1  0.01488323  0.75106170  0.41159195  1
  O  O442  1  0.01859643  0.75085930  0.66406882  1
  O  O443  1  0.01716509  0.75079375  0.91580433  1
  O  O444  1  0.51640706  0.08325440  0.16266291  1
  O  O445  1  0.51782657  0.08308450  0.41425478  1
  O  O446  1  0.51665665  0.08285754  0.66476523  1
  O  O447  1  0.51682856  0.08341176  0.91510240  1
  O  O448  1  0.51652120  0.41571918  0.16562677  1
  O  O449  1  0.51586219  0.41664549  0.41536517  1
  O  O450  1  0.51673663  0.41600852  0.66478079  1
  O  O451  1  0.51859660  0.41571688  0.91449249  1
  O  O452  1  0.51811879  0.75101386  0.16476875  1
  O  O453  1  0.51549979  0.75025376  0.41487510  1
  O  O454  1  0.51659291  0.75052543  0.66481776  1
  O  O455  1  0.51739235  0.75042385  0.91232462  1
  O  O456  1  0.48401328  0.24932064  0.08724152  1
  O  O457  1  0.48394711  0.24912092  0.33676194  1
  O  O458  1  0.48566058  0.24952090  0.58652488  1
  O  O459  1  0.48372465  0.24883909  0.83687422  1
  O  O460  1  0.48522490  0.58382758  0.08680738  1
  O  O461  1  0.48174591  0.58378782  0.33500702  1
  O  O462  1  0.48421090  0.58419589  0.58682522  1
  O  O463  1  0.48485387  0.58343086  0.83406114  1
  O  O464  1  0.48365986  0.91687801  0.08719605  1
  O  O465  1  0.48260564  0.91715408  0.33529986  1
  O  O466  1  0.48356811  0.91629724  0.58473598  1
  O  O467  1  0.48223587  0.91725566  0.83532992  1
  O  O468  1  0.98434185  0.24981175  0.08607181  1
  O  O469  1  0.98416816  0.24905369  0.33394205  1
  O  O470  1  0.98502933  0.24941225  0.58631391  1
  O  O471  1  0.98589161  0.24942980  0.83639994  1
  O  O472  1  0.98459519  0.58302373  0.08737349  1
  O  O473  1  0.98480007  0.58350988  0.33585678  1
  O  O474  1  0.98489313  0.58363252  0.58295488  1
  O  O475  1  0.98361510  0.58438421  0.83420971  1
  O  O476  1  0.98500355  0.91742431  0.08685984  1
  O  O477  1  0.98330088  0.91749332  0.33585663  1
  O  O478  1  0.98301293  0.91703385  0.58482160  1
  O  O479  1  0.98271289  0.91666355  0.83547474  1
  O  O480  1  0.08811005  0.31520626  0.07753235  1
  O  O481  1  0.08844459  0.31334771  0.32598693  1
  O  O482  1  0.08840321  0.31488881  0.57821609  1
  O  O483  1  0.09012283  0.31337430  0.82755475  1
  O  O484  1  0.08801357  0.64833257  0.07895000  1
  O  O485  1  0.08854978  0.64849971  0.32675784  1
  O  O486  1  0.08874224  0.64894518  0.57688021  1
  O  O487  1  0.08711797  0.65022489  0.82850618  1
  O  O488  1  0.08877658  0.98218255  0.07850638  1
  O  O489  1  0.08717682  0.98296968  0.32729725  1
  O  O490  1  0.08697450  0.98196348  0.57697403  1
  O  O491  1  0.08655029  0.98156253  0.82766305  1
  O  O492  1  0.58800697  0.31385819  0.07714696  1
  O  O493  1  0.58783065  0.31377193  0.32682436  1
  O  O494  1  0.58952588  0.31418105  0.57714930  1
  O  O495  1  0.58758468  0.31397620  0.82759552  1
  O  O496  1  0.58844209  0.64992952  0.07872302  1
  O  O497  1  0.58629282  0.64829354  0.32679894  1
  O  O498  1  0.58749699  0.65000495  0.57847157  1
  O  O499  1  0.58891782  0.64835612  0.82751009  1
  O  O500  1  0.58726927  0.98170812  0.07810419  1
  O  O501  1  0.58663664  0.98262237  0.32692551  1
  O  O502  1  0.58766626  0.98060953  0.57729500  1
  O  O503  1  0.58592881  0.98270657  0.82760928  1
  O  O504  1  0.41266977  0.01846822  0.17192234  1
  O  O505  1  0.41377460  0.01800569  0.42189944  1
  O  O506  1  0.41253793  0.01824278  0.67224595  1
  O  O507  1  0.41271653  0.01844824  0.92291071  1
  O  O508  1  0.41289442  0.35003968  0.17219413  1
  O  O509  1  0.41235793  0.35106089  0.42170256  1
  O  O510  1  0.41295083  0.35135812  0.67296526  1
  O  O511  1  0.41470130  0.35033408  0.92236460  1
  O  O512  1  0.41423251  0.68599104  0.17279531  1
  O  O513  1  0.41171277  0.68511578  0.42186037  1
  O  O514  1  0.41272575  0.68527421  0.67394530  1
  O  O515  1  0.41381513  0.68558055  0.92263289  1
  O  O516  1  0.91398133  0.01992716  0.17271369  1
  O  O517  1  0.91316088  0.01765620  0.42237509  1
  O  O518  1  0.91262711  0.01759242  0.67197669  1
  O  O519  1  0.91371291  0.01761091  0.92190428  1
  O  O520  1  0.91349001  0.34991901  0.17268751  1
  O  O521  1  0.91205095  0.35084138  0.42185334  1
  O  O522  1  0.91509399  0.35148918  0.67318290  1
  O  O523  1  0.91336804  0.35156760  0.92281911  1
  O  O524  1  0.91243469  0.68523572  0.17323805  1
  O  O525  1  0.91154458  0.68615305  0.42179931  1
  O  O526  1  0.91486755  0.68579069  0.67270669  1
  O  O527  1  0.91290829  0.68618652  0.92378400  1
  O  O528  1  0.16091710  0.01829394  0.20241340  1
  O  O529  1  0.16063873  0.01703739  0.45215604  1
  O  O530  1  0.16029948  0.01928501  0.70230315  1
  O  O531  1  0.16278246  0.01927653  0.95202198  1
  O  O532  1  0.16175088  0.35103549  0.20191710  1
  O  O533  1  0.16130364  0.35225582  0.45236252  1
  O  O534  1  0.16266106  0.35005606  0.70235806  1
  O  O535  1  0.16233607  0.35015736  0.95373257  1
  O  O536  1  0.16121080  0.68537726  0.20215524  1
  O  O537  1  0.16049607  0.68548481  0.45325869  1
  O  O538  1  0.16238691  0.68564179  0.70244552  1
  O  O539  1  0.16117096  0.68565471  0.95218374  1
  O  O540  1  0.66057969  0.01723501  0.20261105  1
  O  O541  1  0.66342516  0.01899757  0.45125691  1
  O  O542  1  0.66408710  0.01850349  0.70261956  1
  O  O543  1  0.66056299  0.01928795  0.95180591  1
  O  O544  1  0.66357530  0.35191230  0.20251818  1
  O  O545  1  0.66292319  0.34983885  0.45273965  1
  O  O546  1  0.66124642  0.35102997  0.70402843  1
  O  O547  1  0.66209974  0.34989331  0.95238540  1
  O  O548  1  0.66280674  0.68570062  0.20242999  1
  O  O549  1  0.66209155  0.68548410  0.45302706  1
  O  O550  1  0.66129554  0.68465915  0.70304577  1
  O  O551  1  0.66219486  0.68570711  0.95211216  1
  O  O552  1  0.33844350  0.31352964  0.04826695  1
  O  O553  1  0.33701446  0.31473385  0.29758991  1
  O  O554  1  0.33783526  0.31447463  0.54678409  1
  O  O555  1  0.33650761  0.31480500  0.79851155  1
  O  O556  1  0.33722402  0.64852827  0.04796907  1
  O  O557  1  0.33525730  0.64874375  0.29829554  1
  O  O558  1  0.33617081  0.64886849  0.54737088  1
  O  O559  1  0.33667990  0.64961660  0.79749420  1
  O  O560  1  0.33915449  0.98326363  0.04747582  1
  O  O561  1  0.33664642  0.98152637  0.29800766  1
  O  O562  1  0.33518512  0.98207833  0.54739665  1
  O  O563  1  0.33844731  0.98075519  0.79820408  1
  O  O564  1  0.83670412  0.31451490  0.04834868  1
  O  O565  1  0.83618597  0.31528461  0.29631729  1
  O  O566  1  0.83606572  0.31357498  0.54805404  1
  O  O567  1  0.83649410  0.31394556  0.79813860  1
  O  O568  1  0.83718592  0.64970234  0.04719550  1
  O  O569  1  0.83573776  0.64886161  0.29707726  1
  O  O570  1  0.83679699  0.64844663  0.54841760  1
  O  O571  1  0.83561116  0.64849281  0.79768943  1
  O  O572  1  0.83833113  0.98122821  0.04709660  1
  O  O573  1  0.83668784  0.98095280  0.29791405  1
  O  O574  1  0.83927975  0.98373734  0.54678170  1
  O  O575  1  0.83950129  0.98261015  0.79726526  1
  O  O576  1  0.41299735  0.14863045  0.17237046  1
  O  O577  1  0.41397292  0.14823815  0.42203194  1
  O  O578  1  0.41313875  0.14824514  0.67284093  1
  O  O579  1  0.41288341  0.14852091  0.92341223  1
  O  O580  1  0.41252977  0.48036568  0.17241611  1
  O  O581  1  0.41198931  0.48174887  0.42176483  1
  O  O582  1  0.41324873  0.48159374  0.67289978  1
  O  O583  1  0.41473119  0.48056362  0.92275755  1
  O  O584  1  0.41405934  0.81606626  0.17228182  1
  O  O585  1  0.41183170  0.81566834  0.42171192  1
  O  O586  1  0.41233367  0.81517811  0.67344043  1
  O  O587  1  0.41373773  0.81577305  0.92193804  1
  O  O588  1  0.91458418  0.14989691  0.17239858  1
  O  O589  1  0.91316109  0.14764860  0.42332384  1
  O  O590  1  0.91261906  0.14763975  0.67347872  1
  O  O591  1  0.91376946  0.14770067  0.92270977  1
  O  O592  1  0.91283581  0.47999430  0.17350567  1
  O  O593  1  0.91213376  0.48126469  0.42204544  1
  O  O594  1  0.91477599  0.48164298  0.67259301  1
  O  O595  1  0.91330991  0.48185517  0.92261908  1
  O  O596  1  0.91226476  0.81521221  0.17297954  1
  O  O597  1  0.91153602  0.81650264  0.42072870  1
  O  O598  1  0.91457690  0.81581386  0.67196611  1
  O  O599  1  0.91320166  0.81623841  0.92303644  1
  O  O600  1  0.08847325  0.18505595  0.07735482  1
  O  O601  1  0.08800273  0.18344570  0.32708193  1
  O  O602  1  0.08867474  0.18453527  0.57879290  1
  O  O603  1  0.08925134  0.18331427  0.82811317  1
  O  O604  1  0.08809037  0.51782215  0.07899130  1
  O  O605  1  0.08862943  0.51853121  0.32672200  1
  O  O606  1  0.08891287  0.51859709  0.57681426  1
  O  O607  1  0.08769011  0.52000093  0.82787314  1
  O  O608  1  0.08834238  0.85191113  0.07842249  1
  O  O609  1  0.08742182  0.85315317  0.32634456  1
  O  O610  1  0.08696011  0.85187530  0.57654448  1
  O  O611  1  0.08638662  0.85144159  0.82813827  1
  O  O612  1  0.58762131  0.18386818  0.07786504  1
  O  O613  1  0.58780107  0.18374864  0.32757938  1
  O  O614  1  0.58934332  0.18426660  0.57709160  1
  O  O615  1  0.58764342  0.18385416  0.82807750  1
  O  O616  1  0.58897674  0.51949468  0.07835809  1
  O  O617  1  0.58578709  0.51841477  0.32652045  1
  O  O618  1  0.58780191  0.51961463  0.57755560  1
  O  O619  1  0.58864049  0.51808117  0.82743758  1
  O  O620  1  0.58723788  0.85156755  0.07773757  1
  O  O621  1  0.58685964  0.85269893  0.32647697  1
  O  O622  1  0.58704960  0.85049390  0.57783328  1
  O  O623  1  0.58642777  0.85259039  0.82759657  1
  O  O624  1  0.33780714  0.18357853  0.04806431  1
  O  O625  1  0.33681952  0.18479286  0.29808631  1
  O  O626  1  0.33765427  0.18428594  0.54702035  1
  O  O627  1  0.33668182  0.18483307  0.79866792  1
  O  O628  1  0.33734682  0.51827506  0.04767668  1
  O  O629  1  0.33558954  0.51872181  0.29824695  1
  O  O630  1  0.33605453  0.51876448  0.54754781  1
  O  O631  1  0.33740607  0.51924625  0.79756513  1
  O  O632  1  0.33969002  0.85310707  0.04806063  1
  O  O633  1  0.33657439  0.85158042  0.29758799  1
  O  O634  1  0.33561569  0.85206933  0.54705256  1
  O  O635  1  0.33767788  0.85066024  0.79788373  1
  O  O636  1  0.83619492  0.18453177  0.04898555  1
  O  O637  1  0.83628425  0.18509486  0.29687116  1
  O  O638  1  0.83622063  0.18348063  0.54727239  1
  O  O639  1  0.83608844  0.18382639  0.79825854  1
  O  O640  1  0.83780760  0.51939554  0.04721744  1
  O  O641  1  0.83577505  0.51853488  0.29701450  1
  O  O642  1  0.83718245  0.51815201  0.54787538  1
  O  O643  1  0.83534108  0.51820743  0.79774220  1
  O  O644  1  0.83807040  0.85099061  0.04637245  1
  O  O645  1  0.83630363  0.85095681  0.29738461  1
  O  O646  1  0.84005137  0.85362325  0.54805280  1
  O  O647  1  0.83991273  0.85251575  0.79765722  1
  O  O648  1  0.16102579  0.14848419  0.20254369  1
  O  O649  1  0.15996586  0.14696595  0.45197292  1
  O  O650  1  0.16122773  0.14930077  0.70318108  1
  O  O651  1  0.16285296  0.14915026  0.95284905  1
  O  O652  1  0.16150815  0.48121868  0.20216823  1
  O  O653  1  0.16158608  0.48247618  0.45293868  1
  O  O654  1  0.16142396  0.48023044  0.70195251  1
  O  O655  1  0.16218133  0.48040749  0.95297800  1
  O  O656  1  0.16129901  0.81556121  0.20179021  1
  O  O657  1  0.16061176  0.81564945  0.45274222  1
  O  O658  1  0.16243905  0.81555029  0.70226973  1
  O  O659  1  0.16154249  0.81561884  0.95211082  1
  O  O660  1  0.65998142  0.14748819  0.20271938  1
  O  O661  1  0.66336958  0.14882710  0.45200385  1
  O  O662  1  0.66360412  0.14863668  0.70364544  1
  O  O663  1  0.66092120  0.14931399  0.95317079  1
  O  O664  1  0.66391149  0.48220919  0.20286020  1
  O  O665  1  0.66231800  0.48012449  0.45209635  1
  O  O666  1  0.66185780  0.48154589  0.70354429  1
  O  O667  1  0.66098646  0.48000682  0.95199921  1
  O  O668  1  0.66324937  0.81584681  0.20187807  1
  O  O669  1  0.66218015  0.81558877  0.45291549  1
  O  O670  1  0.66115283  0.81481062  0.70200585  1
  O  O671  1  0.66266926  0.81561784  0.95128064  1
