# generated using pymatgen
data_Na2MnFe(PO4)2
_symmetry_space_group_name_H-M   'P 1'
_cell_length_a   21.08766508
_cell_length_b   18.94005608
_cell_length_c   20.04611863
_cell_angle_alpha   89.99928090
_cell_angle_beta   89.99673103
_cell_angle_gamma   90.00058971
_symmetry_Int_Tables_number   1
_chemical_formula_structural   Na2MnFe(PO4)2
_chemical_formula_sum   'Na96 Mn48 Fe48 P96 O384'
_cell_volume   8006.45102079
_cell_formula_units_Z   48
loop_
 _symmetry_equiv_pos_site_id
 _symmetry_equiv_pos_as_xyz
  1  'x, y, z'
loop_
 _atom_site_type_symbol
 _atom_site_label
 _atom_site_symmetry_multiplicity
 _atom_site_fract_x
 _atom_site_fract_y
 _atom_site_fract_z
 _atom_site_occupancy
  Na  Na0  1  0.00200374  0.00019575  0.00005050  1
  Na  Na1  1  0.00085910  0.00033581  0.25015400  1
  Na  Na2  1  -0.00234864  -0.00040424  0.50017708  1
  Na  Na3  1  -0.00154095  -0.00103192  0.74998979  1
  Na  Na4  1  0.00183713  0.33418551  -0.00026823  1
  Na  Na5  1  0.00057551  0.33361566  0.24941275  1
  Na  Na6  1  -0.00183416  0.33247925  0.50038935  1
  Na  Na7  1  0.00004745  0.33322630  0.75044104  1
  Na  Na8  1  -0.00107369  0.66673935  -0.00009210  1
  Na  Na9  1  -0.00234621  0.66584312  0.24973219  1
  Na  Na10  1  -0.00036208  0.66684771  0.50018606  1
  Na  Na11  1  0.00082026  0.66728480  0.75009762  1
  Na  Na12  1  0.50092940  0.00013909  -0.00166360  1
  Na  Na13  1  0.50021701  -0.00012888  0.24962495  1
  Na  Na14  1  0.50023291  0.00013440  0.50167076  1
  Na  Na15  1  0.50104805  0.00011839  0.74979544  1
  Na  Na16  1  0.50015503  0.33418705  -0.00058299  1
  Na  Na17  1  0.49877811  0.33266548  0.25129642  1
  Na  Na18  1  0.49781869  0.33299770  0.50038662  1
  Na  Na19  1  0.49684313  0.33287238  0.74902651  1
  Na  Na20  1  0.50029883  0.66656725  0.00050634  1
  Na  Na21  1  0.49883756  0.66660476  0.24885360  1
  Na  Na22  1  0.49730316  0.66558429  0.50026381  1
  Na  Na23  1  0.50027606  0.66636451  0.75058543  1
  Na  Na24  1  0.25022935  -0.00076147  0.12455742  1
  Na  Na25  1  0.25193789  -0.00009908  0.37448479  1
  Na  Na26  1  0.25263172  0.00109845  0.62513240  1
  Na  Na27  1  0.24977181  -0.00039845  0.87526416  1
  Na  Na28  1  0.24876086  0.33289426  0.12525449  1
  Na  Na29  1  0.25170341  0.33358033  0.37419993  1
  Na  Na30  1  0.25339559  0.33446969  0.62527324  1
  Na  Na31  1  0.24968102  0.33328287  0.87479468  1
  Na  Na32  1  0.25229683  0.66790797  0.12480756  1
  Na  Na33  1  0.25302313  0.66738132  0.37653217  1
  Na  Na34  1  0.24896835  0.66627372  0.62510801  1
  Na  Na35  1  0.24851944  0.66661272  0.87404287  1
  Na  Na36  1  0.74720285  -0.00075522  0.12479828  1
  Na  Na37  1  0.74968586  0.00104166  0.37533149  1
  Na  Na38  1  0.74906465  -0.00023407  0.62516609  1
  Na  Na39  1  0.74859956  -0.00080007  0.87504681  1
  Na  Na40  1  0.75005911  0.33396024  0.12511092  1
  Na  Na41  1  0.75045063  0.33307739  0.37505725  1
  Na  Na42  1  0.75101617  0.33355654  0.62579088  1
  Na  Na43  1  0.74988673  0.33374995  0.87469754  1
  Na  Na44  1  0.75002725  0.66597462  0.12403371  1
  Na  Na45  1  0.75056194  0.66639676  0.37562713  1
  Na  Na46  1  0.75137192  0.66662741  0.62419169  1
  Na  Na47  1  0.75116033  0.66663824  0.87548820  1
  Na  Na48  1  0.00238325  0.16600241  -0.00027150  1
  Na  Na49  1  -0.00109385  0.16747762  0.25048202  1
  Na  Na50  1  -0.00255637  0.16749510  0.50035677  1
  Na  Na51  1  0.00007526  0.16633966  0.75029150  1
  Na  Na52  1  0.00032943  0.49969545  0.00026760  1
  Na  Na53  1  0.00130842  0.49860324  0.24944778  1
  Na  Na54  1  -0.00133699  0.50047790  0.50125686  1
  Na  Na55  1  0.00003513  0.49968083  0.74906696  1
  Na  Na56  1  -0.00000492  0.83280123  -0.00030275  1
  Na  Na57  1  -0.00093093  0.83320980  0.24958422  1
  Na  Na58  1  -0.00126299  0.83327287  0.49888205  1
  Na  Na59  1  -0.00043927  0.83343378  0.75137030  1
  Na  Na60  1  0.49884437  0.16714568  -0.00120236  1
  Na  Na61  1  0.49995066  0.16678366  0.25077942  1
  Na  Na62  1  0.49937229  0.16701676  0.50023919  1
  Na  Na63  1  0.49867775  0.16709206  0.74965146  1
  Na  Na64  1  0.50302271  0.49967165  -0.00050372  1
  Na  Na65  1  0.50142189  0.50001974  0.24941412  1
  Na  Na66  1  0.49717215  0.50140003  0.50100280  1
  Na  Na67  1  0.50121078  0.49967723  0.75000641  1
  Na  Na68  1  0.49834649  0.83399178  -0.00020737  1
  Na  Na69  1  0.49667344  0.83414936  0.24965729  1
  Na  Na70  1  0.49809017  0.83369932  0.50092938  1
  Na  Na71  1  0.49902540  0.83356148  0.75003354  1
  Na  Na72  1  0.25037310  0.16731191  0.12470947  1
  Na  Na73  1  0.25303499  0.16653586  0.37471439  1
  Na  Na74  1  0.25302783  0.16640795  0.62541392  1
  Na  Na75  1  0.25064237  0.16695132  0.87422622  1
  Na  Na76  1  0.24831714  0.50045184  0.12532839  1
  Na  Na77  1  0.25148924  0.49936007  0.37492709  1
  Na  Na78  1  0.25158346  0.49924756  0.62480035  1
  Na  Na79  1  0.24797829  0.50028349  0.87525279  1
  Na  Na80  1  0.25178203  0.83353489  0.12484856  1
  Na  Na81  1  0.25340490  0.83213899  0.37536026  1
  Na  Na82  1  0.24993690  0.83322585  0.62547892  1
  Na  Na83  1  0.25001769  0.83317839  0.87443889  1
  Na  Na84  1  0.74919347  0.16662336  0.12553478  1
  Na  Na85  1  0.74981950  0.16652622  0.37528070  1
  Na  Na86  1  0.74992792  0.16641385  0.62465678  1
  Na  Na87  1  0.74951727  0.16629312  0.87529795  1
  Na  Na88  1  0.74710247  0.50090492  0.12388106  1
  Na  Na89  1  0.75060665  0.49911083  0.37517704  1
  Na  Na90  1  0.75023244  0.50003977  0.62535776  1
  Na  Na91  1  0.74859050  0.50025219  0.87517294  1
  Na  Na92  1  0.75117041  0.83272193  0.12469600  1
  Na  Na93  1  0.75086587  0.83289883  0.37531005  1
  Na  Na94  1  0.75123474  0.83347526  0.62533603  1
  Na  Na95  1  0.75179929  0.83301937  0.87483518  1
  Mn  Mn96  1  0.85817078  0.75026713  0.50259498  1
  Mn  Mn97  1  0.10814882  0.74965080  0.12309425  1
  Mn  Mn98  1  0.85745707  0.41730136  0.75286563  1
  Mn  Mn99  1  0.60731483  0.41689188  0.37356428  1
  Mn  Mn100  1  0.39262502  0.91688841  0.62802422  1
  Mn  Mn101  1  0.39287367  0.58294987  0.12689397  1
  Mn  Mn102  1  0.64196133  0.58264371  0.49769152  1
  Mn  Mn103  1  0.85727620  0.08287699  0.75245736  1
  Mn  Mn104  1  0.39237370  0.58358013  0.87733373  1
  Mn  Mn105  1  0.10790478  0.41629012  0.62229213  1
  Mn  Mn106  1  0.14159324  0.58393936  0.99733417  1
  Mn  Mn107  1  0.14340312  0.91625308  0.24827542  1
  Mn  Mn108  1  0.10876181  0.08340389  0.12301242  1
  Mn  Mn109  1  0.10788484  0.08282166  0.62229580  1
  Mn  Mn110  1  0.14302746  0.24976444  0.49812730  1
  Mn  Mn111  1  0.64106759  0.91541626  0.24786796  1
  Mn  Mn112  1  0.64156431  0.24992699  0.74727663  1
  Mn  Mn113  1  0.35684632  0.74982701  0.75269897  1
  Mn  Mn114  1  0.85709646  0.08292403  0.25215614  1
  Mn  Mn115  1  0.14302729  0.58285156  0.49729480  1
  Mn  Mn116  1  0.89275307  0.24973017  0.12647777  1
  Mn  Mn117  1  0.89169623  0.91714760  0.37698828  1
  Mn  Mn118  1  0.89251547  0.58368733  0.62780406  1
  Mn  Mn119  1  0.35826524  0.41758533  0.25174029  1
  Mn  Mn120  1  0.14330085  0.25018100  0.74736454  1
  Mn  Mn121  1  0.60678830  0.41625612  0.62253514  1
  Mn  Mn122  1  0.60664525  0.75027248  0.37286242  1
  Mn  Mn123  1  0.60828757  0.74980625  0.87269468  1
  Mn  Mn124  1  0.35747392  0.41744965  0.00230842  1
  Mn  Mn125  1  0.10805464  0.74934627  0.37254443  1
  Mn  Mn126  1  0.14254366  0.24968907  0.24862817  1
  Mn  Mn127  1  0.35747390  0.08296450  0.00222406  1
  Mn  Mn128  1  0.14238676  0.58409769  0.24884851  1
  Mn  Mn129  1  0.14270608  0.91723164  0.49794915  1
  Mn  Mn130  1  0.64142940  0.25083705  0.24786963  1
  Mn  Mn131  1  0.10801196  0.08414443  0.37361062  1
  Mn  Mn132  1  0.64135640  0.25011381  0.99774115  1
  Mn  Mn133  1  0.85776422  0.08353927  0.00239014  1
  Mn  Mn134  1  0.89289842  0.25001369  0.87789939  1
  Mn  Mn135  1  0.60707731  0.08415051  0.87233335  1
  Mn  Mn136  1  0.89148737  0.58279988  0.12735672  1
  Mn  Mn137  1  0.60789258  0.74982828  0.62315444  1
  Mn  Mn138  1  0.60752982  0.75059368  0.12255644  1
  Mn  Mn139  1  0.14195643  0.91673721  0.74748839  1
  Mn  Mn140  1  0.85780697  0.41708141  0.25215394  1
  Mn  Mn141  1  0.35939525  0.08291126  0.25216763  1
  Mn  Mn142  1  0.89208722  0.91733638  0.12674801  1
  Mn  Mn143  1  0.64235273  0.91691593  0.49754477  1
  Fe  Fe144  1  0.64288681  0.25020707  0.49874836  1
  Fe  Fe145  1  0.14314694  0.91673885  0.99807663  1
  Fe  Fe146  1  0.89209891  0.58222269  0.37628161  1
  Fe  Fe147  1  0.60680101  0.08372276  0.12339233  1
  Fe  Fe148  1  0.85689201  0.74969114  0.25142021  1
  Fe  Fe149  1  0.89227996  0.91702728  0.62706239  1
  Fe  Fe150  1  0.39307956  0.25038185  0.62659497  1
  Fe  Fe151  1  0.89288250  0.58321801  0.87618089  1
  Fe  Fe152  1  0.60684773  0.08391708  0.62316480  1
  Fe  Fe153  1  0.39301796  0.25000704  0.37756998  1
  Fe  Fe154  1  0.39242092  0.25044465  0.87696606  1
  Fe  Fe155  1  0.39263192  0.58329781  0.37681971  1
  Fe  Fe156  1  0.85795772  0.74992201  0.75178168  1
  Fe  Fe157  1  0.64325243  0.91557373  0.74874157  1
  Fe  Fe158  1  0.60714473  0.41634355  0.87303699  1
  Fe  Fe159  1  0.10771876  0.08306460  0.87289933  1
  Fe  Fe160  1  0.60756521  0.41572206  0.12311278  1
  Fe  Fe161  1  0.85694449  0.41673643  0.00127390  1
  Fe  Fe162  1  0.10713173  0.41650050  0.37429038  1
  Fe  Fe163  1  0.64230216  0.91574572  0.99797208  1
  Fe  Fe164  1  0.64336379  0.58387059  0.99776471  1
  Fe  Fe165  1  0.89205338  0.24921901  0.62705239  1
  Fe  Fe166  1  0.39278613  0.91749288  0.12577257  1
  Fe  Fe167  1  0.35769127  0.41687753  0.50166487  1
  Fe  Fe168  1  0.35702778  0.41727751  0.75272905  1
  Fe  Fe169  1  0.85767117  0.41572528  0.50133890  1
  Fe  Fe170  1  0.35733681  0.74972236  0.50290133  1
  Fe  Fe171  1  0.10664973  0.75069492  0.62334455  1
  Fe  Fe172  1  0.14311664  0.24946684  0.99788215  1
  Fe  Fe173  1  0.10695987  0.41697331  0.87301939  1
  Fe  Fe174  1  0.39280036  0.91665761  0.87684240  1
  Fe  Fe175  1  0.35797083  0.08342908  0.75229310  1
  Fe  Fe176  1  0.39279929  0.91706247  0.37762225  1
  Fe  Fe177  1  0.35694898  0.74982940  0.00070888  1
  Fe  Fe178  1  0.85661543  0.08401763  0.50188055  1
  Fe  Fe179  1  0.10668218  0.74989936  0.87367169  1
  Fe  Fe180  1  0.60667569  0.08323988  0.37414633  1
  Fe  Fe181  1  0.64230299  0.58372183  0.24903444  1
  Fe  Fe182  1  0.39265519  0.25008309  0.12581844  1
  Fe  Fe183  1  0.39215683  0.58316017  0.62800746  1
  Fe  Fe184  1  0.89281412  0.91662340  0.87738237  1
  Fe  Fe185  1  0.14207717  0.58294947  0.74847754  1
  Fe  Fe186  1  0.10751674  0.41661464  0.12294209  1
  Fe  Fe187  1  0.35833609  0.74957926  0.25203776  1
  Fe  Fe188  1  0.85738205  0.74969753  0.00138332  1
  Fe  Fe189  1  0.89200792  0.25062890  0.37701134  1
  Fe  Fe190  1  0.35880761  0.08324301  0.50204562  1
  Fe  Fe191  1  0.64331016  0.58430072  0.74837684  1
  P  P192  1  0.05478061  0.25055074  0.10937003  1
  P  P193  1  0.05204205  0.25095379  0.36076013  1
  P  P194  1  0.05221369  0.24959122  0.61005315  1
  P  P195  1  0.05528456  0.24993256  0.86101407  1
  P  P196  1  0.05325880  0.58308612  0.11019239  1
  P  P197  1  0.05185284  0.58213949  0.36039260  1
  P  P198  1  0.05490352  0.58428541  0.61115239  1
  P  P199  1  0.05267496  0.58328682  0.85960908  1
  P  P200  1  0.05450322  0.91609509  0.10928753  1
  P  P201  1  0.05337897  0.91680906  0.35999203  1
  P  P202  1  0.05184791  0.91583895  0.60996402  1
  P  P203  1  0.05378424  0.91648838  0.86150313  1
  P  P204  1  0.55182635  0.25003885  0.11009312  1
  P  P205  1  0.55331378  0.24957129  0.36217648  1
  P  P206  1  0.55259331  0.24963020  0.60953280  1
  P  P207  1  0.55164490  0.25116289  0.85950218  1
  P  P208  1  0.55583041  0.58287952  0.11049158  1
  P  P209  1  0.55211215  0.58363481  0.35970121  1
  P  P210  1  0.55302065  0.58349251  0.61131648  1
  P  P211  1  0.55563032  0.58290205  0.86052649  1
  P  P212  1  0.55249890  0.91716938  0.10909200  1
  P  P213  1  0.55153257  0.91709049  0.36058282  1
  P  P214  1  0.55509154  0.91699496  0.61172289  1
  P  P215  1  0.55399741  0.91618908  0.86028744  1
  P  P216  1  0.44771131  0.08340593  0.13905853  1
  P  P217  1  0.44742624  0.08304597  0.39079260  1
  P  P218  1  0.44609088  0.08420503  0.63972617  1
  P  P219  1  0.44494278  0.08326827  0.88840445  1
  P  P220  1  0.44819734  0.41623851  0.13954796  1
  P  P221  1  0.44604709  0.41731332  0.39053850  1
  P  P222  1  0.44402573  0.41707793  0.63957610  1
  P  P223  1  0.44646254  0.41676638  0.88892049  1
  P  P224  1  0.44464216  0.75091521  0.13857237  1
  P  P225  1  0.44457913  0.74982751  0.38964752  1
  P  P226  1  0.44527654  0.74901132  0.63973476  1
  P  P227  1  0.44615113  0.75053911  0.89047596  1
  P  P228  1  0.94725075  0.08337155  0.14020109  1
  P  P229  1  0.94557260  0.08444483  0.39071976  1
  P  P230  1  0.94508083  0.08333273  0.63902096  1
  P  P231  1  0.94789578  0.08246217  0.89002585  1
  P  P232  1  0.94664482  0.41633152  0.13856250  1
  P  P233  1  0.94696012  0.41657501  0.39043292  1
  P  P234  1  0.94510487  0.41541853  0.63912888  1
  P  P235  1  0.94719560  0.41768784  0.89031778  1
  P  P236  1  0.94449452  0.75008985  0.13931038  1
  P  P237  1  0.94510884  0.74876940  0.38853469  1
  P  P238  1  0.94690361  0.75103328  0.64090604  1
  P  P239  1  0.94561033  0.74963970  0.88911978  1
  P  P240  1  0.19795450  0.08342981  0.23513810  1
  P  P241  1  0.19931139  0.08361766  0.48503904  1
  P  P242  1  0.19726236  0.08336129  0.73580203  1
  P  P243  1  0.19619907  0.08335985  0.98428838  1
  P  P244  1  0.19490254  0.41678394  0.23586758  1
  P  P245  1  0.19806993  0.41612627  0.48445026  1
  P  P246  1  0.19645516  0.41733215  0.73599088  1
  P  P247  1  0.19473728  0.41593732  0.98541886  1
  P  P248  1  0.19888709  0.74981896  0.23522084  1
  P  P249  1  0.19692812  0.75031588  0.48637223  1
  P  P250  1  0.19388780  0.74923621  0.73560007  1
  P  P251  1  0.19704809  0.75098509  0.98431625  1
  P  P252  1  0.69379659  0.08333711  0.23571549  1
  P  P253  1  0.69552941  0.08467802  0.48599859  1
  P  P254  1  0.69537251  0.08232162  0.73438367  1
  P  P255  1  0.69473131  0.08264688  0.98606678  1
  P  P256  1  0.69574500  0.41761022  0.23465179  1
  P  P257  1  0.69778072  0.41542708  0.48551697  1
  P  P258  1  0.69492229  0.41766490  0.73606630  1
  P  P259  1  0.69544988  0.41696259  0.98525796  1
  P  P260  1  0.69741380  0.74890738  0.23505359  1
  P  P261  1  0.69665405  0.74991700  0.48495415  1
  P  P262  1  0.69842230  0.74968894  0.73529497  1
  P  P263  1  0.69777646  0.75011839  0.98501012  1
  P  P264  1  0.30384042  0.25032878  0.01427839  1
  P  P265  1  0.30614783  0.25028596  0.26431170  1
  P  P266  1  0.30597183  0.25006623  0.51447029  1
  P  P267  1  0.30611321  0.25043781  0.76428179  1
  P  P268  1  0.30298597  0.58408604  0.01476705  1
  P  P269  1  0.30428018  0.58394993  0.26561123  1
  P  P270  1  0.30556905  0.58310285  0.51477599  1
  P  P271  1  0.30275400  0.58261263  0.76429303  1
  P  P272  1  0.30403739  0.91578497  0.01376755  1
  P  P273  1  0.30630263  0.91591171  0.26433667  1
  P  P274  1  0.30526850  0.91675018  0.51434949  1
  P  P275  1  0.30408122  0.91732592  0.76581678  1
  P  P276  1  0.80291405  0.25100112  0.01492676  1
  P  P277  1  0.80361891  0.25006864  0.26551223  1
  P  P278  1  0.80394806  0.25004396  0.51450625  1
  P  P279  1  0.80392592  0.24962121  0.76457190  1
  P  P280  1  0.80398562  0.58265091  0.01304810  1
  P  P281  1  0.80225323  0.58363841  0.26524395  1
  P  P282  1  0.80479863  0.58185860  0.51399014  1
  P  P283  1  0.80322340  0.58415973  0.76574020  1
  P  P284  1  0.80328609  0.91628694  0.01366185  1
  P  P285  1  0.80243877  0.91606095  0.26481836  1
  P  P286  1  0.80396455  0.91798343  0.51573880  1
  P  P287  1  0.80435207  0.91596870  0.76467809  1
  O  O288  1  0.05721346  0.24976263  0.18619404  1
  O  O289  1  0.05612631  0.25002831  0.43740747  1
  O  O290  1  0.05682196  0.24968730  0.68672556  1
  O  O291  1  0.05918459  0.24978694  0.93772510  1
  O  O292  1  0.05649417  0.58387331  0.18692303  1
  O  O293  1  0.05586006  0.58321763  0.43711068  1
  O  O294  1  0.05883000  0.58305187  0.68789828  1
  O  O295  1  0.05588966  0.58341886  0.93634875  1
  O  O296  1  0.05778413  0.91592864  0.18607857  1
  O  O297  1  0.05665847  0.91663770  0.43679708  1
  O  O298  1  0.05574905  0.91666489  0.68669019  1
  O  O299  1  0.05885132  0.91643022  0.93810080  1
  O  O300  1  0.55504714  0.25021359  0.18681663  1
  O  O301  1  0.55824241  0.25044192  0.43875705  1
  O  O302  1  0.55600932  0.25037415  0.68623500  1
  O  O303  1  0.55559579  0.25061835  0.93617146  1
  O  O304  1  0.55945471  0.58413891  0.18726941  1
  O  O305  1  0.55588574  0.58360573  0.43646626  1
  O  O306  1  0.55870392  0.58396774  0.68791214  1
  O  O307  1  0.56009549  0.58411620  0.93732236  1
  O  O308  1  0.55575886  0.91575171  0.18584618  1
  O  O309  1  0.55545443  0.91622521  0.43727405  1
  O  O310  1  0.55945726  0.91576501  0.68844858  1
  O  O311  1  0.55895427  0.91563885  0.93698524  1
  O  O312  1  0.44413680  0.08325078  0.06236023  1
  O  O313  1  0.44461516  0.08299454  0.31403445  1
  O  O314  1  0.44188242  0.08321429  0.56300823  1
  O  O315  1  0.44165190  0.08289713  0.81160828  1
  O  O316  1  0.44441553  0.41730054  0.06285759  1
  O  O317  1  0.44387184  0.41738516  0.31374633  1
  O  O318  1  0.44050032  0.41738201  0.56279950  1
  O  O319  1  0.44161531  0.41772345  0.81226431  1
  O  O320  1  0.44065818  0.74980648  0.06185417  1
  O  O321  1  0.44172959  0.74959147  0.31275445  1
  O  O322  1  0.44122128  0.74954114  0.56297232  1
  O  O323  1  0.44288785  0.74961678  0.81370728  1
  O  O324  1  0.94393894  0.08316068  0.06343003  1
  O  O325  1  0.94281173  0.08354483  0.31392862  1
  O  O326  1  0.94074624  0.08362676  0.56233705  1
  O  O327  1  0.94356559  0.08280184  0.81336051  1
  O  O328  1  0.94135220  0.41666101  0.06198382  1
  O  O329  1  0.94392988  0.41655538  0.31366308  1
  O  O330  1  0.94096920  0.41602124  0.56241578  1
  O  O331  1  0.94336928  0.41699356  0.81358172  1
  O  O332  1  0.94011068  0.74991105  0.06247758  1
  O  O333  1  0.94075990  0.74946003  0.31177612  1
  O  O334  1  0.94336783  0.75017849  0.56414188  1
  O  O335  1  0.94127554  0.74976597  0.81242365  1
  O  O336  1  0.19390817  0.08330396  0.06110730  1
  O  O337  1  0.19455209  0.08376301  0.31188900  1
  O  O338  1  0.19487192  0.08368461  0.56176562  1
  O  O339  1  0.19165276  0.08310494  0.81240181  1
  O  O340  1  0.19100087  0.41682719  0.06223498  1
  O  O341  1  0.19061561  0.41658246  0.31262084  1
  O  O342  1  0.19398331  0.41611198  0.56118632  1
  O  O343  1  0.19112117  0.41690518  0.81263580  1
  O  O344  1  0.19396117  0.75037790  0.06103108  1
  O  O345  1  0.19478485  0.74949962  0.31193579  1
  O  O346  1  0.19138086  0.75062120  0.56297068  1
  O  O347  1  0.18947787  0.75006587  0.81237280  1
  O  O348  1  0.69025075  0.08360977  0.06283484  1
  O  O349  1  0.68946844  0.08342442  0.31252646  1
  O  O350  1  0.69067365  0.08398459  0.56266267  1
  O  O351  1  0.69236889  0.08344616  0.81122263  1
  O  O352  1  0.69088813  0.41578243  0.06197893  1
  O  O353  1  0.69261825  0.41634324  0.31143031  1
  O  O354  1  0.69370354  0.41613072  0.56219788  1
  O  O355  1  0.69080185  0.41628671  0.81281336  1
  O  O356  1  0.69397363  0.75030980  0.06164910  1
  O  O357  1  0.69342648  0.74981350  0.31171432  1
  O  O358  1  0.69337550  0.74996260  0.56172088  1
  O  O359  1  0.69482856  0.74981369  0.81194853  1
  O  O360  1  0.31019242  0.25026894  0.18747855  1
  O  O361  1  0.30967914  0.24995498  0.43761051  1
  O  O362  1  0.30998730  0.25026483  0.68748887  1
  O  O363  1  0.30876840  0.25062153  0.93757849  1
  O  O364  1  0.30711742  0.58290111  0.18882237  1
  O  O365  1  0.30935091  0.58310748  0.43800232  1
  O  O366  1  0.30743533  0.58315925  0.68763685  1
  O  O367  1  0.30606412  0.58308047  0.93801905  1
  O  O368  1  0.30991068  0.91744093  0.18751201  1
  O  O369  1  0.30900990  0.91694538  0.43756105  1
  O  O370  1  0.30728685  0.91680481  0.68900774  1
  O  O371  1  0.30869917  0.91663536  0.93712676  1
  O  O372  1  0.80711578  0.25010819  0.18875981  1
  O  O373  1  0.80818814  0.25012855  0.43777858  1
  O  O374  1  0.80825376  0.24947490  0.68781588  1
  O  O375  1  0.80630267  0.25014381  0.93811836  1
  O  O376  1  0.80552700  0.58264828  0.18846256  1
  O  O377  1  0.80879970  0.58226080  0.43725273  1
  O  O378  1  0.80693913  0.58335339  0.68899546  1
  O  O379  1  0.80878127  0.58245496  0.93644600  1
  O  O380  1  0.80550115  0.91709531  0.18805919  1
  O  O381  1  0.80672010  0.91726647  0.43893939  1
  O  O382  1  0.80893062  0.91677665  0.68798963  1
  O  O383  1  0.80849998  0.91724414  0.93696718  1
  O  O384  1  0.23347318  0.24980709  0.03766476  1
  O  O385  1  0.23611563  0.25019977  0.28849896  1
  O  O386  1  0.23610347  0.25032220  0.53937303  1
  O  O387  1  0.23601904  0.25035760  0.78832597  1
  O  O388  1  0.23336525  0.58422009  0.03998977  1
  O  O389  1  0.23473531  0.58359988  0.29122509  1
  O  O390  1  0.23547095  0.58301064  0.53896774  1
  O  O391  1  0.23248871  0.58320669  0.78818481  1
  O  O392  1  0.23367986  0.91657672  0.03750151  1
  O  O393  1  0.23643590  0.91599513  0.28909651  1
  O  O394  1  0.23549673  0.91695461  0.53940559  1
  O  O395  1  0.23419037  0.91649568  0.79023060  1
  O  O396  1  0.73325078  0.25062670  0.04002656  1
  O  O397  1  0.73369546  0.25006925  0.29001262  1
  O  O398  1  0.73367085  0.24995352  0.53875647  1
  O  O399  1  0.73383604  0.24966855  0.78849859  1
  O  O400  1  0.73358971  0.58314970  0.03678926  1
  O  O401  1  0.73227932  0.58292350  0.29018096  1
  O  O402  1  0.73484939  0.58280193  0.53851244  1
  O  O403  1  0.73316317  0.58366970  0.79010339  1
  O  O404  1  0.73291041  0.91601916  0.03729364  1
  O  O405  1  0.73284741  0.91641638  0.29034215  1
  O  O406  1  0.73421334  0.91681991  0.54067942  1
  O  O407  1  0.73388515  0.91619555  0.78823567  1
  O  O408  1  0.26759364  0.08338304  0.20991835  1
  O  O409  1  0.26946013  0.08347734  0.46097459  1
  O  O410  1  0.26783466  0.08368458  0.71293562  1
  O  O411  1  0.26589963  0.08334328  0.95901348  1
  O  O412  1  0.26503016  0.41687596  0.21178145  1
  O  O413  1  0.26832858  0.41640247  0.46065078  1
  O  O414  1  0.26690101  0.41675979  0.71275445  1
  O  O415  1  0.26475264  0.41694464  0.96107799  1
  O  O416  1  0.26890883  0.75011489  0.21084596  1
  O  O417  1  0.26749621  0.74970378  0.46350361  1
  O  O418  1  0.26412628  0.75008307  0.71201663  1
  O  O419  1  0.26702331  0.75001983  0.95935349  1
  O  O420  1  0.76389088  0.08322137  0.21173950  1
  O  O421  1  0.76594446  0.08414587  0.46249261  1
  O  O422  1  0.76514342  0.08295190  0.70963232  1
  O  O423  1  0.76471349  0.08295039  0.96173501  1
  O  O424  1  0.76548612  0.41748093  0.20962172  1
  O  O425  1  0.76774919  0.41561525  0.46089384  1
  O  O426  1  0.76495582  0.41749998  0.71200382  1
  O  O427  1  0.76578395  0.41691761  0.96140968  1
  O  O428  1  0.76733815  0.74917998  0.21016440  1
  O  O429  1  0.76647489  0.74991736  0.46039710  1
  O  O430  1  0.76842151  0.74985523  0.71044990  1
  O  O431  1  0.76787754  0.74975606  0.96050781  1
  O  O432  1  0.01690241  0.08373936  0.16526338  1
  O  O433  1  0.01525718  0.08377527  0.41613562  1
  O  O434  1  0.01504122  0.08309531  0.66353484  1
  O  O435  1  0.01810759  0.08290463  0.91396047  1
  O  O436  1  0.01700276  0.41618200  0.16204962  1
  O  O437  1  0.01682062  0.41650097  0.41585204  1
  O  O438  1  0.01515168  0.41594115  0.66330312  1
  O  O439  1  0.01745877  0.41715283  0.91422447  1
  O  O440  1  0.01459873  0.74983124  0.16318281  1
  O  O441  1  0.01507408  0.74953782  0.41297047  1
  O  O442  1  0.01687959  0.75041602  0.66548573  1
  O  O443  1  0.01607660  0.74970719  0.91288622  1
  O  O444  1  0.51752934  0.08320094  0.16430645  1
  O  O445  1  0.51735235  0.08333007  0.41596042  1
  O  O446  1  0.51643925  0.08379615  0.66349119  1
  O  O447  1  0.51479687  0.08357383  0.91308611  1
  O  O448  1  0.51810999  0.41630266  0.16443300  1
  O  O449  1  0.51555509  0.41730215  0.41648977  1
  O  O450  1  0.51407861  0.41653044  0.66380398  1
  O  O451  1  0.51677305  0.41703372  0.91264049  1
  O  O452  1  0.51470927  0.75030831  0.16288706  1
  O  O453  1  0.51431102  0.74984428  0.41499374  1
  O  O454  1  0.51516572  0.74967080  0.66422966  1
  O  O455  1  0.51594153  0.75003886  0.91525797  1
  O  O456  1  0.48200474  0.25031051  0.08467094  1
  O  O457  1  0.48290069  0.24981391  0.33854481  1
  O  O458  1  0.48239779  0.25005129  0.58542536  1
  O  O459  1  0.48161119  0.25029641  0.83511745  1
  O  O460  1  0.48578538  0.58318893  0.08608772  1
  O  O461  1  0.48205164  0.58319867  0.33533154  1
  O  O462  1  0.48252571  0.58303890  0.58838826  1
  O  O463  1  0.48542995  0.58343236  0.83687131  1
  O  O464  1  0.48244293  0.91712739  0.08441946  1
  O  O465  1  0.48154017  0.91705302  0.33600926  1
  O  O466  1  0.48497683  0.91708502  0.58791226  1
  O  O467  1  0.48353375  0.91657620  0.83701335  1
  O  O468  1  0.98519001  0.25005529  0.08381087  1
  O  O469  1  0.98200797  0.25078204  0.33616624  1
  O  O470  1  0.98199702  0.24965969  0.58632770  1
  O  O471  1  0.98527576  0.25012585  0.83657512  1
  O  O472  1  0.98356754  0.58319241  0.08509682  1
  O  O473  1  0.98193089  0.58202912  0.33550215  1
  O  O474  1  0.98484359  0.58407273  0.58711565  1
  O  O475  1  0.98261032  0.58335764  0.83482760  1
  O  O476  1  0.98471295  0.91643855  0.08444204  1
  O  O477  1  0.98364451  0.91699492  0.33504041  1
  O  O478  1  0.98180211  0.91628245  0.58553333  1
  O  O479  1  0.98329620  0.91628630  0.83797573  1
  O  O480  1  0.08894271  0.31574667  0.07737502  1
  O  O481  1  0.08584472  0.31617185  0.32839606  1
  O  O482  1  0.08589940  0.31458524  0.57706142  1
  O  O483  1  0.08875764  0.31528029  0.82821039  1
  O  O484  1  0.08715144  0.64813008  0.07735028  1
  O  O485  1  0.08572195  0.64710440  0.32722646  1
  O  O486  1  0.08817824  0.64971218  0.57862364  1
  O  O487  1  0.08684099  0.64830170  0.82721751  1
  O  O488  1  0.08902483  0.98100959  0.07695571  1
  O  O489  1  0.08759969  0.98197666  0.32800024  1
  O  O490  1  0.08593760  0.98075116  0.57706990  1
  O  O491  1  0.08685685  0.98153581  0.82775404  1
  O  O492  1  0.58604052  0.31499307  0.07756250  1
  O  O493  1  0.58640771  0.31453479  0.32834042  1
  O  O494  1  0.58652683  0.31444640  0.57639079  1
  O  O495  1  0.58503998  0.31633790  0.82677997  1
  O  O496  1  0.58965907  0.64770217  0.07695656  1
  O  O497  1  0.58573403  0.64869137  0.32671873  1
  O  O498  1  0.58591193  0.64840593  0.57739713  1
  O  O499  1  0.58938824  0.64769347  0.82690342  1
  O  O500  1  0.58656488  0.98225535  0.07702450  1
  O  O501  1  0.58542520  0.98218822  0.32837591  1
  O  O502  1  0.58829660  0.98245812  0.57909626  1
  O  O503  1  0.58762288  0.98109499  0.82719327  1
  O  O504  1  0.41376618  0.01829095  0.17158537  1
  O  O505  1  0.41351020  0.01802802  0.42347581  1
  O  O506  1  0.41238655  0.01952510  0.67345485  1
  O  O507  1  0.41159900  0.01806825  0.92143563  1
  O  O508  1  0.41408954  0.35125365  0.17177598  1
  O  O509  1  0.41162384  0.35223622  0.42263973  1
  O  O510  1  0.41014364  0.35193102  0.67209014  1
  O  O511  1  0.41322643  0.35150515  0.92184356  1
  O  O512  1  0.41074070  0.68622598  0.17218917  1
  O  O513  1  0.41057246  0.68470732  0.42220187  1
  O  O514  1  0.41179657  0.68385719  0.67266994  1
  O  O515  1  0.41168530  0.68583135  0.92332212  1
  O  O516  1  0.91335247  0.01821572  0.17267084  1
  O  O517  1  0.91070813  0.01982855  0.42330720  1
  O  O518  1  0.91155860  0.01802143  0.67188132  1
  O  O519  1  0.91433107  0.01740091  0.92292256  1
  O  O520  1  0.91337531  0.35140735  0.17201222  1
  O  O521  1  0.91255154  0.35158402  0.42289063  1
  O  O522  1  0.91163365  0.35031471  0.67201594  1
  O  O523  1  0.91315281  0.35293037  0.92348044  1
  O  O524  1  0.91057665  0.68520180  0.17237771  1
  O  O525  1  0.91201775  0.68336965  0.42136671  1
  O  O526  1  0.91262196  0.68621039  0.67385136  1
  O  O527  1  0.91242193  0.68441822  0.92227577  1
  O  O528  1  0.16395048  0.01830938  0.20284087  1
  O  O529  1  0.16544422  0.01867270  0.45233060  1
  O  O530  1  0.16440581  0.01820977  0.70213653  1
  O  O531  1  0.16194559  0.01825654  0.95198287  1
  O  O532  1  0.16142074  0.35173347  0.20269162  1
  O  O533  1  0.16445544  0.35111957  0.45151893  1
  O  O534  1  0.16339899  0.35233140  0.70216020  1
  O  O535  1  0.16167570  0.35051844  0.95264342  1
  O  O536  1  0.16519463  0.68476382  0.20232496  1
  O  O537  1  0.16378414  0.68524023  0.45279672  1
  O  O538  1  0.16090414  0.68389895  0.70273438  1
  O  O539  1  0.16231293  0.68635107  0.95153064  1
  O  O540  1  0.65996319  0.01844957  0.20262669  1
  O  O541  1  0.66193855  0.01985522  0.45228136  1
  O  O542  1  0.66162829  0.01686407  0.70259038  1
  O  O543  1  0.66125683  0.01740921  0.95341431  1
  O  O544  1  0.66153218  0.35265562  0.20168621  1
  O  O545  1  0.66396957  0.35032994  0.45296130  1
  O  O546  1  0.66140280  0.35281385  0.70248199  1
  O  O547  1  0.66179221  0.35219921  0.95148876  1
  O  O548  1  0.66370489  0.68373654  0.20263545  1
  O  O549  1  0.66265571  0.68488280  0.45252889  1
  O  O550  1  0.66464062  0.68449141  0.70263358  1
  O  O551  1  0.66394832  0.68509615  0.95231682  1
  O  O552  1  0.33695352  0.31531573  0.04792898  1
  O  O553  1  0.33980004  0.31529212  0.29729228  1
  O  O554  1  0.33991726  0.31517404  0.54708973  1
  O  O555  1  0.33947777  0.31564647  0.79744652  1
  O  O556  1  0.33736437  0.64922663  0.04645487  1
  O  O557  1  0.33854174  0.64911412  0.29753757  1
  O  O558  1  0.33913419  0.64813322  0.54804389  1
  O  O559  1  0.33633983  0.64751870  0.79762914  1
  O  O560  1  0.33776110  0.98056017  0.04755514  1
  O  O561  1  0.34019040  0.98071657  0.29780867  1
  O  O562  1  0.33923364  0.98182908  0.54703073  1
  O  O563  1  0.33792130  0.98245958  0.79817220  1
  O  O564  1  0.83680279  0.31644904  0.04677802  1
  O  O565  1  0.83761480  0.31517498  0.29811795  1
  O  O566  1  0.83756015  0.31499698  0.54773045  1
  O  O567  1  0.83748140  0.31472507  0.79748707  1
  O  O568  1  0.83734061  0.64769268  0.04621308  1
  O  O569  1  0.83615898  0.64880658  0.29743448  1
  O  O570  1  0.83885348  0.64678902  0.54698830  1
  O  O571  1  0.83712674  0.64930750  0.79807400  1
  O  O572  1  0.83618425  0.98129863  0.04756194  1
  O  O573  1  0.83668344  0.98093832  0.29752487  1
  O  O574  1  0.83735939  0.98347427  0.54798787  1
  O  O575  1  0.83769838  0.98083538  0.79849346  1
  O  O576  1  0.41393678  0.14849628  0.17165318  1
  O  O577  1  0.41311884  0.14799280  0.42317328  1
  O  O578  1  0.41273879  0.14951867  0.67228981  1
  O  O579  1  0.41114944  0.14841027  0.92097418  1
  O  O580  1  0.41437051  0.48126984  0.17250162  1
  O  O581  1  0.41163205  0.48232142  0.42271442  1
  O  O582  1  0.41060180  0.48208177  0.67310136  1
  O  O583  1  0.41320867  0.48163167  0.92271466  1
  O  O584  1  0.41141285  0.81638851  0.17099839  1
  O  O585  1  0.41056965  0.81496280  0.42216427  1
  O  O586  1  0.41136135  0.81397300  0.67260450  1
  O  O587  1  0.41216103  0.81584752  0.92248196  1
  O  O588  1  0.91282648  0.14828601  0.17236171  1
  O  O589  1  0.91154888  0.14982446  0.42270863  1
  O  O590  1  0.91152735  0.14840034  0.67222103  1
  O  O591  1  0.91417337  0.14751335  0.92296154  1
  O  O592  1  0.91358305  0.48133188  0.17232004  1
  O  O593  1  0.91266821  0.48152911  0.42290190  1
  O  O594  1  0.91158254  0.48056337  0.67228079  1
  O  O595  1  0.91363700  0.48294938  0.92285451  1
  O  O596  1  0.91091395  0.81511605  0.17231530  1
  O  O597  1  0.91120138  0.81369222  0.42167942  1
  O  O598  1  0.91307584  0.81618413  0.67332885  1
  O  O599  1  0.91211985  0.81459710  0.92250353  1
  O  O600  1  0.08953340  0.18581299  0.07687380  1
  O  O601  1  0.08604013  0.18604542  0.32771092  1
  O  O602  1  0.08581479  0.18458673  0.57701075  1
  O  O603  1  0.08874510  0.18477368  0.82794710  1
  O  O604  1  0.08740024  0.51799857  0.07805302  1
  O  O605  1  0.08587880  0.51691679  0.32844658  1
  O  O606  1  0.08841948  0.51934040  0.57771936  1
  O  O607  1  0.08672682  0.51822081  0.82693882  1
  O  O608  1  0.08842626  0.85105589  0.07654486  1
  O  O609  1  0.08725978  0.85166223  0.32744162  1
  O  O610  1  0.08547221  0.85056698  0.57753047  1
  O  O611  1  0.08681509  0.85130443  0.82816403  1
  O  O612  1  0.58555298  0.18487542  0.07749741  1
  O  O613  1  0.58633124  0.18442878  0.32898640  1
  O  O614  1  0.58640167  0.18451364  0.57711384  1
  O  O615  1  0.58569326  0.18623170  0.82673349  1
  O  O616  1  0.58940482  0.51754277  0.07813653  1
  O  O617  1  0.58650326  0.51878689  0.32726982  1
  O  O618  1  0.58611500  0.51836452  0.57777143  1
  O  O619  1  0.58886816  0.51764360  0.82777816  1
  O  O620  1  0.58646866  0.85222525  0.07593255  1
  O  O621  1  0.58498729  0.85203067  0.32722685  1
  O  O622  1  0.58823957  0.85214121  0.57793471  1
  O  O623  1  0.58722834  0.85118770  0.82666365  1
  O  O624  1  0.33752571  0.18537781  0.04748475  1
  O  O625  1  0.34003087  0.18538681  0.29737074  1
  O  O626  1  0.33977487  0.18497582  0.54732291  1
  O  O627  1  0.33971792  0.18542407  0.79736805  1
  O  O628  1  0.33694782  0.51911432  0.04771083  1
  O  O629  1  0.33880414  0.51912076  0.29818584  1
  O  O630  1  0.33912989  0.51792864  0.54767432  1
  O  O631  1  0.33597083  0.51752563  0.79760927  1
  O  O632  1  0.33718301  0.85055123  0.04668001  1
  O  O633  1  0.34009116  0.85063161  0.29655234  1
  O  O634  1  0.33890937  0.85153083  0.54710212  1
  O  O635  1  0.33850023  0.85249547  0.79843408  1
  O  O636  1  0.83705269  0.18602730  0.04752929  1
  O  O637  1  0.83763234  0.18519303  0.29828207  1
  O  O638  1  0.83741946  0.18489999  0.54772604  1
  O  O639  1  0.83739311  0.18461300  0.79775762  1
  O  O640  1  0.83666479  0.51736681  0.04673556  1
  O  O641  1  0.83676053  0.51889524  0.29804781  1
  O  O642  1  0.83794723  0.51657641  0.54688891  1
  O  O643  1  0.83734525  0.51941402  0.79892165  1
  O  O644  1  0.83680140  0.85112026  0.04630250  1
  O  O645  1  0.83647614  0.85071423  0.29662573  1
  O  O646  1  0.83885766  0.85337601  0.54836775  1
  O  O647  1  0.83778899  0.85084443  0.79763059  1
  O  O648  1  0.16393514  0.14851924  0.20273262  1
  O  O649  1  0.16577246  0.14876770  0.45214568  1
  O  O650  1  0.16419163  0.14830183  0.70214271  1
  O  O651  1  0.16206894  0.14844164  0.95193496  1
  O  O652  1  0.16120686  0.48178153  0.20280937  1
  O  O653  1  0.16412140  0.48103770  0.45158561  1
  O  O654  1  0.16347236  0.48246396  0.70262696  1
  O  O655  1  0.16040493  0.48059587  0.95217854  1
  O  O656  1  0.16500763  0.81474260  0.20246076  1
  O  O657  1  0.16433197  0.81535865  0.45244532  1
  O  O658  1  0.16015657  0.81406962  0.70206436  1
  O  O659  1  0.16336350  0.81618592  0.95173747  1
  O  O660  1  0.66027232  0.14843702  0.20253080  1
  O  O661  1  0.66242537  0.14991860  0.45285582  1
  O  O662  1  0.66079619  0.14698810  0.70146451  1
  O  O663  1  0.66109144  0.14764693  0.95270508  1
  O  O664  1  0.66155266  0.48273856  0.20277255  1
  O  O665  1  0.66387568  0.48040510  0.45259289  1
  O  O666  1  0.66157640  0.48313720  0.70366070  1
  O  O667  1  0.66191994  0.48216165  0.95257449  1
  O  O668  1  0.66343831  0.81383222  0.20194062  1
  O  O669  1  0.66278132  0.81501778  0.45235477  1
  O  O670  1  0.66438787  0.81469613  0.70272593  1
  O  O671  1  0.66419616  0.81512066  0.95196838  1
