# generated using pymatgen
data_Na2MnFe(PO4)2
_symmetry_space_group_name_H-M   'P 1'
_cell_length_a   21.08969118
_cell_length_b   18.94312886
_cell_length_c   20.04786657
_cell_angle_alpha   90.00013714
_cell_angle_beta   90.00169748
_cell_angle_gamma   89.99859945
_symmetry_Int_Tables_number   1
_chemical_formula_structural   Na2MnFe(PO4)2
_chemical_formula_sum   'Na96 Mn48 Fe48 P96 O384'
_cell_volume   8009.21766991
_cell_formula_units_Z   48
loop_
 _symmetry_equiv_pos_site_id
 _symmetry_equiv_pos_as_xyz
  1  'x, y, z'
loop_
 _atom_site_type_symbol
 _atom_site_label
 _atom_site_symmetry_multiplicity
 _atom_site_fract_x
 _atom_site_fract_y
 _atom_site_fract_z
 _atom_site_occupancy
  Na  Na0  1  0.00113042  -0.00037067  -0.00086482  1
  Na  Na1  1  0.00353194  0.00045788  0.25079495  1
  Na  Na2  1  0.00155817  -0.00050637  0.50064764  1
  Na  Na3  1  -0.00000508  -0.00068675  0.75071569  1
  Na  Na4  1  -0.00144981  0.33345804  0.00049282  1
  Na  Na5  1  -0.00159897  0.33259572  0.24960015  1
  Na  Na6  1  -0.00109808  0.33263428  0.49935269  1
  Na  Na7  1  -0.00166483  0.33357663  0.75003755  1
  Na  Na8  1  -0.00238087  0.66697098  -0.00093759  1
  Na  Na9  1  0.00007657  0.66812575  0.25037318  1
  Na  Na10  1  0.00011129  0.66733811  0.49974699  1
  Na  Na11  1  -0.00288606  0.66637004  0.74960783  1
  Na  Na12  1  0.50095958  0.00022199  -0.00091113  1
  Na  Na13  1  0.50007371  0.00037006  0.24976638  1
  Na  Na14  1  0.49753041  -0.00068490  0.50100329  1
  Na  Na15  1  0.49839898  -0.00066474  0.74953645  1
  Na  Na16  1  0.49890090  0.33259915  0.00011350  1
  Na  Na17  1  0.50029763  0.33313550  0.25073308  1
  Na  Na18  1  0.50239169  0.33400303  0.49996456  1
  Na  Na19  1  0.50053658  0.33309985  0.74950688  1
  Na  Na20  1  0.50005430  0.66592175  -0.00040162  1
  Na  Na21  1  0.49930269  0.66630382  0.25121418  1
  Na  Na22  1  0.49972363  0.66651597  0.50041606  1
  Na  Na23  1  0.50096397  0.66659977  0.74961999  1
  Na  Na24  1  0.24890402  -0.00040013  0.12519293  1
  Na  Na25  1  0.24721957  -0.00123053  0.37411201  1
  Na  Na26  1  0.25138928  -0.00022940  0.62521949  1
  Na  Na27  1  0.25166554  -0.00021860  0.87599861  1
  Na  Na28  1  0.25037548  0.33342111  0.12437232  1
  Na  Na29  1  0.24710819  0.33227692  0.37432486  1
  Na  Na30  1  0.24865713  0.33329326  0.62578522  1
  Na  Na31  1  0.24903114  0.33300853  0.87498202  1
  Na  Na32  1  0.24961359  0.66624599  0.12486972  1
  Na  Na33  1  0.24907341  0.66654756  0.37390086  1
  Na  Na34  1  0.25093045  0.66691116  0.62601750  1
  Na  Na35  1  0.25159013  0.66696807  0.87602743  1
  Na  Na36  1  0.74870917  -0.00055823  0.12491219  1
  Na  Na37  1  0.75018832  -0.00037094  0.37437965  1
  Na  Na38  1  0.75152907  0.00066618  0.62526259  1
  Na  Na39  1  0.74771812  -0.00088820  0.87520100  1
  Na  Na40  1  0.75370605  0.33408390  0.12647742  1
  Na  Na41  1  0.75096679  0.33259174  0.37469729  1
  Na  Na42  1  0.75082538  0.33301151  0.62425468  1
  Na  Na43  1  0.75258420  0.33399257  0.87467589  1
  Na  Na44  1  0.75172439  0.66747853  0.12542123  1
  Na  Na45  1  0.75148437  0.66759016  0.37494354  1
  Na  Na46  1  0.74888508  0.66655519  0.62488432  1
  Na  Na47  1  0.75016073  0.66726443  0.87411525  1
  Na  Na48  1  -0.00105741  0.16674448  -0.00023502  1
  Na  Na49  1  0.00150468  0.16645778  0.24991392  1
  Na  Na50  1  0.00109276  0.16644844  0.50021124  1
  Na  Na51  1  -0.00293914  0.16761718  0.75052313  1
  Na  Na52  1  -0.00138550  0.50001630  -0.00022238  1
  Na  Na53  1  -0.00241122  0.50135440  0.25003378  1
  Na  Na54  1  -0.00021695  0.49983146  0.49906555  1
  Na  Na55  1  -0.00115497  0.49996420  0.74968581  1
  Na  Na56  1  0.00040187  0.83308698  -0.00076865  1
  Na  Na57  1  0.00050006  0.83371546  0.25015753  1
  Na  Na58  1  0.00001255  0.83365479  0.50069874  1
  Na  Na59  1  -0.00062776  0.83341737  0.75009054  1
  Na  Na60  1  0.49978195  0.16565582  -0.00067017  1
  Na  Na61  1  0.49996617  0.16629124  0.25049846  1
  Na  Na62  1  0.49901364  0.16672766  0.50007033  1
  Na  Na63  1  0.49927775  0.16555747  0.74902026  1
  Na  Na64  1  0.50066200  0.50051372  -0.00006309  1
  Na  Na65  1  0.50023182  0.50059938  0.25069317  1
  Na  Na66  1  0.50156017  0.50048747  0.50057078  1
  Na  Na67  1  0.50016006  0.50145096  0.75019374  1
  Na  Na68  1  0.49990829  0.83419163  -0.00039124  1
  Na  Na69  1  0.49871398  0.83376502  0.25034517  1
  Na  Na70  1  0.49827693  0.83377264  0.50062432  1
  Na  Na71  1  0.50071845  0.83340161  0.74949021  1
  Na  Na72  1  0.24971470  0.16637737  0.12578292  1
  Na  Na73  1  0.24840481  0.16671719  0.37415447  1
  Na  Na74  1  0.25052952  0.16581118  0.62512592  1
  Na  Na75  1  0.25207818  0.16517821  0.87636649  1
  Na  Na76  1  0.25121801  0.49975200  0.12416768  1
  Na  Na77  1  0.24861314  0.50109948  0.37433581  1
  Na  Na78  1  0.25077300  0.50026740  0.62649261  1
  Na  Na79  1  0.25047921  0.50049435  0.87468464  1
  Na  Na80  1  0.24869099  0.83357854  0.12444706  1
  Na  Na81  1  0.24706385  0.83383796  0.37384876  1
  Na  Na82  1  0.24984186  0.83338967  0.62536740  1
  Na  Na83  1  0.24986617  0.83404500  0.87602367  1
  Na  Na84  1  0.74995290  0.16619451  0.12492582  1
  Na  Na85  1  0.75045136  0.16685603  0.37426465  1
  Na  Na86  1  0.75017440  0.16654861  0.62511706  1
  Na  Na87  1  0.74901960  0.16625156  0.87511823  1
  Na  Na88  1  0.75219471  0.49941280  0.12603522  1
  Na  Na89  1  0.74906605  0.50100514  0.37434640  1
  Na  Na90  1  0.75064073  0.49974305  0.62442048  1
  Na  Na91  1  0.74944226  0.50136886  0.87450913  1
  Na  Na92  1  0.75246384  0.83312937  0.12568171  1
  Na  Na93  1  0.75232455  0.83311942  0.37558093  1
  Na  Na94  1  0.75148483  0.83290345  0.62472369  1
  Na  Na95  1  0.75028444  0.83383281  0.87456462  1
  Mn  Mn96  1  0.60726348  0.08278929  0.62243231  1
  Mn  Mn97  1  0.35742802  0.41686039  0.50229386  1
  Mn  Mn98  1  0.35789965  0.41633646  0.25229427  1
  Mn  Mn99  1  0.60791066  0.75031247  0.37333997  1
  Mn  Mn100  1  0.85877049  0.08301419  0.25190652  1
  Mn  Mn101  1  0.39236535  0.25012250  0.87732037  1
  Mn  Mn102  1  0.10765972  0.41672634  0.37255696  1
  Mn  Mn103  1  0.89384743  0.91769946  0.37728618  1
  Mn  Mn104  1  0.64242157  0.91631524  0.24800549  1
  Mn  Mn105  1  0.39210584  0.58299695  0.37792085  1
  Mn  Mn106  1  0.89078870  0.58329886  0.87713586  1
  Mn  Mn107  1  0.35858380  0.75048750  0.75263738  1
  Mn  Mn108  1  0.14181574  0.24896179  0.74789508  1
  Mn  Mn109  1  0.85724923  0.41711432  0.50191251  1
  Mn  Mn110  1  0.14218373  0.58403130  0.74781946  1
  Mn  Mn111  1  0.39162874  0.25053141  0.37763114  1
  Mn  Mn112  1  0.35811356  0.75042165  0.00292753  1
  Mn  Mn113  1  0.89178324  0.91695269  0.87709026  1
  Mn  Mn114  1  0.89154252  0.24992834  0.87748537  1
  Mn  Mn115  1  0.10696988  0.41684099  0.62279049  1
  Mn  Mn116  1  0.60860967  0.41692534  0.62278091  1
  Mn  Mn117  1  0.64244919  0.91681116  0.49804621  1
  Mn  Mn118  1  0.35815245  0.41607608  0.00212541  1
  Mn  Mn119  1  0.64277538  0.25000912  0.74748125  1
  Mn  Mn120  1  0.60892170  0.41594346  0.87298819  1
  Mn  Mn121  1  0.10820739  0.08399805  0.87252964  1
  Mn  Mn122  1  0.35669408  0.08318986  0.25177860  1
  Mn  Mn123  1  0.64317793  0.58391824  0.24770401  1
  Mn  Mn124  1  0.39057308  0.91648020  0.37717092  1
  Mn  Mn125  1  0.60843955  0.75062548  0.87300703  1
  Mn  Mn126  1  0.10635237  0.41731510  0.12229280  1
  Mn  Mn127  1  0.89263445  0.58359845  0.37794874  1
  Mn  Mn128  1  0.60829243  0.75053819  0.12297920  1
  Mn  Mn129  1  0.64298849  0.24980195  0.24754579  1
  Mn  Mn130  1  0.14171457  0.58342521  0.99777990  1
  Mn  Mn131  1  0.60837433  0.41614110  0.12264747  1
  Mn  Mn132  1  0.85894814  0.08294729  0.50228340  1
  Mn  Mn133  1  0.35677269  0.75008393  0.25158809  1
  Mn  Mn134  1  0.35808637  0.41605301  0.75257143  1
  Mn  Mn135  1  0.39161395  0.25048618  0.62651194  1
  Mn  Mn136  1  0.10722195  0.74907657  0.87264849  1
  Mn  Mn137  1  0.10724140  0.74941215  0.62304703  1
  Mn  Mn138  1  0.60745112  0.08337226  0.37340794  1
  Mn  Mn139  1  0.14225599  0.24988794  0.99806600  1
  Mn  Mn140  1  0.64241176  0.25037738  0.99829304  1
  Mn  Mn141  1  0.14147809  0.58290565  0.24656544  1
  Mn  Mn142  1  0.85699663  0.08286454  0.00283485  1
  Mn  Mn143  1  0.10772150  0.08361051  0.62364644  1
  Fe  Fe144  1  0.39317251  0.58329454  0.12624279  1
  Fe  Fe145  1  0.89198927  0.24970542  0.62625458  1
  Fe  Fe146  1  0.14318485  0.91682795  0.99833917  1
  Fe  Fe147  1  0.85770227  0.41683035  0.25230525  1
  Fe  Fe148  1  0.10703325  0.08297894  0.12263427  1
  Fe  Fe149  1  0.14191144  0.91648445  0.24664027  1
  Fe  Fe150  1  0.35747715  0.08319400  0.75178225  1
  Fe  Fe151  1  0.14261909  0.91616237  0.49951502  1
  Fe  Fe152  1  0.10755144  0.74998335  0.37361469  1
  Fe  Fe153  1  0.85601939  0.75044758  0.75092438  1
  Fe  Fe154  1  0.35789334  0.08299495  0.00252062  1
  Fe  Fe155  1  0.89177530  0.58343512  0.62638428  1
  Fe  Fe156  1  0.60798644  0.41644593  0.37334968  1
  Fe  Fe157  1  0.14199129  0.25016032  0.24715232  1
  Fe  Fe158  1  0.89294128  0.24900296  0.12700582  1
  Fe  Fe159  1  0.89287454  0.91701757  0.62740709  1
  Fe  Fe160  1  0.64315560  0.24998961  0.49802259  1
  Fe  Fe161  1  0.35644500  0.75000175  0.50144112  1
  Fe  Fe162  1  0.85709069  0.75035653  0.00195599  1
  Fe  Fe163  1  0.39270486  0.24993136  0.12708371  1
  Fe  Fe164  1  0.85863527  0.75025213  0.25194555  1
  Fe  Fe165  1  0.85769396  0.41737707  0.00188721  1
  Fe  Fe166  1  0.64296890  0.58400635  0.74786092  1
  Fe  Fe167  1  0.64250102  0.91590547  0.99869579  1
  Fe  Fe168  1  0.10835784  0.08328927  0.37374703  1
  Fe  Fe169  1  0.39384887  0.58357865  0.87680552  1
  Fe  Fe170  1  0.14158555  0.25007304  0.49849952  1
  Fe  Fe171  1  0.60671563  0.08320063  0.12337408  1
  Fe  Fe172  1  0.10596168  0.75024025  0.12292133  1
  Fe  Fe173  1  0.39166989  0.91577474  0.62693929  1
  Fe  Fe174  1  0.64310321  0.58336582  0.49853197  1
  Fe  Fe175  1  0.14358648  0.91662707  0.74881670  1
  Fe  Fe176  1  0.60722593  0.75040853  0.62275764  1
  Fe  Fe177  1  0.10651997  0.41693222  0.87366146  1
  Fe  Fe178  1  0.85798230  0.75013594  0.50216864  1
  Fe  Fe179  1  0.64326999  0.58376710  0.99931911  1
  Fe  Fe180  1  0.14242412  0.58367054  0.49930110  1
  Fe  Fe181  1  0.39287899  0.91653281  0.12640217  1
  Fe  Fe182  1  0.85677450  0.08267243  0.75185891  1
  Fe  Fe183  1  0.89333822  0.91706966  0.12626549  1
  Fe  Fe184  1  0.39327934  0.91612678  0.87708104  1
  Fe  Fe185  1  0.89388725  0.24901015  0.37672068  1
  Fe  Fe186  1  0.35592936  0.08304615  0.50092641  1
  Fe  Fe187  1  0.60653162  0.08312072  0.87295418  1
  Fe  Fe188  1  0.64254489  0.91646263  0.74768907  1
  Fe  Fe189  1  0.85734150  0.41693708  0.75139337  1
  Fe  Fe190  1  0.89190531  0.58410176  0.12632472  1
  Fe  Fe191  1  0.39309786  0.58374414  0.62636557  1
  P  P192  1  0.05287745  0.24945515  0.11086730  1
  P  P193  1  0.05470112  0.24940120  0.36036840  1
  P  P194  1  0.05191823  0.24994418  0.60986798  1
  P  P195  1  0.05301576  0.25108520  0.86022596  1
  P  P196  1  0.05087004  0.58461862  0.10972576  1
  P  P197  1  0.05481878  0.58437220  0.36120950  1
  P  P198  1  0.05170668  0.58342472  0.60956158  1
  P  P199  1  0.05231789  0.58260366  0.85965980  1
  P  P200  1  0.05392056  0.91638833  0.11012595  1
  P  P201  1  0.05653878  0.91615684  0.36128724  1
  P  P202  1  0.05399756  0.91653782  0.61143779  1
  P  P203  1  0.05530702  0.91648398  0.86035189  1
  P  P204  1  0.55204361  0.24908814  0.11021755  1
  P  P205  1  0.55477471  0.25050323  0.36113604  1
  P  P206  1  0.55401958  0.24958158  0.60915549  1
  P  P207  1  0.55352379  0.24882921  0.85980872  1
  P  P208  1  0.55324523  0.58361768  0.10983473  1
  P  P209  1  0.55536300  0.58292087  0.36154074  1
  P  P210  1  0.55480385  0.58454750  0.61075500  1
  P  P211  1  0.55543278  0.58365498  0.86063459  1
  P  P212  1  0.55275976  0.91720873  0.10959265  1
  P  P213  1  0.55256388  0.91674555  0.36017733  1
  P  P214  1  0.55286643  0.91588583  0.61116410  1
  P  P215  1  0.55438652  0.91724640  0.86027876  1
  P  P216  1  0.44613922  0.08280654  0.13873282  1
  P  P217  1  0.44515866  0.08332168  0.39078876  1
  P  P218  1  0.44363644  0.08244566  0.63888416  1
  P  P219  1  0.44548709  0.08206530  0.88913147  1
  P  P220  1  0.44699796  0.41675467  0.14019920  1
  P  P221  1  0.44821388  0.41672191  0.39063631  1
  P  P222  1  0.44696849  0.41771856  0.63988619  1
  P  P223  1  0.44753579  0.41765707  0.88994557  1
  P  P224  1  0.44692303  0.75017106  0.14001093  1
  P  P225  1  0.44550734  0.74999693  0.39107542  1
  P  P226  1  0.44618139  0.74974687  0.63855691  1
  P  P227  1  0.44719871  0.75013043  0.88995923  1
  P  P228  1  0.94825731  0.08233485  0.13968940  1
  P  P229  1  0.94919209  0.08384830  0.38989529  1
  P  P230  1  0.94608144  0.08298924  0.64086330  1
  P  P231  1  0.94537660  0.08289887  0.88932705  1
  P  P232  1  0.94402543  0.41699090  0.13935793  1
  P  P233  1  0.94547789  0.41560974  0.38864214  1
  P  P234  1  0.94518559  0.41684596  0.63990869  1
  P  P235  1  0.94518651  0.41696977  0.88959809  1
  P  P236  1  0.94556862  0.75087365  0.13891634  1
  P  P237  1  0.94668114  0.75070129  0.38989627  1
  P  P238  1  0.94435614  0.75011157  0.63931757  1
  P  P239  1  0.94378932  0.75028934  0.88915165  1
  P  P240  1  0.19365895  0.08337114  0.23527823  1
  P  P241  1  0.19662219  0.08285320  0.48513962  1
  P  P242  1  0.19814308  0.08194677  0.73546385  1
  P  P243  1  0.19665122  0.08242361  0.98660537  1
  P  P244  1  0.19613135  0.41599961  0.23403314  1
  P  P245  1  0.19625630  0.41729952  0.48535935  1
  P  P246  1  0.19517247  0.41684925  0.73631882  1
  P  P247  1  0.19582161  0.41686018  0.98416385  1
  P  P248  1  0.19391904  0.75042260  0.23469412  1
  P  P249  1  0.19686205  0.74972771  0.48510570  1
  P  P250  1  0.19685701  0.75093956  0.73549518  1
  P  P251  1  0.19510262  0.75061248  0.98642587  1
  P  P252  1  0.69618311  0.08312733  0.23426262  1
  P  P253  1  0.69743983  0.08371097  0.48488561  1
  P  P254  1  0.69613447  0.08233543  0.73611239  1
  P  P255  1  0.69403315  0.08235067  0.98574581  1
  P  P256  1  0.69733167  0.41656750  0.23624500  1
  P  P257  1  0.69617019  0.41671075  0.48423152  1
  P  P258  1  0.69832437  0.41727516  0.73497454  1
  P  P259  1  0.69871308  0.41726969  0.98552932  1
  P  P260  1  0.69873051  0.75032809  0.23529802  1
  P  P261  1  0.69717179  0.74980227  0.48623071  1
  P  P262  1  0.69637126  0.75073852  0.73478258  1
  P  P263  1  0.69808167  0.75029567  0.98525224  1
  P  P264  1  0.30425705  0.24884724  0.01591292  1
  P  P265  1  0.30292634  0.24975095  0.26382816  1
  P  P266  1  0.30095527  0.24961043  0.51466276  1
  P  P267  1  0.30315889  0.24889697  0.76525486  1
  P  P268  1  0.30518050  0.58334564  0.01453839  1
  P  P269  1  0.30440105  0.58328639  0.26365144  1
  P  P270  1  0.30235152  0.58427303  0.51559365  1
  P  P271  1  0.30568191  0.58365540  0.76496125  1
  P  P272  1  0.30446265  0.91734245  0.01478121  1
  P  P273  1  0.30231802  0.91661255  0.26318369  1
  P  P274  1  0.30214592  0.91603931  0.51501974  1
  P  P275  1  0.30461222  0.91703088  0.76502521  1
  P  P276  1  0.80394391  0.25036957  0.01590600  1
  P  P277  1  0.80634525  0.24995832  0.26455732  1
  P  P278  1  0.80417938  0.24960672  0.51394697  1
  P  P279  1  0.80490822  0.24954524  0.76353046  1
  P  P280  1  0.80271345  0.58390616  0.01514057  1
  P  P281  1  0.80580329  0.58391627  0.26401011  1
  P  P282  1  0.80287512  0.58418622  0.51521699  1
  P  P283  1  0.80325040  0.58388976  0.76310799  1
  P  P284  1  0.80263976  0.91625053  0.01539932  1
  P  P285  1  0.80552598  0.91632584  0.26402354  1
  P  P286  1  0.80479079  0.91629331  0.51562380  1
  P  P287  1  0.80320157  0.91672524  0.76365783  1
  O  O288  1  0.05747877  0.25016570  0.18753128  1
  O  O289  1  0.05904568  0.25010753  0.43716568  1
  O  O290  1  0.05592283  0.24983751  0.68653567  1
  O  O291  1  0.05624750  0.25009917  0.93699092  1
  O  O292  1  0.05467932  0.58403094  0.18640448  1
  O  O293  1  0.05908228  0.58369808  0.43792656  1
  O  O294  1  0.05583980  0.58377919  0.68621189  1
  O  O295  1  0.05564026  0.58353713  0.93649468  1
  O  O296  1  0.05789198  0.91642195  0.18691561  1
  O  O297  1  0.06006175  0.91604326  0.43815155  1
  O  O298  1  0.05909300  0.91643885  0.68802681  1
  O  O299  1  0.05972611  0.91665709  0.93710595  1
  O  O300  1  0.55615519  0.24969661  0.18689325  1
  O  O301  1  0.55932963  0.24977233  0.43784654  1
  O  O302  1  0.55734216  0.24926068  0.68595686  1
  O  O303  1  0.55655871  0.24973043  0.93656209  1
  O  O304  1  0.55721486  0.58385187  0.18656156  1
  O  O305  1  0.55975273  0.58387631  0.43830293  1
  O  O306  1  0.55965214  0.58386383  0.68748555  1
  O  O307  1  0.56064685  0.58362421  0.93736163  1
  O  O308  1  0.55645456  0.91638449  0.18629165  1
  O  O309  1  0.55605409  0.91657759  0.43694109  1
  O  O310  1  0.55812489  0.91655195  0.68779401  1
  O  O311  1  0.55914157  0.91624161  0.93696224  1
  O  O312  1  0.44204476  0.08274387  0.06199625  1
  O  O313  1  0.44198521  0.08333872  0.31397411  1
  O  O314  1  0.43885989  0.08312788  0.56217318  1
  O  O315  1  0.44102498  0.08275081  0.81242067  1
  O  O316  1  0.44403865  0.41663723  0.06344478  1
  O  O317  1  0.44390219  0.41662849  0.31395832  1
  O  O318  1  0.44367979  0.41706771  0.56314703  1
  O  O319  1  0.44447741  0.41698216  0.81319784  1
  O  O320  1  0.44440857  0.75022946  0.06322139  1
  O  O321  1  0.44193389  0.75012518  0.31431748  1
  O  O322  1  0.44101314  0.74998222  0.56200982  1
  O  O323  1  0.44462644  0.75032307  0.81302837  1
  O  O324  1  0.94421942  0.08230118  0.06303242  1
  O  O325  1  0.94534689  0.08307020  0.31329943  1
  O  O326  1  0.94415274  0.08269621  0.56402232  1
  O  O327  1  0.94049757  0.08245949  0.81264216  1
  O  O328  1  0.94049181  0.41724667  0.06244654  1
  O  O329  1  0.94180682  0.41667586  0.31188739  1
  O  O330  1  0.94258164  0.41690630  0.56308379  1
  O  O331  1  0.94027788  0.41722966  0.81287835  1
  O  O332  1  0.94097163  0.75070969  0.06216541  1
  O  O333  1  0.94219204  0.75062449  0.31316716  1
  O  O334  1  0.94110448  0.75005609  0.56245608  1
  O  O335  1  0.93917895  0.75054379  0.81240222  1
  O  O336  1  0.19125202  0.08316287  0.06323446  1
  O  O337  1  0.19029450  0.08344280  0.31211220  1
  O  O338  1  0.19361886  0.08294285  0.56185914  1
  O  O339  1  0.19461798  0.08273472  0.81216501  1
  O  O340  1  0.19217992  0.41708228  0.06093020  1
  O  O341  1  0.19282286  0.41682681  0.31080914  1
  O  O342  1  0.19361241  0.41731295  0.56215483  1
  O  O343  1  0.19062110  0.41713629  0.81301695  1
  O  O344  1  0.19033569  0.74952751  0.06307881  1
  O  O345  1  0.19040054  0.74965832  0.31147209  1
  O  O346  1  0.19351083  0.74962607  0.56182582  1
  O  O347  1  0.19365409  0.74991505  0.81224254  1
  O  O348  1  0.68980320  0.08318471  0.06252328  1
  O  O349  1  0.69287867  0.08320913  0.31100625  1
  O  O350  1  0.69392159  0.08322562  0.56166435  1
  O  O351  1  0.69120805  0.08273822  0.81274320  1
  O  O352  1  0.69505229  0.41627328  0.06228334  1
  O  O353  1  0.69220079  0.41628436  0.31281014  1
  O  O354  1  0.69377815  0.41650393  0.56112506  1
  O  O355  1  0.69487372  0.41671555  0.81165033  1
  O  O356  1  0.69477989  0.75047387  0.06222668  1
  O  O357  1  0.69442462  0.75052469  0.31190909  1
  O  O358  1  0.69184954  0.75058710  0.56292280  1
  O  O359  1  0.69334843  0.75089842  0.81087085  1
  O  O360  1  0.30874085  0.24994549  0.18724019  1
  O  O361  1  0.30463572  0.25035233  0.43795609  1
  O  O362  1  0.30598766  0.24997912  0.68849795  1
  O  O363  1  0.30733405  0.24954919  0.93912047  1
  O  O364  1  0.30951057  0.58323435  0.18696084  1
  O  O365  1  0.30575981  0.58351536  0.43882567  1
  O  O366  1  0.31016650  0.58376614  0.68823753  1
  O  O367  1  0.30992685  0.58356039  0.93779834  1
  O  O368  1  0.30800021  0.91656001  0.18663012  1
  O  O369  1  0.30477502  0.91591513  0.43826683  1
  O  O370  1  0.30889306  0.91573711  0.68827896  1
  O  O371  1  0.30935788  0.91643855  0.93808832  1
  O  O372  1  0.81055520  0.24859451  0.18775305  1
  O  O373  1  0.80941854  0.24894314  0.43732925  1
  O  O374  1  0.80842397  0.24949219  0.68672510  1
  O  O375  1  0.80639888  0.24923030  0.93906974  1
  O  O376  1  0.80938061  0.58406546  0.18716479  1
  O  O377  1  0.80665424  0.58384174  0.43853447  1
  O  O378  1  0.80756304  0.58351279  0.68632067  1
  O  O379  1  0.80540181  0.58382579  0.93876674  1
  O  O380  1  0.80976265  0.91736634  0.18728082  1
  O  O381  1  0.80815726  0.91715291  0.43885214  1
  O  O382  1  0.80805980  0.91714718  0.68699784  1
  O  O383  1  0.80608025  0.91726818  0.93879732  1
  O  O384  1  0.23443376  0.24958295  0.04066478  1
  O  O385  1  0.23239875  0.24937039  0.28664194  1
  O  O386  1  0.23095157  0.24974206  0.53956921  1
  O  O387  1  0.23367110  0.24878767  0.79093483  1
  O  O388  1  0.23493234  0.58321593  0.03810860  1
  O  O389  1  0.23415492  0.58353711  0.28689174  1
  O  O390  1  0.23230521  0.58382699  0.54042072  1
  O  O391  1  0.23549065  0.58400119  0.78863378  1
  O  O392  1  0.23401681  0.91680306  0.03814439  1
  O  O393  1  0.23181868  0.91675244  0.28613909  1
  O  O394  1  0.23210887  0.91626500  0.54008361  1
  O  O395  1  0.23443409  0.91660056  0.78912991  1
  O  O396  1  0.73434722  0.25009419  0.04141139  1
  O  O397  1  0.73616083  0.24951346  0.28814422  1
  O  O398  1  0.73375312  0.25013542  0.53737900  1
  O  O399  1  0.73514830  0.24968641  0.78859717  1
  O  O400  1  0.73281512  0.58370203  0.04083209  1
  O  O401  1  0.73597186  0.58420724  0.28866646  1
  O  O402  1  0.73273451  0.58321507  0.53950742  1
  O  O403  1  0.73301055  0.58452449  0.78726626  1
  O  O404  1  0.73254558  0.91631803  0.03997307  1
  O  O405  1  0.73560738  0.91648898  0.28847724  1
  O  O406  1  0.73496807  0.91678063  0.54038248  1
  O  O407  1  0.73294933  0.91631793  0.78758565  1
  O  O408  1  0.26366789  0.08310128  0.21094416  1
  O  O409  1  0.26653009  0.08260612  0.45976073  1
  O  O410  1  0.26798413  0.08239125  0.71057365  1
  O  O411  1  0.26709430  0.08247947  0.96336021  1
  O  O412  1  0.26581054  0.41634246  0.20911033  1
  O  O413  1  0.26567976  0.41706591  0.45924052  1
  O  O414  1  0.26525002  0.41675537  0.71239382  1
  O  O415  1  0.26572877  0.41672662  0.95979666  1
  O  O416  1  0.26388787  0.74994089  0.21026322  1
  O  O417  1  0.26680512  0.75003443  0.45997151  1
  O  O418  1  0.26657199  0.75053298  0.71060971  1
  O  O419  1  0.26527429  0.75058241  0.96263699  1
  O  O420  1  0.76608556  0.08304589  0.20971929  1
  O  O421  1  0.76716516  0.08310284  0.45983495  1
  O  O422  1  0.76647096  0.08295134  0.71237983  1
  O  O423  1  0.76419978  0.08279248  0.96190127  1
  O  O424  1  0.76776243  0.41654383  0.21302592  1
  O  O425  1  0.76582677  0.41696617  0.45888156  1
  O  O426  1  0.76820898  0.41676406  0.70996939  1
  O  O427  1  0.76867668  0.41748036  0.96069933  1
  O  O428  1  0.76885479  0.75016873  0.21119076  1
  O  O429  1  0.76761870  0.75023733  0.46284078  1
  O  O430  1  0.76653083  0.75025968  0.70982702  1
  O  O431  1  0.76795721  0.75056203  0.96021666  1
  O  O432  1  0.01829854  0.08260964  0.16425214  1
  O  O433  1  0.01920413  0.08317427  0.41456900  1
  O  O434  1  0.01558570  0.08330096  0.66675420  1
  O  O435  1  0.01550881  0.08317542  0.91296244  1
  O  O436  1  0.01398848  0.41696063  0.16393905  1
  O  O437  1  0.01528072  0.41585825  0.41333198  1
  O  O438  1  0.01481361  0.41675539  0.66529501  1
  O  O439  1  0.01546327  0.41677218  0.91336274  1
  O  O440  1  0.01589248  0.75109327  0.16280302  1
  O  O441  1  0.01701808  0.75059610  0.41354038  1
  O  O442  1  0.01424409  0.75008799  0.66405174  1
  O  O443  1  0.01402374  0.75003805  0.91264385  1
  O  O444  1  0.51631594  0.08285890  0.16313136  1
  O  O445  1  0.51487214  0.08306952  0.41576244  1
  O  O446  1  0.51389122  0.08263261  0.66248191  1
  O  O447  1  0.51586917  0.08264110  0.91269154  1
  O  O448  1  0.51665566  0.41688124  0.16566058  1
  O  O449  1  0.51827312  0.41702414  0.41484282  1
  O  O450  1  0.51672726  0.41741033  0.66498102  1
  O  O451  1  0.51714073  0.41686192  0.91532672  1
  O  O452  1  0.51638741  0.75023682  0.16593845  1
  O  O453  1  0.51535686  0.75010924  0.41566102  1
  O  O454  1  0.51649327  0.74988496  0.66253539  1
  O  O455  1  0.51658120  0.75013480  0.91537020  1
  O  O456  1  0.48199458  0.24927495  0.08571666  1
  O  O457  1  0.48470116  0.24979069  0.33707486  1
  O  O458  1  0.48415403  0.25020159  0.58457259  1
  O  O459  1  0.48392431  0.24915659  0.83446134  1
  O  O460  1  0.48310847  0.58340093  0.08567113  1
  O  O461  1  0.48527395  0.58327629  0.33762627  1
  O  O462  1  0.48440235  0.58385143  0.58721644  1
  O  O463  1  0.48490821  0.58401888  0.83742187  1
  O  O464  1  0.48269780  0.91692990  0.08503426  1
  O  O465  1  0.48282486  0.91698456  0.33529802  1
  O  O466  1  0.48236805  0.91624128  0.58793090  1
  O  O467  1  0.48387510  0.91656285  0.83684332  1
  O  O468  1  0.98251439  0.24977090  0.08708338  1
  O  O469  1  0.98440199  0.24978523  0.33653618  1
  O  O470  1  0.98173247  0.24970173  0.58571985  1
  O  O471  1  0.98330653  0.25066183  0.83536368  1
  O  O472  1  0.98077662  0.58399995  0.08523334  1
  O  O473  1  0.98481526  0.58436322  0.33708968  1
  O  O474  1  0.98153777  0.58360215  0.58532946  1
  O  O475  1  0.98271721  0.58317603  0.83484488  1
  O  O476  1  0.98364845  0.91623861  0.08588683  1
  O  O477  1  0.98656785  0.91675428  0.33677502  1
  O  O478  1  0.98354710  0.91654427  0.58808496  1
  O  O479  1  0.98507633  0.91631635  0.83686435  1
  O  O480  1  0.08611448  0.31441274  0.07741387  1
  O  O481  1  0.08823047  0.31422769  0.32672707  1
  O  O482  1  0.08560769  0.31486312  0.57681714  1
  O  O483  1  0.08671438  0.31633411  0.82806380  1
  O  O484  1  0.08436616  0.64973757  0.07702011  1
  O  O485  1  0.08819273  0.64960308  0.32846178  1
  O  O486  1  0.08579389  0.64828783  0.57666238  1
  O  O487  1  0.08652896  0.64751715  0.82688325  1
  O  O488  1  0.08756225  0.98143135  0.07708773  1
  O  O489  1  0.09050315  0.98107853  0.32847687  1
  O  O490  1  0.08740214  0.98149270  0.57803352  1
  O  O491  1  0.08884275  0.98144682  0.82707798  1
  O  O492  1  0.58589993  0.31416002  0.07728988  1
  O  O493  1  0.58797637  0.31587978  0.32821330  1
  O  O494  1  0.58864583  0.31452198  0.57710240  1
  O  O495  1  0.58789312  0.31381054  0.82740493  1
  O  O496  1  0.58699877  0.64864428  0.07686707  1
  O  O497  1  0.58882349  0.64793601  0.32812203  1
  O  O498  1  0.58789658  0.64979436  0.57756587  1
  O  O499  1  0.58868094  0.64854548  0.82715235  1
  O  O500  1  0.58663457  0.98221886  0.07704100  1
  O  O501  1  0.58676975  0.98167827  0.32777142  1
  O  O502  1  0.58610006  0.98074762  0.57747199  1
  O  O503  1  0.58726129  0.98259908  0.82702892  1
  O  O504  1  0.41266542  0.01760181  0.17173003  1
  O  O505  1  0.41067003  0.01843016  0.42312087  1
  O  O506  1  0.41034828  0.01726859  0.67201963  1
  O  O507  1  0.41250599  0.01669513  0.92228200  1
  O  O508  1  0.41298559  0.35147917  0.17252138  1
  O  O509  1  0.41452078  0.35162910  0.42343074  1
  O  O510  1  0.41283976  0.35258214  0.67227118  1
  O  O511  1  0.41292393  0.35281576  0.92229114  1
  O  O512  1  0.41265450  0.68504626  0.17204996  1
  O  O513  1  0.41149211  0.68501819  0.42379464  1
  O  O514  1  0.41316756  0.68452762  0.67188302  1
  O  O515  1  0.41280920  0.68511326  0.92197893  1
  O  O516  1  0.91494837  0.01711034  0.17265923  1
  O  O517  1  0.91525117  0.01909195  0.42299628  1
  O  O518  1  0.91175933  0.01787611  0.67319376  1
  O  O519  1  0.91218224  0.01791109  0.92279674  1
  O  O520  1  0.91038584  0.35176852  0.17192553  1
  O  O521  1  0.91189473  0.35033309  0.42097046  1
  O  O522  1  0.91094384  0.35177290  0.67212441  1
  O  O523  1  0.91158658  0.35210102  0.92292765  1
  O  O524  1  0.91234857  0.68581398  0.17236326  1
  O  O525  1  0.91298460  0.68586986  0.42324375  1
  O  O526  1  0.91039594  0.68503230  0.67189910  1
  O  O527  1  0.91015531  0.68546375  0.92228295  1
  O  O528  1  0.15983819  0.01832921  0.20236016  1
  O  O529  1  0.16254053  0.01774810  0.45283551  1
  O  O530  1  0.16444677  0.01674889  0.70304180  1
  O  O531  1  0.16351426  0.01733890  0.95334318  1
  O  O532  1  0.16214704  0.35072366  0.20201617  1
  O  O533  1  0.16173235  0.35218396  0.45340509  1
  O  O534  1  0.16166718  0.35172464  0.70330251  1
  O  O535  1  0.16170340  0.35177264  0.95183530  1
  O  O536  1  0.15974735  0.68581061  0.20133631  1
  O  O537  1  0.16288236  0.68468349  0.45240028  1
  O  O538  1  0.16258687  0.68621701  0.70253036  1
  O  O539  1  0.16175673  0.68571753  0.95270319  1
  O  O540  1  0.66190642  0.01819546  0.20179670  1
  O  O541  1  0.66322409  0.01865486  0.45252595  1
  O  O542  1  0.66311148  0.01712203  0.70270160  1
  O  O543  1  0.66073251  0.01697639  0.95302112  1
  O  O544  1  0.66427840  0.35163438  0.20244658  1
  O  O545  1  0.66208699  0.35162431  0.45192205  1
  O  O546  1  0.66423034  0.35238528  0.70222884  1
  O  O547  1  0.66511505  0.35213710  0.95251561  1
  O  O548  1  0.66500934  0.68538118  0.20232683  1
  O  O549  1  0.66431776  0.68449724  0.45315140  1
  O  O550  1  0.66215075  0.68579821  0.70183784  1
  O  O551  1  0.66441510  0.68511253  0.95299507  1
  O  O552  1  0.33875980  0.31370259  0.04841190  1
  O  O553  1  0.33576124  0.31476969  0.29774503  1
  O  O554  1  0.33493206  0.31452025  0.54761883  1
  O  O555  1  0.33735872  0.31386737  0.79788573  1
  O  O556  1  0.33857497  0.64832876  0.04799213  1
  O  O557  1  0.33762991  0.64831890  0.29700464  1
  O  O558  1  0.33619970  0.64955675  0.54790834  1
  O  O559  1  0.33945550  0.64856567  0.79823207  1
  O  O560  1  0.33757111  0.98247714  0.04802531  1
  O  O561  1  0.33524164  0.98160408  0.29689635  1
  O  O562  1  0.33635463  0.98095234  0.54742576  1
  O  O563  1  0.33804738  0.98227090  0.79767287  1
  O  O564  1  0.83827183  0.31556449  0.04741634  1
  O  O565  1  0.83963172  0.31524938  0.29721448  1
  O  O566  1  0.83764578  0.31464893  0.54710699  1
  O  O567  1  0.83858528  0.31485641  0.79601599  1
  O  O568  1  0.83681491  0.64915206  0.04766264  1
  O  O569  1  0.83963460  0.64898667  0.29672407  1
  O  O570  1  0.83644868  0.64918614  0.54807856  1
  O  O571  1  0.83673067  0.64895871  0.79596107  1
  O  O572  1  0.83668767  0.98099415  0.04875933  1
  O  O573  1  0.83914313  0.98128814  0.29738790  1
  O  O574  1  0.83924121  0.98100616  0.54846736  1
  O  O575  1  0.83633298  0.98166295  0.79741210  1
  O  O576  1  0.41257632  0.14778616  0.17189147  1
  O  O577  1  0.41097368  0.14832055  0.42327470  1
  O  O578  1  0.41023586  0.14744515  0.67239202  1
  O  O579  1  0.41169077  0.14666501  0.92282971  1
  O  O580  1  0.41292281  0.48196624  0.17238866  1
  O  O581  1  0.41430581  0.48167316  0.42341098  1
  O  O582  1  0.41312132  0.48295059  0.67201432  1
  O  O583  1  0.41381735  0.48298606  0.92211789  1
  O  O584  1  0.41253051  0.81546812  0.17190379  1
  O  O585  1  0.41117154  0.81488771  0.42364074  1
  O  O586  1  0.41281200  0.81475454  0.67209742  1
  O  O587  1  0.41286381  0.81526158  0.92207922  1
  O  O588  1  0.91444140  0.14730640  0.17250758  1
  O  O589  1  0.91560559  0.14905990  0.42243263  1
  O  O590  1  0.91132587  0.14801822  0.67249678  1
  O  O591  1  0.91180734  0.14786958  0.92238374  1
  O  O592  1  0.91037383  0.48213973  0.17213249  1
  O  O593  1  0.91173991  0.48049643  0.42185428  1
  O  O594  1  0.91101115  0.48202801  0.67223158  1
  O  O595  1  0.91174312  0.48188532  0.92288707  1
  O  O596  1  0.91232966  0.81600755  0.17221358  1
  O  O597  1  0.91326893  0.81564061  0.42312576  1
  O  O598  1  0.91053607  0.81520396  0.67217691  1
  O  O599  1  0.91059180  0.81523678  0.92278439  1
  O  O600  1  0.08605144  0.18425513  0.07778788  1
  O  O601  1  0.08801118  0.18417156  0.32763629  1
  O  O602  1  0.08595749  0.18496169  0.57719935  1
  O  O603  1  0.08704500  0.18602033  0.82747219  1
  O  O604  1  0.08490714  0.51969895  0.07698693  1
  O  O605  1  0.08804310  0.51932648  0.32764533  1
  O  O606  1  0.08551422  0.51844174  0.57676640  1
  O  O607  1  0.08614942  0.51730460  0.82761940  1
  O  O608  1  0.08756500  0.85141819  0.07707548  1
  O  O609  1  0.08967497  0.85088355  0.32815138  1
  O  O610  1  0.08732249  0.85167746  0.57768550  1
  O  O611  1  0.08881516  0.85154480  0.82710378  1
  O  O612  1  0.58571939  0.18406797  0.07757254  1
  O  O613  1  0.58848321  0.18564776  0.32779547  1
  O  O614  1  0.58781045  0.18452971  0.57642971  1
  O  O615  1  0.58734129  0.18348829  0.82769115  1
  O  O616  1  0.58733503  0.51870841  0.07708406  1
  O  O617  1  0.58878980  0.51768641  0.32875178  1
  O  O618  1  0.58862277  0.51978801  0.57738006  1
  O  O619  1  0.58857900  0.51856673  0.82711285  1
  O  O620  1  0.58685407  0.85231920  0.07649206  1
  O  O621  1  0.58650708  0.85163144  0.32758655  1
  O  O622  1  0.58594096  0.85071741  0.57785724  1
  O  O623  1  0.58807884  0.85263151  0.82665077  1
  O  O624  1  0.33796449  0.18355389  0.04822585  1
  O  O625  1  0.33602669  0.18471467  0.29727006  1
  O  O626  1  0.33480677  0.18441342  0.54682664  1
  O  O627  1  0.33745501  0.18366107  0.79700717  1
  O  O628  1  0.33877336  0.51838727  0.04767044  1
  O  O629  1  0.33748407  0.51825534  0.29731478  1
  O  O630  1  0.33678340  0.51957283  0.54844631  1
  O  O631  1  0.33922427  0.51868879  0.79818930  1
  O  O632  1  0.33801317  0.85258364  0.04850657  1
  O  O633  1  0.33514956  0.85158416  0.29693363  1
  O  O634  1  0.33608422  0.85098559  0.54779405  1
  O  O635  1  0.33849211  0.85236164  0.79873369  1
  O  O636  1  0.83844612  0.18546527  0.04853194  1
  O  O637  1  0.84016077  0.18519034  0.29813390  1
  O  O638  1  0.83740001  0.18480736  0.54783841  1
  O  O639  1  0.83845249  0.18437545  0.79640693  1
  O  O640  1  0.83718030  0.51910691  0.04784343  1
  O  O641  1  0.83919826  0.51861950  0.29673767  1
  O  O642  1  0.83714708  0.51934703  0.54790385  1
  O  O643  1  0.83625542  0.51877022  0.79646417  1
  O  O644  1  0.83685113  0.85120779  0.04765967  1
  O  O645  1  0.83920234  0.85113083  0.29658415  1
  O  O646  1  0.83872761  0.85113266  0.54789749  1
  O  O647  1  0.83657970  0.85148569  0.79649888  1
  O  O648  1  0.16004632  0.14844810  0.20227802  1
  O  O649  1  0.16258360  0.14791530  0.45255522  1
  O  O650  1  0.16389234  0.14675108  0.70258919  1
  O  O651  1  0.16357224  0.14744200  0.95288545  1
  O  O652  1  0.16192705  0.48092358  0.20129606  1
  O  O653  1  0.16212294  0.48256350  0.45326693  1
  O  O654  1  0.16183619  0.48187682  0.70291861  1
  O  O655  1  0.16165449  0.48176968  0.95147146  1
  O  O656  1  0.16038021  0.81574578  0.20206396  1
  O  O657  1  0.16266953  0.81481108  0.45275053  1
  O  O658  1  0.16305524  0.81622717  0.70335845  1
  O  O659  1  0.16184303  0.81593367  0.95373903  1
  O  O660  1  0.66210355  0.14808099  0.20153096  1
  O  O661  1  0.66373202  0.14893461  0.45253685  1
  O  O662  1  0.66264794  0.14716768  0.70257860  1
  O  O663  1  0.66027303  0.14714979  0.95227206  1
  O  O664  1  0.66436956  0.48171528  0.20286233  1
  O  O665  1  0.66191000  0.48190467  0.45236671  1
  O  O666  1  0.66457782  0.48246933  0.70258357  1
  O  O667  1  0.66469356  0.48235436  0.95341803  1
  O  O668  1  0.66507556  0.81525302  0.20217549  1
  O  O669  1  0.66393017  0.81472029  0.45256362  1
  O  O670  1  0.66262270  0.81584667  0.70147614  1
  O  O671  1  0.66394378  0.81525332  0.95285502  1
