# generated using pymatgen
data_Na2MnFe(PO4)2
_symmetry_space_group_name_H-M   'P 1'
_cell_length_a   21.08596348
_cell_length_b   18.93835692
_cell_length_c   20.04474936
_cell_angle_alpha   90.00008702
_cell_angle_beta   89.99657586
_cell_angle_gamma   89.99903377
_symmetry_Int_Tables_number   1
_chemical_formula_structural   Na2MnFe(PO4)2
_chemical_formula_sum   'Na96 Mn48 Fe48 P96 O384'
_cell_volume   8004.53995318
_cell_formula_units_Z   48
loop_
 _symmetry_equiv_pos_site_id
 _symmetry_equiv_pos_as_xyz
  1  'x, y, z'
loop_
 _atom_site_type_symbol
 _atom_site_label
 _atom_site_symmetry_multiplicity
 _atom_site_fract_x
 _atom_site_fract_y
 _atom_site_fract_z
 _atom_site_occupancy
  Na  Na0  1  0.00213780  0.00079068  0.00121648  1
  Na  Na1  1  0.00003028  -0.00001881  0.25030942  1
  Na  Na2  1  0.00135072  0.00098491  0.49942331  1
  Na  Na3  1  0.00015483  -0.00051120  0.74937493  1
  Na  Na4  1  -0.00084335  0.33295250  -0.00038830  1
  Na  Na5  1  -0.00072249  0.33347318  0.24990811  1
  Na  Na6  1  0.00049165  0.33305598  0.50108514  1
  Na  Na7  1  0.00295399  0.33459439  0.74914993  1
  Na  Na8  1  -0.00274624  0.66536897  0.00077875  1
  Na  Na9  1  0.00099938  0.66665921  0.25039933  1
  Na  Na10  1  0.00227428  0.66723354  0.49938740  1
  Na  Na11  1  0.00006425  0.66666649  0.75016028  1
  Na  Na12  1  0.50078048  0.00020287  -0.00109334  1
  Na  Na13  1  0.49960742  -0.00063843  0.25067915  1
  Na  Na14  1  0.50310522  0.00160624  0.50019667  1
  Na  Na15  1  0.50007115  -0.00044263  0.75009768  1
  Na  Na16  1  0.50038834  0.33330813  -0.00088092  1
  Na  Na17  1  0.50127764  0.33343469  0.25117197  1
  Na  Na18  1  0.50034414  0.33300207  0.50063170  1
  Na  Na19  1  0.50048523  0.33345128  0.74990986  1
  Na  Na20  1  0.49860239  0.66626940  0.00015530  1
  Na  Na21  1  0.49714299  0.66630246  0.25034421  1
  Na  Na22  1  0.49715418  0.66612806  0.49951854  1
  Na  Na23  1  0.49930949  0.66687807  0.74897667  1
  Na  Na24  1  0.24920640  -0.00024110  0.12490544  1
  Na  Na25  1  0.24725883  -0.00071620  0.37436338  1
  Na  Na26  1  0.24852316  0.00004323  0.62548243  1
  Na  Na27  1  0.25144083  0.00093243  0.87498464  1
  Na  Na28  1  0.24918554  0.33342753  0.12571541  1
  Na  Na29  1  0.24953674  0.33323646  0.37437184  1
  Na  Na30  1  0.24990078  0.33332958  0.62536185  1
  Na  Na31  1  0.24821959  0.33285731  0.87475683  1
  Na  Na32  1  0.25004905  0.66627969  0.12402204  1
  Na  Na33  1  0.25048512  0.66697976  0.37553715  1
  Na  Na34  1  0.24880908  0.66599032  0.62486810  1
  Na  Na35  1  0.25115173  0.66727458  0.87598968  1
  Na  Na36  1  0.74993630  -0.00019861  0.12499752  1
  Na  Na37  1  0.75086022  0.00120984  0.37548799  1
  Na  Na38  1  0.74767233  -0.00063527  0.62412615  1
  Na  Na39  1  0.74936971  0.00006571  0.87579390  1
  Na  Na40  1  0.75046152  0.33389487  0.12565921  1
  Na  Na41  1  0.74967832  0.33301342  0.37360330  1
  Na  Na42  1  0.74850511  0.33267191  0.62464250  1
  Na  Na43  1  0.74948142  0.33397012  0.87553705  1
  Na  Na44  1  0.75235074  0.66697423  0.12456822  1
  Na  Na45  1  0.75059636  0.66651618  0.37432979  1
  Na  Na46  1  0.75023659  0.66625167  0.62494198  1
  Na  Na47  1  0.75321620  0.66764047  0.87543046  1
  Na  Na48  1  -0.00118842  0.16710261  -0.00023878  1
  Na  Na49  1  -0.00282343  0.16718346  0.25067805  1
  Na  Na50  1  -0.00061409  0.16650925  0.50046083  1
  Na  Na51  1  0.00301228  0.16489811  0.74911263  1
  Na  Na52  1  -0.00040054  0.49951098  0.00121853  1
  Na  Na53  1  0.00194501  0.49923478  0.25031927  1
  Na  Na54  1  0.00236517  0.49903031  0.49979330  1
  Na  Na55  1  -0.00024455  0.49981985  0.74903611  1
  Na  Na56  1  0.00051279  0.83394687  0.00071554  1
  Na  Na57  1  0.00151034  0.83384555  0.24951148  1
  Na  Na58  1  0.00170307  0.83383880  0.49955360  1
  Na  Na59  1  0.00138721  0.83339559  0.75061257  1
  Na  Na60  1  0.50008637  0.16597137  -0.00092095  1
  Na  Na61  1  0.49940951  0.16662263  0.25133440  1
  Na  Na62  1  0.50095536  0.16651817  0.49992065  1
  Na  Na63  1  0.50063785  0.16670429  0.75012696  1
  Na  Na64  1  0.50117846  0.49893966  -0.00060827  1
  Na  Na65  1  0.50067661  0.49943367  0.24943094  1
  Na  Na66  1  0.49960516  0.49949969  0.50056888  1
  Na  Na67  1  0.49826221  0.50015597  0.74978677  1
  Na  Na68  1  0.49921874  0.83429741  -0.00009864  1
  Na  Na69  1  0.49848868  0.83389227  0.25133930  1
  Na  Na70  1  0.50014954  0.83329804  0.49975491  1
  Na  Na71  1  0.50048689  0.83367955  0.74893428  1
  Na  Na72  1  0.25194009  0.16543435  0.12588058  1
  Na  Na73  1  0.25003117  0.16646099  0.37496255  1
  Na  Na74  1  0.24980951  0.16611631  0.62503310  1
  Na  Na75  1  0.24872708  0.16737645  0.87443169  1
  Na  Na76  1  0.24744377  0.50013304  0.12447314  1
  Na  Na77  1  0.24663035  0.50058610  0.37484925  1
  Na  Na78  1  0.24856539  0.49970962  0.62477686  1
  Na  Na79  1  0.25022384  0.49869969  0.87582320  1
  Na  Na80  1  0.24941152  0.83427654  0.12430033  1
  Na  Na81  1  0.25061864  0.83298773  0.37449384  1
  Na  Na82  1  0.24955527  0.83361621  0.62575366  1
  Na  Na83  1  0.25031674  0.83398593  0.87563970  1
  Na  Na84  1  0.75177447  0.16574153  0.12541537  1
  Na  Na85  1  0.74975440  0.16688143  0.37478210  1
  Na  Na86  1  0.74820352  0.16709421  0.62369670  1
  Na  Na87  1  0.74824408  0.16715179  0.87638049  1
  Na  Na88  1  0.75060330  0.49981439  0.12475109  1
  Na  Na89  1  0.74995815  0.49978039  0.37383248  1
  Na  Na90  1  0.75046169  0.49907236  0.62555839  1
  Na  Na91  1  0.75081963  0.49980295  0.87579630  1
  Na  Na92  1  0.75030779  0.83399013  0.12492633  1
  Na  Na93  1  0.75028142  0.83394624  0.37492771  1
  Na  Na94  1  0.74856979  0.83498919  0.62402628  1
  Na  Na95  1  0.75077217  0.83389452  0.87507578  1
  Mn  Mn96  1  0.10882185  0.75042325  0.37186263  1
  Mn  Mn97  1  0.89314765  0.58379127  0.62632214  1
  Mn  Mn98  1  0.89268553  0.91644401  0.62663269  1
  Mn  Mn99  1  0.64258417  0.24971864  0.24719586  1
  Mn  Mn100  1  0.39197083  0.25017266  0.87695499  1
  Mn  Mn101  1  0.89331600  0.58313817  0.37775193  1
  Mn  Mn102  1  0.14194535  0.58298481  0.74864874  1
  Mn  Mn103  1  0.14133135  0.58368071  0.99715791  1
  Mn  Mn104  1  0.35785595  0.75030756  0.00241113  1
  Mn  Mn105  1  0.14234292  0.91703470  0.74842010  1
  Mn  Mn106  1  0.35789143  0.08365271  0.00240221  1
  Mn  Mn107  1  0.85827728  0.74992324  0.50251986  1
  Mn  Mn108  1  0.39166928  0.91675244  0.37793911  1
  Mn  Mn109  1  0.10683852  0.74967607  0.87304152  1
  Mn  Mn110  1  0.89300568  0.91683242  0.12743241  1
  Mn  Mn111  1  0.35741173  0.41704676  0.25207092  1
  Mn  Mn112  1  0.10767576  0.08395767  0.12317612  1
  Mn  Mn113  1  0.14130860  0.24910839  0.99823793  1
  Mn  Mn114  1  0.64245639  0.91643271  0.24770600  1
  Mn  Mn115  1  0.85851423  0.75069651  0.75161791  1
  Mn  Mn116  1  0.64238269  0.58375303  0.74811693  1
  Mn  Mn117  1  0.39285528  0.25054147  0.37750802  1
  Mn  Mn118  1  0.39083193  0.58243456  0.62758252  1
  Mn  Mn119  1  0.85747460  0.08353324  0.75168809  1
  Mn  Mn120  1  0.89246113  0.24976556  0.87619557  1
  Mn  Mn121  1  0.64177685  0.58410688  0.24774582  1
  Mn  Mn122  1  0.35777064  0.74995242  0.75256831  1
  Mn  Mn123  1  0.60832737  0.74914416  0.87293311  1
  Mn  Mn124  1  0.14175201  0.24973494  0.24753921  1
  Mn  Mn125  1  0.60677910  0.74930440  0.37266269  1
  Mn  Mn126  1  0.85881493  0.75097960  0.25240027  1
  Mn  Mn127  1  0.85801239  0.41642689  0.25250773  1
  Mn  Mn128  1  0.85802387  0.41589953  0.75216057  1
  Mn  Mn129  1  0.39195810  0.58294522  0.12783699  1
  Mn  Mn130  1  0.89231669  0.24985654  0.62755751  1
  Mn  Mn131  1  0.85792649  0.08341817  0.00204871  1
  Mn  Mn132  1  0.64225577  0.25001059  0.99883369  1
  Mn  Mn133  1  0.60790330  0.74999085  0.62217605  1
  Mn  Mn134  1  0.35756376  0.41610721  0.00226252  1
  Mn  Mn135  1  0.60729776  0.75023664  0.12256736  1
  Mn  Mn136  1  0.64185609  0.58309210  0.49708993  1
  Mn  Mn137  1  0.14214187  0.24952267  0.49739940  1
  Mn  Mn138  1  0.64314922  0.58430613  0.99777762  1
  Mn  Mn139  1  0.35710515  0.41665284  0.50189652  1
  Mn  Mn140  1  0.35749107  0.08273457  0.50223994  1
  Mn  Mn141  1  0.39246246  0.91785275  0.62662883  1
  Mn  Mn142  1  0.60743310  0.41658374  0.62252674  1
  Mn  Mn143  1  0.60781795  0.08338425  0.87209973  1
  Fe  Fe144  1  0.39319536  0.91610125  0.87662545  1
  Fe  Fe145  1  0.39283347  0.24958450  0.12661423  1
  Fe  Fe146  1  0.60732294  0.08360836  0.62345158  1
  Fe  Fe147  1  0.64288495  0.25020593  0.49817248  1
  Fe  Fe148  1  0.10629836  0.08416787  0.37309837  1
  Fe  Fe149  1  0.60744970  0.41706789  0.87307900  1
  Fe  Fe150  1  0.89225150  0.25052224  0.12661524  1
  Fe  Fe151  1  0.14312018  0.91710487  0.99782056  1
  Fe  Fe152  1  0.60688170  0.08335452  0.12431576  1
  Fe  Fe153  1  0.35643795  0.75016211  0.25107034  1
  Fe  Fe154  1  0.64250890  0.91608200  0.99858121  1
  Fe  Fe155  1  0.14299759  0.24991260  0.74820125  1
  Fe  Fe156  1  0.85737765  0.41629517  0.50115302  1
  Fe  Fe157  1  0.89239131  0.58318735  0.87664847  1
  Fe  Fe158  1  0.85745888  0.08281960  0.25220659  1
  Fe  Fe159  1  0.14316281  0.91633442  0.24812189  1
  Fe  Fe160  1  0.10778338  0.74940247  0.12311067  1
  Fe  Fe161  1  0.64191212  0.24976680  0.74789391  1
  Fe  Fe162  1  0.85765681  0.41697302  0.00189853  1
  Fe  Fe163  1  0.60731477  0.41625845  0.12308225  1
  Fe  Fe164  1  0.35758131  0.08261553  0.25191375  1
  Fe  Fe165  1  0.39296338  0.24953017  0.62682391  1
  Fe  Fe166  1  0.14239273  0.91636943  0.49807238  1
  Fe  Fe167  1  0.35717562  0.08382818  0.75115194  1
  Fe  Fe168  1  0.10847615  0.75014093  0.62313833  1
  Fe  Fe169  1  0.10683959  0.41535451  0.37330015  1
  Fe  Fe170  1  0.10629751  0.41638826  0.12322915  1
  Fe  Fe171  1  0.89252072  0.91675667  0.87695252  1
  Fe  Fe172  1  0.14279134  0.58382144  0.49815322  1
  Fe  Fe173  1  0.39140351  0.58243504  0.37626888  1
  Fe  Fe174  1  0.35648921  0.41606907  0.75202677  1
  Fe  Fe175  1  0.64262752  0.91703262  0.74843825  1
  Fe  Fe176  1  0.10798342  0.08295311  0.62257080  1
  Fe  Fe177  1  0.39247442  0.91763607  0.12655270  1
  Fe  Fe178  1  0.39255423  0.58337703  0.87636777  1
  Fe  Fe179  1  0.10793851  0.41681642  0.62274963  1
  Fe  Fe180  1  0.60790457  0.08341832  0.37274589  1
  Fe  Fe181  1  0.64318478  0.91693354  0.49757642  1
  Fe  Fe182  1  0.85811914  0.75030007  0.00205698  1
  Fe  Fe183  1  0.35620133  0.75031542  0.50158312  1
  Fe  Fe184  1  0.89365580  0.58309437  0.12718637  1
  Fe  Fe185  1  0.10668097  0.41622535  0.87346165  1
  Fe  Fe186  1  0.14282508  0.58415035  0.24796755  1
  Fe  Fe187  1  0.89362948  0.91724479  0.37684941  1
  Fe  Fe188  1  0.10752677  0.08355592  0.87321671  1
  Fe  Fe189  1  0.85663220  0.08378936  0.50176708  1
  Fe  Fe190  1  0.89253718  0.24982873  0.37729195  1
  Fe  Fe191  1  0.60759295  0.41704299  0.37371090  1
  P  P192  1  0.05144636  0.25042881  0.11031903  1
  P  P193  1  0.05191622  0.24953390  0.36036444  1
  P  P194  1  0.05521872  0.24969552  0.61125266  1
  P  P195  1  0.05403028  0.24975382  0.85915640  1
  P  P196  1  0.05406820  0.58346775  0.11158938  1
  P  P197  1  0.05590276  0.58250676  0.36052793  1
  P  P198  1  0.05492453  0.58341512  0.60943629  1
  P  P199  1  0.05130924  0.58223671  0.86037606  1
  P  P200  1  0.05613888  0.91599969  0.11093687  1
  P  P201  1  0.05460010  0.91802573  0.36041992  1
  P  P202  1  0.05465349  0.91675249  0.60939280  1
  P  P203  1  0.05319859  0.91763386  0.86155067  1
  P  P204  1  0.55208984  0.24930139  0.11046103  1
  P  P205  1  0.55565679  0.25008543  0.36163553  1
  P  P206  1  0.55412302  0.24908516  0.61052867  1
  P  P207  1  0.55418738  0.25081835  0.85954131  1
  P  P208  1  0.55311028  0.58286888  0.10971166  1
  P  P209  1  0.55132919  0.58258733  0.35992426  1
  P  P210  1  0.55262537  0.58327371  0.60965050  1
  P  P211  1  0.55220706  0.58291265  0.85994349  1
  P  P212  1  0.55250989  0.91761625  0.10985345  1
  P  P213  1  0.55465091  0.91723946  0.36132302  1
  P  P214  1  0.55549660  0.91778805  0.61025562  1
  P  P215  1  0.55416790  0.91604820  0.86034568  1
  P  P216  1  0.44710358  0.08312855  0.14047569  1
  P  P217  1  0.44691066  0.08323594  0.38939586  1
  P  P218  1  0.44730367  0.08421953  0.64031290  1
  P  P219  1  0.44519364  0.08263332  0.88829243  1
  P  P220  1  0.44778262  0.41533600  0.13987166  1
  P  P221  1  0.44765262  0.41731035  0.39005552  1
  P  P222  1  0.44525582  0.41521850  0.64058319  1
  P  P223  1  0.44627209  0.41709232  0.88859259  1
  P  P224  1  0.44569836  0.75145809  0.14083838  1
  P  P225  1  0.44337867  0.74909377  0.38938108  1
  P  P226  1  0.44495387  0.75055931  0.63845934  1
  P  P227  1  0.44661687  0.75017998  0.88974815  1
  P  P228  1  0.94587898  0.08396143  0.14076445  1
  P  P229  1  0.94549968  0.08325339  0.38951397  1
  P  P230  1  0.94690120  0.08307223  0.63857287  1
  P  P231  1  0.94791612  0.08263785  0.88954829  1
  P  P232  1  0.94618147  0.41683025  0.13890118  1
  P  P233  1  0.94738547  0.41567843  0.39069382  1
  P  P234  1  0.94698259  0.41664516  0.63845257  1
  P  P235  1  0.94703093  0.41673381  0.89021778  1
  P  P236  1  0.94733301  0.74957629  0.13909542  1
  P  P237  1  0.94761194  0.75131085  0.38991270  1
  P  P238  1  0.94913153  0.75033400  0.63967770  1
  P  P239  1  0.94576498  0.75043938  0.89071269  1
  P  P240  1  0.19653498  0.08294647  0.23632281  1
  P  P241  1  0.19475709  0.08248777  0.48500315  1
  P  P242  1  0.19587232  0.08400065  0.73573998  1
  P  P243  1  0.19600215  0.08282553  0.98446072  1
  P  P244  1  0.19419246  0.41713721  0.23554647  1
  P  P245  1  0.19465323  0.41684066  0.48515721  1
  P  P246  1  0.19549198  0.41597877  0.73592303  1
  P  P247  1  0.19411135  0.41607808  0.98546221  1
  P  P248  1  0.19729791  0.74995733  0.23416180  1
  P  P249  1  0.19624443  0.75040314  0.48603408  1
  P  P250  1  0.19607718  0.74994413  0.73502163  1
  P  P251  1  0.19527880  0.75090599  0.98603411  1
  P  P252  1  0.69656778  0.08317287  0.23542126  1
  P  P253  1  0.69550418  0.08390258  0.48552495  1
  P  P254  1  0.69588593  0.08342336  0.73434570  1
  P  P255  1  0.69485841  0.08245000  0.98688999  1
  P  P256  1  0.69485159  0.41694776  0.23515652  1
  P  P257  1  0.69734620  0.41578490  0.48411890  1
  P  P258  1  0.69533337  0.41616137  0.73614023  1
  P  P259  1  0.69609866  0.41692502  0.98592712  1
  P  P260  1  0.69709944  0.75010772  0.23449915  1
  P  P261  1  0.69692242  0.75049154  0.48437433  1
  P  P262  1  0.69716324  0.75097910  0.73481076  1
  P  P263  1  0.69837875  0.75078716  0.98526350  1
  P  P264  1  0.30338391  0.25004997  0.01604867  1
  P  P265  1  0.30477738  0.24927760  0.26401796  1
  P  P266  1  0.30387739  0.24971020  0.51574742  1
  P  P267  1  0.30338501  0.24982676  0.76346821  1
  P  P268  1  0.30422686  0.58278238  0.01404871  1
  P  P269  1  0.30207636  0.58370599  0.26518674  1
  P  P270  1  0.30279541  0.58355759  0.51362211  1
  P  P271  1  0.30324671  0.58206885  0.76604462  1
  P  P272  1  0.30412957  0.91710205  0.01452594  1
  P  P273  1  0.30357266  0.91686519  0.26355697  1
  P  P274  1  0.30152017  0.91640012  0.51504779  1
  P  P275  1  0.30426299  0.91788167  0.76550499  1
  P  P276  1  0.80417871  0.25104342  0.01556632  1
  P  P277  1  0.80557697  0.24912225  0.26449720  1
  P  P278  1  0.80376085  0.25018194  0.51340190  1
  P  P279  1  0.80130020  0.24944205  0.76502810  1
  P  P280  1  0.80627520  0.58319732  0.01451033  1
  P  P281  1  0.80503405  0.58336854  0.26403067  1
  P  P282  1  0.80336677  0.58190222  0.51478033  1
  P  P283  1  0.80441868  0.58314392  0.76556107  1
  P  P284  1  0.80389547  0.91633926  0.01415824  1
  P  P285  1  0.80450865  0.91775260  0.26589602  1
  P  P286  1  0.80379875  0.91797203  0.51337947  1
  P  P287  1  0.80280216  0.91748606  0.76523530  1
  O  O288  1  0.05520685  0.24974975  0.18699126  1
  O  O289  1  0.05571875  0.24936057  0.43700611  1
  O  O290  1  0.05939715  0.24965548  0.68796811  1
  O  O291  1  0.05599692  0.24953893  0.93596004  1
  O  O292  1  0.05858585  0.58399465  0.18827778  1
  O  O293  1  0.05988083  0.58382116  0.43729342  1
  O  O294  1  0.05701292  0.58328527  0.68626096  1
  O  O295  1  0.05476646  0.58283185  0.93707829  1
  O  O296  1  0.06024987  0.91672990  0.18778864  1
  O  O297  1  0.05904848  0.91690394  0.43709347  1
  O  O298  1  0.05725150  0.91680573  0.68623721  1
  O  O299  1  0.05799824  0.91738717  0.93817783  1
  O  O300  1  0.55563415  0.24935786  0.18718480  1
  O  O301  1  0.55935535  0.25003711  0.43842457  1
  O  O302  1  0.55847621  0.24980266  0.68723506  1
  O  O303  1  0.55736572  0.25005185  0.93630376  1
  O  O304  1  0.55603002  0.58384532  0.18647744  1
  O  O305  1  0.55511312  0.58335192  0.43662781  1
  O  O306  1  0.55641822  0.58350459  0.68637429  1
  O  O307  1  0.55651522  0.58353903  0.93661044  1
  O  O308  1  0.55619473  0.91660788  0.18658578  1
  O  O309  1  0.55929796  0.91690096  0.43805091  1
  O  O310  1  0.55915779  0.91676856  0.68705722  1
  O  O311  1  0.55898406  0.91610808  0.93704054  1
  O  O312  1  0.44394496  0.08295594  0.06370308  1
  O  O313  1  0.44142350  0.08258572  0.31278392  1
  O  O314  1  0.44369280  0.08346400  0.56357401  1
  O  O315  1  0.44099505  0.08354414  0.81160563  1
  O  O316  1  0.44398495  0.41590069  0.06318541  1
  O  O317  1  0.44374478  0.41674838  0.31338272  1
  O  O318  1  0.44232602  0.41605929  0.56379286  1
  O  O319  1  0.44104373  0.41624910  0.81198594  1
  O  O320  1  0.44307481  0.75069648  0.06402346  1
  O  O321  1  0.43906300  0.75017521  0.31260148  1
  O  O322  1  0.44008638  0.75064993  0.56170015  1
  O  O323  1  0.44400343  0.75039728  0.81294501  1
  O  O324  1  0.94315314  0.08300504  0.06393479  1
  O  O325  1  0.94130504  0.08301830  0.31281351  1
  O  O326  1  0.94122277  0.08353646  0.56198214  1
  O  O327  1  0.94426371  0.08276483  0.81283946  1
  O  O328  1  0.94190087  0.41657516  0.06224760  1
  O  O329  1  0.94375811  0.41652439  0.31395755  1
  O  O330  1  0.94168537  0.41609008  0.56188524  1
  O  O331  1  0.94387017  0.41621292  0.81341761  1
  O  O332  1  0.94239761  0.75050576  0.06245096  1
  O  O333  1  0.94463040  0.75089697  0.31311972  1
  O  O334  1  0.94496341  0.75052395  0.56299133  1
  O  O335  1  0.94353941  0.75081880  0.81385244  1
  O  O336  1  0.19309564  0.08371411  0.06125994  1
  O  O337  1  0.19117773  0.08415335  0.31290996  1
  O  O338  1  0.19108352  0.08340818  0.56184855  1
  O  O339  1  0.19127115  0.08334761  0.81243473  1
  O  O340  1  0.18939451  0.41616215  0.06224157  1
  O  O341  1  0.19013950  0.41555779  0.31233024  1
  O  O342  1  0.19118331  0.41598544  0.56201011  1
  O  O343  1  0.19065704  0.41671791  0.81263440  1
  O  O344  1  0.19135770  0.74966929  0.06276989  1
  O  O345  1  0.19431974  0.75000515  0.31096814  1
  O  O346  1  0.19213529  0.75035570  0.56272658  1
  O  O347  1  0.19267273  0.75003874  0.81182675  1
  O  O348  1  0.69071657  0.08308050  0.06361282  1
  O  O349  1  0.69174319  0.08348483  0.31211748  1
  O  O350  1  0.69104349  0.08379584  0.56219469  1
  O  O351  1  0.69356977  0.08355090  0.81124358  1
  O  O352  1  0.69092439  0.41661177  0.06265823  1
  O  O353  1  0.69038679  0.41707990  0.31189486  1
  O  O354  1  0.69353308  0.41633135  0.56087116  1
  O  O355  1  0.69121266  0.41714130  0.81292287  1
  O  O356  1  0.69414134  0.75005490  0.06190265  1
  O  O357  1  0.69300500  0.74977932  0.31121136  1
  O  O358  1  0.69378852  0.74993956  0.56116400  1
  O  O359  1  0.69439413  0.75009098  0.81160156  1
  O  O360  1  0.30924640  0.24987118  0.18729340  1
  O  O361  1  0.30725421  0.24985009  0.43890973  1
  O  O362  1  0.30805112  0.24957155  0.68686530  1
  O  O363  1  0.30659839  0.25039259  0.93922993  1
  O  O364  1  0.30577936  0.58239177  0.18842652  1
  O  O365  1  0.30733366  0.58237139  0.43696060  1
  O  O366  1  0.30550109  0.58260113  0.68916443  1
  O  O367  1  0.30915069  0.58262772  0.93735196  1
  O  O368  1  0.30807623  0.91756809  0.18691266  1
  O  O369  1  0.30520728  0.91722512  0.43830049  1
  O  O370  1  0.30701659  0.91737467  0.68871526  1
  O  O371  1  0.30920087  0.91690852  0.93789934  1
  O  O372  1  0.80969201  0.25024629  0.18771610  1
  O  O373  1  0.80843576  0.25010659  0.43670550  1
  O  O374  1  0.80561147  0.24955594  0.68829825  1
  O  O375  1  0.80689012  0.25047231  0.93877757  1
  O  O376  1  0.80975174  0.58312783  0.18726558  1
  O  O377  1  0.80673912  0.58267220  0.43798339  1
  O  O378  1  0.80765924  0.58285768  0.68876619  1
  O  O379  1  0.80996780  0.58285091  0.93767504  1
  O  O380  1  0.80749728  0.91698095  0.18907806  1
  O  O381  1  0.80903698  0.91732546  0.43682230  1
  O  O382  1  0.80683118  0.91745032  0.68848823  1
  O  O383  1  0.80873954  0.91722343  0.93749163  1
  O  O384  1  0.23363226  0.24930829  0.04090639  1
  O  O385  1  0.23465973  0.24977552  0.28807963  1
  O  O386  1  0.23401964  0.24954178  0.54014505  1
  O  O387  1  0.23310802  0.25004066  0.78758001  1
  O  O388  1  0.23402983  0.58300112  0.03750701  1
  O  O389  1  0.23194163  0.58369612  0.28948354  1
  O  O390  1  0.23254954  0.58325597  0.53769839  1
  O  O391  1  0.23369767  0.58296240  0.79172173  1
  O  O392  1  0.23369916  0.91709886  0.03782205  1
  O  O393  1  0.23321352  0.91639098  0.28757539  1
  O  O394  1  0.23162239  0.91673889  0.53981815  1
  O  O395  1  0.23447869  0.91733670  0.79057307  1
  O  O396  1  0.73454299  0.24997185  0.04099628  1
  O  O397  1  0.73539188  0.24982532  0.28813611  1
  O  O398  1  0.73337591  0.24990235  0.53715034  1
  O  O399  1  0.73134381  0.24982632  0.78951654  1
  O  O400  1  0.73621398  0.58342647  0.03880869  1
  O  O401  1  0.73492435  0.58333298  0.28780760  1
  O  O402  1  0.73374130  0.58244629  0.54005039  1
  O  O403  1  0.73472795  0.58363882  0.79071585  1
  O  O404  1  0.73363037  0.91647890  0.03813590  1
  O  O405  1  0.73476058  0.91735278  0.29074267  1
  O  O406  1  0.73330688  0.91769097  0.53668068  1
  O  O407  1  0.73261640  0.91742573  0.78939821  1
  O  O408  1  0.26689757  0.08266913  0.21266493  1
  O  O409  1  0.26476506  0.08312073  0.46070472  1
  O  O410  1  0.26626613  0.08330025  0.71196151  1
  O  O411  1  0.26571947  0.08388514  0.95951810  1
  O  O412  1  0.26429772  0.41673803  0.21143333  1
  O  O413  1  0.26457234  0.41636188  0.46052162  1
  O  O414  1  0.26586889  0.41631860  0.71222539  1
  O  O415  1  0.26430649  0.41592380  0.96192488  1
  O  O416  1  0.26726978  0.75012854  0.20921508  1
  O  O417  1  0.26633136  0.75032956  0.46149128  1
  O  O418  1  0.26585436  0.74986602  0.71031098  1
  O  O419  1  0.26522334  0.75088089  0.96171170  1
  O  O420  1  0.76698805  0.08294603  0.21210635  1
  O  O421  1  0.76596341  0.08407521  0.46180764  1
  O  O422  1  0.76533795  0.08318311  0.70838418  1
  O  O423  1  0.76485721  0.08328631  0.96243979  1
  O  O424  1  0.76514142  0.41663070  0.21180201  1
  O  O425  1  0.76737662  0.41603098  0.45943550  1
  O  O426  1  0.76529381  0.41597092  0.71167711  1
  O  O427  1  0.76667423  0.41708189  0.96288409  1
  O  O428  1  0.76699209  0.75060470  0.21012085  1
  O  O429  1  0.76666484  0.75026636  0.45930774  1
  O  O430  1  0.76672677  0.75089343  0.70913338  1
  O  O431  1  0.76849683  0.75058455  0.96105314  1
  O  O432  1  0.01562801  0.08349675  0.16582905  1
  O  O433  1  0.01589174  0.08359066  0.41333392  1
  O  O434  1  0.01744665  0.08253993  0.66151399  1
  O  O435  1  0.01783545  0.08390646  0.91450350  1
  O  O436  1  0.01640631  0.41679552  0.16316445  1
  O  O437  1  0.01758953  0.41578622  0.41483315  1
  O  O438  1  0.01749198  0.41710060  0.66164490  1
  O  O439  1  0.01704431  0.41592741  0.91502936  1
  O  O440  1  0.01760143  0.74984542  0.16305673  1
  O  O441  1  0.01746835  0.75084661  0.41458352  1
  O  O442  1  0.01910090  0.75010719  0.66426027  1
  O  O443  1  0.01536013  0.74996817  0.91635543  1
  O  O444  1  0.51710802  0.08299197  0.16550820  1
  O  O445  1  0.51735151  0.08385166  0.41253364  1
  O  O446  1  0.51737431  0.08355041  0.66476148  1
  O  O447  1  0.51526525  0.08315020  0.91241984  1
  O  O448  1  0.51785809  0.41603720  0.16440882  1
  O  O449  1  0.51763094  0.41664850  0.41482897  1
  O  O450  1  0.51506894  0.41642774  0.66528672  1
  O  O451  1  0.51668968  0.41640047  0.91216994  1
  O  O452  1  0.51528582  0.75043676  0.16632847  1
  O  O453  1  0.51351914  0.74984110  0.41326735  1
  O  O454  1  0.51504477  0.75044851  0.66223820  1
  O  O455  1  0.51606966  0.75004439  0.91565342  1
  O  O456  1  0.48225648  0.24930903  0.08513902  1
  O  O457  1  0.48571890  0.24993476  0.33716983  1
  O  O458  1  0.48381577  0.24962424  0.58664888  1
  O  O459  1  0.48433518  0.25016977  0.83490152  1
  O  O460  1  0.48338846  0.58273308  0.08461074  1
  O  O461  1  0.48133495  0.58271302  0.33515632  1
  O  O462  1  0.48270027  0.58269222  0.58530332  1
  O  O463  1  0.48214994  0.58338405  0.83541682  1
  O  O464  1  0.48236794  0.91754507  0.08544066  1
  O  O465  1  0.48445277  0.91657857  0.33770676  1
  O  O466  1  0.48548606  0.91766462  0.58573351  1
  O  O467  1  0.48382151  0.91636051  0.83668491  1
  O  O468  1  0.98150703  0.25016879  0.08554061  1
  O  O469  1  0.98183233  0.24979413  0.33594290  1
  O  O470  1  0.98521922  0.24975789  0.58695932  1
  O  O471  1  0.98456556  0.24975465  0.83301938  1
  O  O472  1  0.98381849  0.58293543  0.08760841  1
  O  O473  1  0.98584382  0.58305325  0.33641245  1
  O  O474  1  0.98544880  0.58310361  0.58346786  1
  O  O475  1  0.98144023  0.58299075  0.83533275  1
  O  O476  1  0.98596329  0.91726749  0.08719770  1
  O  O477  1  0.98427816  0.91748686  0.33664670  1
  O  O478  1  0.98501102  0.91736294  0.58398227  1
  O  O479  1  0.98300012  0.91657051  0.83733987  1
  O  O480  1  0.08528492  0.31538905  0.07775695  1
  O  O481  1  0.08586260  0.31449247  0.32766338  1
  O  O482  1  0.08874153  0.31482735  0.57830270  1
  O  O483  1  0.08854086  0.31496647  0.82731184  1
  O  O484  1  0.08705197  0.64852649  0.07788637  1
  O  O485  1  0.08983520  0.64729596  0.32696592  1
  O  O486  1  0.08918343  0.64864247  0.57732418  1
  O  O487  1  0.08564155  0.64709321  0.82783741  1
  O  O488  1  0.09027532  0.98071218  0.07776378  1
  O  O489  1  0.08775687  0.98339697  0.32761549  1
  O  O490  1  0.08930316  0.98156748  0.57705844  1
  O  O491  1  0.08617808  0.98286592  0.82815010  1
  O  O492  1  0.58624497  0.31430008  0.07789878  1
  O  O493  1  0.58910922  0.31528864  0.32884529  1
  O  O494  1  0.58801188  0.31386779  0.57707514  1
  O  O495  1  0.58802416  0.31597341  0.82719308  1
  O  O496  1  0.58701204  0.64802889  0.07698755  1
  O  O497  1  0.58511199  0.64763677  0.32690328  1
  O  O498  1  0.58617115  0.64832159  0.57667404  1
  O  O499  1  0.58603923  0.64794887  0.82701433  1
  O  O500  1  0.58649223  0.98273711  0.07753138  1
  O  O501  1  0.58766230  0.98255275  0.32819762  1
  O  O502  1  0.58914195  0.98323303  0.57798142  1
  O  O503  1  0.58770682  0.98104807  0.82697547  1
  O  O504  1  0.41293181  0.01810711  0.17319971  1
  O  O505  1  0.41405008  0.01819472  0.42333543  1
  O  O506  1  0.41288732  0.01952851  0.67317402  1
  O  O507  1  0.41212960  0.01728354  0.92123168  1
  O  O508  1  0.41429945  0.35021543  0.17263038  1
  O  O509  1  0.41364074  0.35240824  0.42295859  1
  O  O510  1  0.41188938  0.34963655  0.67283845  1
  O  O511  1  0.41280441  0.35217844  0.92222788  1
  O  O512  1  0.41058569  0.68674934  0.17310359  1
  O  O513  1  0.41010147  0.68360596  0.42185087  1
  O  O514  1  0.41140648  0.68551314  0.67154805  1
  O  O515  1  0.41210087  0.68513410  0.92177792  1
  O  O516  1  0.91158724  0.01908873  0.17351281  1
  O  O517  1  0.91235573  0.01810688  0.42295035  1
  O  O518  1  0.91362412  0.01812072  0.67194298  1
  O  O519  1  0.91451655  0.01753199  0.92261820  1
  O  O520  1  0.91276060  0.35178820  0.17211093  1
  O  O521  1  0.91350894  0.35060017  0.42325253  1
  O  O522  1  0.91414520  0.35161618  0.67248042  1
  O  O523  1  0.91255669  0.35185907  0.92273295  1
  O  O524  1  0.91404210  0.68443456  0.17207325  1
  O  O525  1  0.91361869  0.68621138  0.42237499  1
  O  O526  1  0.91512660  0.68532818  0.67215737  1
  O  O527  1  0.91125686  0.68537694  0.92263283  1
  O  O528  1  0.16312592  0.01788513  0.20337728  1
  O  O529  1  0.16114915  0.01729522  0.45250902  1
  O  O530  1  0.16212113  0.01912181  0.70239582  1
  O  O531  1  0.16236348  0.01741816  0.95216488  1
  O  O532  1  0.16020083  0.35244386  0.20197488  1
  O  O533  1  0.16074062  0.35192213  0.45189251  1
  O  O534  1  0.16221700  0.35093192  0.70262159  1
  O  O535  1  0.16062041  0.35106148  0.95232818  1
  O  O536  1  0.16328284  0.68482979  0.20169962  1
  O  O537  1  0.16280195  0.68540422  0.45279879  1
  O  O538  1  0.16192512  0.68499161  0.70252240  1
  O  O539  1  0.16173591  0.68600537  0.95256189  1
  O  O540  1  0.66292042  0.01832290  0.20218602  1
  O  O541  1  0.66218137  0.01891806  0.45195424  1
  O  O542  1  0.66124693  0.01836652  0.70248517  1
  O  O543  1  0.66167153  0.01714403  0.95392111  1
  O  O544  1  0.66142462  0.35181417  0.20192093  1
  O  O545  1  0.66340189  0.35069391  0.45165613  1
  O  O546  1  0.66164209  0.35096273  0.70348321  1
  O  O547  1  0.66280289  0.35189797  0.95260432  1
  O  O548  1  0.66350458  0.68506468  0.20154054  1
  O  O549  1  0.66279535  0.68540107  0.45184831  1
  O  O550  1  0.66285286  0.68598733  0.70234428  1
  O  O551  1  0.66487895  0.68569477  0.95200386  1
  O  O552  1  0.33726748  0.31505981  0.04881534  1
  O  O553  1  0.33826476  0.31439728  0.29725484  1
  O  O554  1  0.33785215  0.31470941  0.54831019  1
  O  O555  1  0.33657885  0.31495703  0.79695265  1
  O  O556  1  0.33761582  0.64789713  0.04711195  1
  O  O557  1  0.33593465  0.64892318  0.29726786  1
  O  O558  1  0.33595327  0.64879095  0.54655411  1
  O  O559  1  0.33818477  0.64687613  0.79816528  1
  O  O560  1  0.33731500  0.98217749  0.04808953  1
  O  O561  1  0.33670339  0.98174339  0.29754617  1
  O  O562  1  0.33548293  0.98144578  0.54783213  1
  O  O563  1  0.33825300  0.98307233  0.79759953  1
  O  O564  1  0.83786015  0.31646783  0.04782548  1
  O  O565  1  0.83946015  0.31380524  0.29809919  1
  O  O566  1  0.83681294  0.31535431  0.54678640  1
  O  O567  1  0.83554129  0.31426124  0.79770406  1
  O  O568  1  0.84019287  0.64830353  0.04721713  1
  O  O569  1  0.83861356  0.64837688  0.29705814  1
  O  O570  1  0.83778024  0.64692330  0.54725141  1
  O  O571  1  0.83902068  0.64811668  0.79762326  1
  O  O572  1  0.83727692  0.98135268  0.04763003  1
  O  O573  1  0.83846617  0.98297884  0.29816092  1
  O  O574  1  0.83656667  0.98326150  0.54680451  1
  O  O575  1  0.83652071  0.98247003  0.79828557  1
  O  O576  1  0.41305204  0.14816186  0.17302371  1
  O  O577  1  0.41348223  0.14819414  0.42260077  1
  O  O578  1  0.41351802  0.14942825  0.67288623  1
  O  O579  1  0.41161884  0.14750671  0.92176013  1
  O  O580  1  0.41362729  0.48026324  0.17276564  1
  O  O581  1  0.41376595  0.48246022  0.42250577  1
  O  O582  1  0.41020068  0.47964234  0.67326949  1
  O  O583  1  0.41338691  0.48232480  0.92192343  1
  O  O584  1  0.41194242  0.81696131  0.17275563  1
  O  O585  1  0.40943165  0.81381538  0.42301048  1
  O  O586  1  0.41179297  0.81571390  0.67167495  1
  O  O587  1  0.41239487  0.81541025  0.92194613  1
  O  O588  1  0.91171898  0.14912215  0.17265601  1
  O  O589  1  0.91187049  0.14826335  0.42274022  1
  O  O590  1  0.91415765  0.14813100  0.67255057  1
  O  O591  1  0.91332181  0.14756995  0.92180993  1
  O  O592  1  0.91301565  0.48192241  0.17226837  1
  O  O593  1  0.91367520  0.48064464  0.42377835  1
  O  O594  1  0.91365338  0.48161895  0.67168601  1
  O  O595  1  0.91337992  0.48186119  0.92288070  1
  O  O596  1  0.91408088  0.81469522  0.17250975  1
  O  O597  1  0.91392284  0.81654833  0.42228029  1
  O  O598  1  0.91542360  0.81543792  0.67249852  1
  O  O599  1  0.91165494  0.81557365  0.92318092  1
  O  O600  1  0.08529111  0.18536354  0.07753877  1
  O  O601  1  0.08552250  0.18444659  0.32730189  1
  O  O602  1  0.08859270  0.18454314  0.57811444  1
  O  O603  1  0.08874313  0.18479644  0.82708933  1
  O  O604  1  0.08751233  0.51834293  0.07862558  1
  O  O605  1  0.08912877  0.51705679  0.32815677  1
  O  O606  1  0.08963201  0.51848331  0.57735460  1
  O  O607  1  0.08496391  0.51699026  0.82797291  1
  O  O608  1  0.08901222  0.85062016  0.07801051  1
  O  O609  1  0.08852883  0.85332603  0.32675610  1
  O  O610  1  0.08859000  0.85145924  0.57706290  1
  O  O611  1  0.08716584  0.85281607  0.82836410  1
  O  O612  1  0.58598260  0.18408453  0.07809558  1
  O  O613  1  0.58931093  0.18502493  0.32854855  1
  O  O614  1  0.58750758  0.18387580  0.57760304  1
  O  O615  1  0.58852757  0.18596755  0.82672309  1
  O  O616  1  0.58737301  0.51774779  0.07778902  1
  O  O617  1  0.58550446  0.51751749  0.32777081  1
  O  O618  1  0.58669752  0.51818293  0.57722495  1
  O  O619  1  0.58579013  0.51773552  0.82729656  1
  O  O620  1  0.58649712  0.85272005  0.07661316  1
  O  O621  1  0.58806703  0.85229677  0.32792051  1
  O  O622  1  0.58945979  0.85311386  0.57676447  1
  O  O623  1  0.58753195  0.85110772  0.82696803  1
  O  O624  1  0.33810963  0.18521059  0.04825287  1
  O  O625  1  0.33808839  0.18401536  0.29691642  1
  O  O626  1  0.33807286  0.18473448  0.54828600  1
  O  O627  1  0.33656415  0.18472680  0.79688584  1
  O  O628  1  0.33723617  0.51772365  0.04764615  1
  O  O629  1  0.33586214  0.51881739  0.29861022  1
  O  O630  1  0.33606999  0.51862078  0.54729206  1
  O  O631  1  0.33725124  0.51673596  0.79796450  1
  O  O632  1  0.33759239  0.85235148  0.04820326  1
  O  O633  1  0.33678867  0.85158189  0.29644051  1
  O  O634  1  0.33548291  0.85141737  0.54739465  1
  O  O635  1  0.33859014  0.85297261  0.79820584  1
  O  O636  1  0.83908305  0.18632793  0.04790799  1
  O  O637  1  0.83862616  0.18374129  0.29736002  1
  O  O638  1  0.83709103  0.18508108  0.54676999  1
  O  O639  1  0.83487535  0.18426676  0.79779040  1
  O  O640  1  0.83978933  0.51803276  0.04760179  1
  O  O641  1  0.83842867  0.51831009  0.29729358  1
  O  O642  1  0.83716443  0.51647003  0.54678394  1
  O  O643  1  0.83835984  0.51805133  0.79825922  1
  O  O644  1  0.83740418  0.85127960  0.04727339  1
  O  O645  1  0.83915605  0.85307792  0.29857891  1
  O  O646  1  0.83694865  0.85301088  0.54724168  1
  O  O647  1  0.83689321  0.85254368  0.79791757  1
  O  O648  1  0.16355093  0.14795154  0.20230828  1
  O  O649  1  0.16069483  0.14727942  0.45165244  1
  O  O650  1  0.16273017  0.14907243  0.70240556  1
  O  O651  1  0.16118335  0.14740278  0.95181504  1
  O  O652  1  0.16085863  0.48260068  0.20314807  1
  O  O653  1  0.16093444  0.48199195  0.45281482  1
  O  O654  1  0.16201898  0.48094509  0.70243673  1
  O  O655  1  0.16059090  0.48100241  0.95198161  1
  O  O656  1  0.16299979  0.81488655  0.20187975  1
  O  O657  1  0.16295279  0.81555573  0.45275082  1
  O  O658  1  0.16202737  0.81500489  0.70248884  1
  O  O659  1  0.16170818  0.81622499  0.95363869  1
  O  O660  1  0.66326034  0.14811673  0.20180946  1
  O  O661  1  0.66220217  0.14897956  0.45219414  1
  O  O662  1  0.66148188  0.14851031  0.70213672  1
  O  O663  1  0.66099178  0.14729941  0.95372733  1
  O  O664  1  0.66146036  0.48181873  0.20174441  1
  O  O665  1  0.66314990  0.48067197  0.45116488  1
  O  O666  1  0.66194477  0.48118512  0.70275271  1
  O  O667  1  0.66283634  0.48191186  0.95239235  1
  O  O668  1  0.66312565  0.81523207  0.20201838  1
  O  O669  1  0.66283805  0.81566869  0.45231054  1
  O  O670  1  0.66294298  0.81626799  0.70305082  1
  O  O671  1  0.66446401  0.81583242  0.95277839  1
