# generated using pymatgen
data_Na2MnFe(PO4)2
_symmetry_space_group_name_H-M   'P 1'
_cell_length_a   21.08715768
_cell_length_b   18.94068221
_cell_length_c   20.04653183
_cell_angle_alpha   90.00035792
_cell_angle_beta   90.00340769
_cell_angle_gamma   90.00227500
_symmetry_Int_Tables_number   1
_chemical_formula_structural   Na2MnFe(PO4)2
_chemical_formula_sum   'Na96 Mn48 Fe48 P96 O384'
_cell_volume   8006.68807657
_cell_formula_units_Z   48
loop_
 _symmetry_equiv_pos_site_id
 _symmetry_equiv_pos_as_xyz
  1  'x, y, z'
loop_
 _atom_site_type_symbol
 _atom_site_label
 _atom_site_symmetry_multiplicity
 _atom_site_fract_x
 _atom_site_fract_y
 _atom_site_fract_z
 _atom_site_occupancy
  Na  Na0  1  -0.00032318  0.00022886  -0.00047567  1
  Na  Na1  1  0.00060079  0.00015125  0.24940046  1
  Na  Na2  1  0.00087056  0.00003628  0.49986728  1
  Na  Na3  1  0.00006960  0.00005236  0.74987234  1
  Na  Na4  1  -0.00162397  0.33241926  -0.00042848  1
  Na  Na5  1  -0.00031852  0.33227640  0.25014772  1
  Na  Na6  1  0.00328201  0.33450601  0.50000762  1
  Na  Na7  1  -0.00073067  0.33291120  0.75063135  1
  Na  Na8  1  -0.00161951  0.66624021  0.00098480  1
  Na  Na9  1  0.00181169  0.66696141  0.24933855  1
  Na  Na10  1  0.00294607  0.66695617  0.50094046  1
  Na  Na11  1  -0.00052507  0.66593216  0.74966531  1
  Na  Na12  1  0.50074439  0.00024718  -0.00045606  1
  Na  Na13  1  0.49909252  -0.00069689  0.25055447  1
  Na  Na14  1  0.50040700  0.00028867  0.49971198  1
  Na  Na15  1  0.50026216  0.00004545  0.75129639  1
  Na  Na16  1  0.50160020  0.33401760  -0.00095419  1
  Na  Na17  1  0.49956705  0.33309895  0.25015155  1
  Na  Na18  1  0.50091546  0.33354754  0.49937959  1
  Na  Na19  1  0.49953213  0.33265201  0.75110754  1
  Na  Na20  1  0.49857631  0.66660580  -0.00026590  1
  Na  Na21  1  0.49801761  0.66633722  0.25014307  1
  Na  Na22  1  0.50110671  0.66769362  0.49973758  1
  Na  Na23  1  0.49989379  0.66706319  0.74968408  1
  Na  Na24  1  0.24848907  0.00007302  0.12417485  1
  Na  Na25  1  0.24893434  -0.00025457  0.37426848  1
  Na  Na26  1  0.25145447  0.00042338  0.62581954  1
  Na  Na27  1  0.24851523  -0.00037098  0.87513242  1
  Na  Na28  1  0.24901106  0.33313543  0.12561613  1
  Na  Na29  1  0.24763040  0.33274817  0.37595718  1
  Na  Na30  1  0.25017197  0.33341914  0.62560648  1
  Na  Na31  1  0.25090626  0.33340339  0.87369416  1
  Na  Na32  1  0.25163572  0.66672598  0.12503872  1
  Na  Na33  1  0.25015608  0.66709230  0.37353631  1
  Na  Na34  1  0.24965968  0.66622402  0.62547568  1
  Na  Na35  1  0.25313841  0.66769364  0.87518097  1
  Na  Na36  1  0.75227854  0.00062460  0.12489859  1
  Na  Na37  1  0.74993945  -0.00012170  0.37578986  1
  Na  Na38  1  0.74877770  0.00037597  0.62485096  1
  Na  Na39  1  0.74966511  -0.00003456  0.87483033  1
  Na  Na40  1  0.75076587  0.33277943  0.12540184  1
  Na  Na41  1  0.74929977  0.33321325  0.37471837  1
  Na  Na42  1  0.74928688  0.33320240  0.62369548  1
  Na  Na43  1  0.75149735  0.33351830  0.87524003  1
  Na  Na44  1  0.74982238  0.66712858  0.12538007  1
  Na  Na45  1  0.74745492  0.66653354  0.37586385  1
  Na  Na46  1  0.74732588  0.66618920  0.62511912  1
  Na  Na47  1  0.75002595  0.66699314  0.87448730  1
  Na  Na48  1  -0.00056585  0.16584390  -0.00000015  1
  Na  Na49  1  -0.00040568  0.16693181  0.24965161  1
  Na  Na50  1  0.00053746  0.16685552  0.49952391  1
  Na  Na51  1  -0.00220604  0.16717959  0.75058076  1
  Na  Na52  1  -0.00007899  0.50053379  -0.00038822  1
  Na  Na53  1  0.00302168  0.49944844  0.25034169  1
  Na  Na54  1  0.00363309  0.49970695  0.50034819  1
  Na  Na55  1  0.00060682  0.50035162  0.74971946  1
  Na  Na56  1  -0.00278857  0.83444199  0.00042119  1
  Na  Na57  1  0.00066957  0.83275384  0.24924818  1
  Na  Na58  1  0.00208144  0.83311991  0.50059271  1
  Na  Na59  1  0.00113224  0.83271093  0.75002660  1
  Na  Na60  1  0.50244168  0.16571279  -0.00046478  1
  Na  Na61  1  0.49997495  0.16717378  0.25011141  1
  Na  Na62  1  0.50109144  0.16628905  0.49985737  1
  Na  Na63  1  0.49994660  0.16719561  0.75084505  1
  Na  Na64  1  0.49842797  0.50038337  -0.00051316  1
  Na  Na65  1  0.49860636  0.50027151  0.25083859  1
  Na  Na66  1  0.50240414  0.49833104  0.49957291  1
  Na  Na67  1  0.49921962  0.50032632  0.75057582  1
  Na  Na68  1  0.49985347  0.83300430  -0.00065532  1
  Na  Na69  1  0.49864333  0.83318870  0.24996269  1
  Na  Na70  1  0.49936025  0.83302178  0.49957115  1
  Na  Na71  1  0.50027758  0.83291678  0.75054915  1
  Na  Na72  1  0.24603187  0.16753556  0.12447638  1
  Na  Na73  1  0.24830351  0.16730248  0.37482668  1
  Na  Na74  1  0.25087097  0.16644590  0.62638418  1
  Na  Na75  1  0.24871564  0.16688630  0.87451492  1
  Na  Na76  1  0.25135474  0.49932717  0.12456215  1
  Na  Na77  1  0.24710218  0.50092556  0.37505276  1
  Na  Na78  1  0.24844356  0.50053046  0.62465611  1
  Na  Na79  1  0.25082263  0.50038053  0.87552872  1
  Na  Na80  1  0.25271882  0.83234866  0.12544317  1
  Na  Na81  1  0.24953769  0.83425667  0.37422454  1
  Na  Na82  1  0.25295249  0.83239644  0.62544475  1
  Na  Na83  1  0.25170040  0.83383558  0.87452096  1
  Na  Na84  1  0.75263287  0.16655244  0.12468845  1
  Na  Na85  1  0.75149309  0.16647005  0.37567566  1
  Na  Na86  1  0.74915556  0.16722688  0.62442518  1
  Na  Na87  1  0.75151702  0.16609042  0.87470438  1
  Na  Na88  1  0.74933287  0.50065614  0.12514340  1
  Na  Na89  1  0.74765605  0.50049908  0.37593029  1
  Na  Na90  1  0.74872139  0.50004045  0.62414546  1
  Na  Na91  1  0.75119825  0.49968716  0.87519288  1
  Na  Na92  1  0.75052114  0.83287062  0.12585133  1
  Na  Na93  1  0.74722946  0.83374527  0.37478675  1
  Na  Na94  1  0.74769757  0.83291134  0.62523575  1
  Na  Na95  1  0.74836483  0.83345352  0.87450563  1
  Mn  Mn96  1  0.64226113  0.91733967  0.24725152  1
  Mn  Mn97  1  0.85762815  0.41717255  0.00271658  1
  Mn  Mn98  1  0.60828358  0.41698299  0.87246994  1
  Mn  Mn99  1  0.39175719  0.58282057  0.37765388  1
  Mn  Mn100  1  0.64141440  0.58333007  0.24756525  1
  Mn  Mn101  1  0.89258033  0.58323308  0.62648561  1
  Mn  Mn102  1  0.35715492  0.41701050  0.50257870  1
  Mn  Mn103  1  0.60717666  0.41685422  0.12300725  1
  Mn  Mn104  1  0.64321087  0.24952685  0.24761512  1
  Mn  Mn105  1  0.85766427  0.41726655  0.50179997  1
  Mn  Mn106  1  0.14319336  0.91659199  0.49807565  1
  Mn  Mn107  1  0.89175291  0.58316493  0.12765561  1
  Mn  Mn108  1  0.35720030  0.08360576  0.00225644  1
  Mn  Mn109  1  0.85732964  0.74974815  0.75207564  1
  Mn  Mn110  1  0.10791518  0.41592431  0.12233636  1
  Mn  Mn111  1  0.39236072  0.58282504  0.62701485  1
  Mn  Mn112  1  0.10772082  0.08311831  0.37246427  1
  Mn  Mn113  1  0.10800748  0.75028540  0.87340264  1
  Mn  Mn114  1  0.10732366  0.41670381  0.87235877  1
  Mn  Mn115  1  0.10788339  0.75062474  0.12186254  1
  Mn  Mn116  1  0.39146242  0.24991236  0.37715049  1
  Mn  Mn117  1  0.35812581  0.08337777  0.50281144  1
  Mn  Mn118  1  0.89285834  0.91584310  0.37773561  1
  Mn  Mn119  1  0.39176431  0.24962959  0.12681012  1
  Mn  Mn120  1  0.89216182  0.25053677  0.62627194  1
  Mn  Mn121  1  0.60815366  0.08334615  0.37195541  1
  Mn  Mn122  1  0.64286789  0.25050112  0.74765489  1
  Mn  Mn123  1  0.85827168  0.41696198  0.25318188  1
  Mn  Mn124  1  0.60870165  0.08319123  0.12279570  1
  Mn  Mn125  1  0.64161802  0.91691869  0.74733105  1
  Mn  Mn126  1  0.14256118  0.25019106  0.74761004  1
  Mn  Mn127  1  0.89354560  0.58313927  0.37761998  1
  Mn  Mn128  1  0.39165463  0.91703108  0.37694003  1
  Mn  Mn129  1  0.64184965  0.58243027  0.74800117  1
  Mn  Mn130  1  0.89175527  0.91643322  0.62689706  1
  Mn  Mn131  1  0.14317527  0.58354887  0.99730302  1
  Mn  Mn132  1  0.35651399  0.08407645  0.25116792  1
  Mn  Mn133  1  0.85801754  0.74989397  0.25361036  1
  Mn  Mn134  1  0.60666452  0.74983397  0.12265501  1
  Mn  Mn135  1  0.89190261  0.91604883  0.87702277  1
  Mn  Mn136  1  0.39273837  0.91669334  0.87741159  1
  Mn  Mn137  1  0.39249238  0.24982624  0.87802908  1
  Mn  Mn138  1  0.85715672  0.08275582  0.50236437  1
  Mn  Mn139  1  0.10943819  0.74982678  0.62309890  1
  Mn  Mn140  1  0.14210061  0.91647812  0.99770230  1
  Mn  Mn141  1  0.10822892  0.08398030  0.62352984  1
  Mn  Mn142  1  0.35780661  0.41605652  0.00253908  1
  Mn  Mn143  1  0.85718947  0.74981494  0.50154024  1
  Fe  Fe144  1  0.39247373  0.58322702  0.12705852  1
  Fe  Fe145  1  0.89252596  0.25019440  0.87670956  1
  Fe  Fe146  1  0.64282530  0.91661414  0.99931936  1
  Fe  Fe147  1  0.35643418  0.74996054  0.25182162  1
  Fe  Fe148  1  0.35811971  0.74968445  0.75161705  1
  Fe  Fe149  1  0.64385837  0.24960100  0.99876713  1
  Fe  Fe150  1  0.10889697  0.74991913  0.37305826  1
  Fe  Fe151  1  0.64151594  0.58330988  0.49822146  1
  Fe  Fe152  1  0.39331607  0.91753078  0.62671117  1
  Fe  Fe153  1  0.14317965  0.58398506  0.74953122  1
  Fe  Fe154  1  0.10788609  0.41676344  0.37287648  1
  Fe  Fe155  1  0.39257305  0.91714417  0.12638785  1
  Fe  Fe156  1  0.35739309  0.74978121  0.50144000  1
  Fe  Fe157  1  0.10627607  0.08310367  0.87294696  1
  Fe  Fe158  1  0.85731210  0.08233359  0.00133278  1
  Fe  Fe159  1  0.35774536  0.41695711  0.75071692  1
  Fe  Fe160  1  0.85845410  0.08302953  0.25214784  1
  Fe  Fe161  1  0.60621820  0.75016609  0.62287891  1
  Fe  Fe162  1  0.64183869  0.25012569  0.49776789  1
  Fe  Fe163  1  0.39308939  0.24967494  0.62609348  1
  Fe  Fe164  1  0.64119873  0.91645568  0.49845564  1
  Fe  Fe165  1  0.89386899  0.25067278  0.37695916  1
  Fe  Fe166  1  0.89208241  0.91686829  0.12693030  1
  Fe  Fe167  1  0.64185139  0.58371935  0.99793738  1
  Fe  Fe168  1  0.39248156  0.58327541  0.87631843  1
  Fe  Fe169  1  0.14289290  0.24989362  0.49873664  1
  Fe  Fe170  1  0.14125051  0.25020855  0.99783797  1
  Fe  Fe171  1  0.89234814  0.58336777  0.87657676  1
  Fe  Fe172  1  0.85616066  0.75025933  0.00110046  1
  Fe  Fe173  1  0.60691668  0.08362460  0.62406862  1
  Fe  Fe174  1  0.89297415  0.24969250  0.12680283  1
  Fe  Fe175  1  0.85702034  0.08354435  0.75152625  1
  Fe  Fe176  1  0.14371228  0.58364470  0.24781095  1
  Fe  Fe177  1  0.10826796  0.41633857  0.62416834  1
  Fe  Fe178  1  0.60704977  0.74979431  0.87393052  1
  Fe  Fe179  1  0.14257143  0.91655282  0.24726708  1
  Fe  Fe180  1  0.35838864  0.75063055  0.00207204  1
  Fe  Fe181  1  0.35811591  0.08338424  0.75226506  1
  Fe  Fe182  1  0.60612490  0.74964709  0.37323556  1
  Fe  Fe183  1  0.14177427  0.24996929  0.24771775  1
  Fe  Fe184  1  0.14379307  0.91622292  0.74835314  1
  Fe  Fe185  1  0.10590808  0.08307166  0.12291402  1
  Fe  Fe186  1  0.85814211  0.41664331  0.75069894  1
  Fe  Fe187  1  0.60756420  0.41624731  0.62365539  1
  Fe  Fe188  1  0.60850326  0.08314644  0.87328698  1
  Fe  Fe189  1  0.14304261  0.58382233  0.49775949  1
  Fe  Fe190  1  0.35628195  0.41626721  0.25196640  1
  Fe  Fe191  1  0.60700698  0.41675597  0.37264417  1
  P  P192  1  0.05346466  0.24900505  0.11031080  1
  P  P193  1  0.05458192  0.25058745  0.36060426  1
  P  P194  1  0.05411614  0.25060394  0.60982810  1
  P  P195  1  0.05296511  0.24907509  0.86107589  1
  P  P196  1  0.05481333  0.58334518  0.11068209  1
  P  P197  1  0.05643496  0.58374233  0.36044245  1
  P  P198  1  0.05643559  0.58246339  0.61108802  1
  P  P199  1  0.05267725  0.58388642  0.85968822  1
  P  P200  1  0.05281605  0.91731840  0.11068962  1
  P  P201  1  0.05469530  0.91567502  0.35910431  1
  P  P202  1  0.05499782  0.91685570  0.61126765  1
  P  P203  1  0.05398086  0.91713900  0.85938355  1
  P  P204  1  0.55399687  0.25004980  0.10907772  1
  P  P205  1  0.55443473  0.25076829  0.36060245  1
  P  P206  1  0.55284235  0.25000125  0.61006158  1
  P  P207  1  0.55562868  0.24915798  0.86139518  1
  P  P208  1  0.55182969  0.58335307  0.10937614  1
  P  P209  1  0.55407398  0.58339596  0.36116174  1
  P  P210  1  0.55349151  0.58298146  0.60973058  1
  P  P211  1  0.55317490  0.58430972  0.86108715  1
  P  P212  1  0.55243037  0.91648749  0.10932206  1
  P  P213  1  0.55415321  0.91562751  0.36077864  1
  P  P214  1  0.55229374  0.91698824  0.61000937  1
  P  P215  1  0.55548354  0.91645052  0.86178831  1
  P  P216  1  0.44707499  0.08267245  0.13997095  1
  P  P217  1  0.44643863  0.08360745  0.38986203  1
  P  P218  1  0.44759108  0.08351247  0.64065183  1
  P  P219  1  0.44720235  0.08327985  0.88941163  1
  P  P220  1  0.44554903  0.41703157  0.14087841  1
  P  P221  1  0.44595990  0.41633480  0.38911709  1
  P  P222  1  0.44773973  0.41570138  0.64018410  1
  P  P223  1  0.44531444  0.41740328  0.88862517  1
  P  P224  1  0.44422190  0.75026811  0.13938894  1
  P  P225  1  0.44504319  0.74984369  0.38936980  1
  P  P226  1  0.44587592  0.75059731  0.63901336  1
  P  P227  1  0.44574741  0.74926747  0.88914445  1
  P  P228  1  0.94517834  0.08301824  0.13884807  1
  P  P229  1  0.94574423  0.08394726  0.38901515  1
  P  P230  1  0.94593972  0.08345794  0.64053353  1
  P  P231  1  0.94523510  0.08359910  0.88917013  1
  P  P232  1  0.94674453  0.41608633  0.14021139  1
  P  P233  1  0.94872826  0.41634034  0.39024137  1
  P  P234  1  0.94796437  0.41685998  0.64014831  1
  P  P235  1  0.94506463  0.41706522  0.88858502  1
  P  P236  1  0.94472292  0.75071769  0.13883714  1
  P  P237  1  0.94935565  0.74953612  0.39053997  1
  P  P238  1  0.94709714  0.74980599  0.63990691  1
  P  P239  1  0.94589483  0.74899431  0.89067248  1
  P  P240  1  0.19481828  0.08330147  0.23394864  1
  P  P241  1  0.19695729  0.08413879  0.48534258  1
  P  P242  1  0.19696023  0.08260021  0.73672054  1
  P  P243  1  0.19382482  0.08409117  0.98516690  1
  P  P244  1  0.19605684  0.41684713  0.23620320  1
  P  P245  1  0.19458658  0.41645797  0.48618635  1
  P  P246  1  0.19757833  0.41769960  0.73510248  1
  P  P247  1  0.19645444  0.41573971  0.98454945  1
  P  P248  1  0.19642299  0.75007531  0.23559513  1
  P  P249  1  0.19802786  0.74964829  0.48430880  1
  P  P250  1  0.19853737  0.75016450  0.73593123  1
  P  P251  1  0.19897936  0.75033260  0.98488944  1
  P  P252  1  0.69906334  0.08359498  0.23471521  1
  P  P253  1  0.69422670  0.08333363  0.48647169  1
  P  P254  1  0.69627702  0.08379449  0.73540173  1
  P  P255  1  0.69776554  0.08313828  0.98491697  1
  P  P256  1  0.69591069  0.41653734  0.23576347  1
  P  P257  1  0.69398752  0.41649684  0.48549913  1
  P  P258  1  0.69799616  0.41647157  0.73420502  1
  P  P259  1  0.69639066  0.41669337  0.98541737  1
  P  P260  1  0.69508412  0.75000565  0.23595152  1
  P  P261  1  0.69349182  0.75013982  0.48578308  1
  P  P262  1  0.69407378  0.74952491  0.73543852  1
  P  P263  1  0.69640216  0.75018667  0.98491502  1
  P  P264  1  0.30103514  0.24959723  0.01503782  1
  P  P265  1  0.30120744  0.25056159  0.26479298  1
  P  P266  1  0.30251661  0.25020722  0.51591554  1
  P  P267  1  0.30560504  0.25000468  0.76362002  1
  P  P268  1  0.30575221  0.58413954  0.01443728  1
  P  P269  1  0.30379503  0.58293452  0.26362803  1
  P  P270  1  0.30193547  0.58408318  0.51470526  1
  P  P271  1  0.30347226  0.58310350  0.76508345  1
  P  P272  1  0.30411324  0.91658145  0.01546586  1
  P  P273  1  0.30308026  0.91673028  0.26318138  1
  P  P274  1  0.30444990  0.91595997  0.51568509  1
  P  P275  1  0.30486611  0.91704148  0.76370237  1
  P  P276  1  0.80475538  0.24911406  0.01412764  1
  P  P277  1  0.80628208  0.24914730  0.26483317  1
  P  P278  1  0.80298202  0.25050791  0.51334050  1
  P  P279  1  0.80452180  0.25036183  0.76486961  1
  P  P280  1  0.80265602  0.58453939  0.01383176  1
  P  P281  1  0.80298332  0.58340588  0.26620473  1
  P  P282  1  0.80155566  0.58361011  0.51473063  1
  P  P283  1  0.80390514  0.58232855  0.76503159  1
  P  P284  1  0.80267439  0.91624032  0.01506677  1
  P  P285  1  0.80477431  0.91745272  0.26453302  1
  P  P286  1  0.80111909  0.91584415  0.51500711  1
  P  P287  1  0.80286529  0.91724745  0.76470307  1
  O  O288  1  0.05827068  0.25003469  0.18703056  1
  O  O289  1  0.05919668  0.24976546  0.43726116  1
  O  O290  1  0.05678004  0.24963443  0.68667422  1
  O  O291  1  0.05726272  0.24979328  0.93774246  1
  O  O292  1  0.05994345  0.58352729  0.18740929  1
  O  O293  1  0.06011801  0.58415345  0.43732598  1
  O  O294  1  0.06051766  0.58371316  0.68784158  1
  O  O295  1  0.05679382  0.58394818  0.93640425  1
  O  O296  1  0.05815359  0.91622280  0.18728795  1
  O  O297  1  0.05788233  0.91648456  0.43593963  1
  O  O298  1  0.05989784  0.91650245  0.68797797  1
  O  O299  1  0.05663539  0.91627891  0.93620105  1
  O  O300  1  0.55721117  0.24986210  0.18587485  1
  O  O301  1  0.55843696  0.24999946  0.43737507  1
  O  O302  1  0.55628671  0.25017855  0.68680417  1
  O  O303  1  0.56042836  0.24963148  0.93806681  1
  O  O304  1  0.55567931  0.58347924  0.18611178  1
  O  O305  1  0.55790073  0.58333121  0.43789626  1
  O  O306  1  0.55584477  0.58296383  0.68654313  1
  O  O307  1  0.55789558  0.58360773  0.93775554  1
  O  O308  1  0.55620677  0.91658148  0.18606166  1
  O  O309  1  0.55786792  0.91648162  0.43752840  1
  O  O310  1  0.55554574  0.91677964  0.68678537  1
  O  O311  1  0.55954598  0.91667172  0.93849286  1
  O  O312  1  0.44380690  0.08342789  0.06321799  1
  O  O313  1  0.44236235  0.08372067  0.31315210  1
  O  O314  1  0.44426416  0.08341570  0.56392302  1
  O  O315  1  0.44190010  0.08348993  0.81276740  1
  O  O316  1  0.44308563  0.41603076  0.06402073  1
  O  O317  1  0.44017680  0.41632035  0.31252688  1
  O  O318  1  0.44391294  0.41649155  0.56347500  1
  O  O319  1  0.44097135  0.41680038  0.81190902  1
  O  O320  1  0.44138216  0.75041218  0.06249932  1
  O  O321  1  0.43983886  0.74977988  0.31266835  1
  O  O322  1  0.44123831  0.74955801  0.56234093  1
  O  O323  1  0.44126426  0.74997670  0.81236469  1
  O  O324  1  0.94070720  0.08257288  0.06209011  1
  O  O325  1  0.94243491  0.08315524  0.31223209  1
  O  O326  1  0.94286031  0.08309254  0.56368353  1
  O  O327  1  0.94054985  0.08294022  0.81250744  1
  O  O328  1  0.94333285  0.41697446  0.06338500  1
  O  O329  1  0.94475222  0.41695792  0.31358571  1
  O  O330  1  0.94404728  0.41709673  0.56344996  1
  O  O331  1  0.94163166  0.41700739  0.81185056  1
  O  O332  1  0.93975550  0.75018283  0.06215194  1
  O  O333  1  0.94503251  0.74943951  0.31383740  1
  O  O334  1  0.94351930  0.74996464  0.56318288  1
  O  O335  1  0.94313670  0.74974565  0.81388961  1
  O  O336  1  0.18935436  0.08328501  0.06191296  1
  O  O337  1  0.19274213  0.08326639  0.31078883  1
  O  O338  1  0.19434252  0.08358881  0.56209635  1
  O  O339  1  0.19149398  0.08325852  0.81329273  1
  O  O340  1  0.19339349  0.41620230  0.06135048  1
  O  O341  1  0.19179126  0.41657031  0.31292647  1
  O  O342  1  0.19149026  0.41624002  0.56297348  1
  O  O343  1  0.19382698  0.41685448  0.81180167  1
  O  O344  1  0.19466554  0.75023134  0.06155867  1
  O  O345  1  0.19238695  0.75046026  0.31227309  1
  O  O346  1  0.19488797  0.75010464  0.56111576  1
  O  O347  1  0.19483303  0.75046417  0.81252824  1
  O  O348  1  0.69460092  0.08344268  0.06164017  1
  O  O349  1  0.69472195  0.08353539  0.31140649  1
  O  O350  1  0.69004385  0.08363418  0.56325058  1
  O  O351  1  0.69176643  0.08347622  0.81209460  1
  O  O352  1  0.69352702  0.41676848  0.06217260  1
  O  O353  1  0.69126080  0.41668687  0.31250715  1
  O  O354  1  0.69009536  0.41619131  0.56232335  1
  O  O355  1  0.69406175  0.41654585  0.81090077  1
  O  O356  1  0.69306372  0.74990308  0.06165175  1
  O  O357  1  0.69015420  0.74981235  0.31263851  1
  O  O358  1  0.68951222  0.75018409  0.56263297  1
  O  O359  1  0.69003432  0.74960201  0.81218487  1
  O  O360  1  0.30534170  0.25002471  0.18817145  1
  O  O361  1  0.30590664  0.25016938  0.43917139  1
  O  O362  1  0.30992661  0.24976116  0.68690783  1
  O  O363  1  0.30566955  0.24937517  0.93835727  1
  O  O364  1  0.30815157  0.58270544  0.18695804  1
  O  O365  1  0.30555340  0.58331768  0.43803454  1
  O  O366  1  0.30668336  0.58297059  0.68823883  1
  O  O367  1  0.30952516  0.58346054  0.93763213  1
  O  O368  1  0.30802812  0.91736733  0.18660370  1
  O  O369  1  0.30662150  0.91710579  0.43883384  1
  O  O370  1  0.30974509  0.91738487  0.68704823  1
  O  O371  1  0.30723411  0.91747157  0.93865132  1
  O  O372  1  0.81021774  0.25015788  0.18797685  1
  O  O373  1  0.80869372  0.25090358  0.43678845  1
  O  O374  1  0.80667941  0.25035097  0.68803899  1
  O  O375  1  0.80921358  0.24989630  0.93741120  1
  O  O376  1  0.80642717  0.58341566  0.18938349  1
  O  O377  1  0.80636479  0.58357651  0.43813948  1
  O  O378  1  0.80672659  0.58315242  0.68824377  1
  O  O379  1  0.80772027  0.58375475  0.93722321  1
  O  O380  1  0.80889368  0.91669492  0.18775104  1
  O  O381  1  0.80565662  0.91562154  0.43832929  1
  O  O382  1  0.80573246  0.91667327  0.68795617  1
  O  O383  1  0.80591112  0.91629267  0.93836093  1
  O  O384  1  0.23090581  0.24999852  0.03900854  1
  O  O385  1  0.23101617  0.24999673  0.28895450  1
  O  O386  1  0.23252188  0.25019497  0.54055990  1
  O  O387  1  0.23543654  0.25003481  0.78766628  1
  O  O388  1  0.23576626  0.58312639  0.03878824  1
  O  O389  1  0.23357162  0.58362368  0.28771115  1
  O  O390  1  0.23196101  0.58346178  0.53930849  1
  O  O391  1  0.23347049  0.58376462  0.79004529  1
  O  O392  1  0.23430592  0.91622697  0.04021626  1
  O  O393  1  0.23272737  0.91699084  0.28688710  1
  O  O394  1  0.23495629  0.91645023  0.54137297  1
  O  O395  1  0.23457757  0.91670965  0.78768204  1
  O  O396  1  0.73437254  0.24955574  0.03793115  1
  O  O397  1  0.73621116  0.24969303  0.28886532  1
  O  O398  1  0.73251000  0.25043426  0.53660274  1
  O  O399  1  0.73498133  0.25012091  0.79057418  1
  O  O400  1  0.73226820  0.58409370  0.03761531  1
  O  O401  1  0.73318766  0.58346972  0.29072895  1
  O  O402  1  0.73125794  0.58325349  0.53839609  1
  O  O403  1  0.73415445  0.58303429  0.79014768  1
  O  O404  1  0.73259978  0.91653331  0.04002025  1
  O  O405  1  0.73478301  0.91710091  0.28870396  1
  O  O406  1  0.73097871  0.91623251  0.53912599  1
  O  O407  1  0.73321057  0.91696343  0.78983504  1
  O  O408  1  0.26435593  0.08372691  0.20821703  1
  O  O409  1  0.26640123  0.08364118  0.45948448  1
  O  O410  1  0.26741930  0.08326826  0.71329441  1
  O  O411  1  0.26399722  0.08318226  0.96129044  1
  O  O412  1  0.26621940  0.41658824  0.21186342  1
  O  O413  1  0.26445700  0.41680907  0.46119930  1
  O  O414  1  0.26767372  0.41703233  0.71049967  1
  O  O415  1  0.26613914  0.41613670  0.95956651  1
  O  O416  1  0.26674493  0.74966812  0.21163846  1
  O  O417  1  0.26792666  0.75043188  0.45930927  1
  O  O418  1  0.26861685  0.74951187  0.71119232  1
  O  O419  1  0.26909016  0.75085886  0.96075719  1
  O  O420  1  0.76906067  0.08359422  0.21046742  1
  O  O421  1  0.76424200  0.08317544  0.46217120  1
  O  O422  1  0.76659163  0.08398393  0.71169165  1
  O  O423  1  0.76794610  0.08283721  0.96032414  1
  O  O424  1  0.76592838  0.41654114  0.21179268  1
  O  O425  1  0.76410998  0.41678851  0.46127912  1
  O  O426  1  0.76799332  0.41651376  0.70964862  1
  O  O427  1  0.76608026  0.41684617  0.96021344  1
  O  O428  1  0.76521204  0.74995275  0.21240434  1
  O  O429  1  0.76350870  0.75003748  0.46129027  1
  O  O430  1  0.76414659  0.74943257  0.71140452  1
  O  O431  1  0.76642049  0.75035554  0.96002268  1
  O  O432  1  0.01556722  0.08334094  0.16265516  1
  O  O433  1  0.01563479  0.08359299  0.41375864  1
  O  O434  1  0.01566218  0.08387413  0.66549455  1
  O  O435  1  0.01560828  0.08294977  0.91283782  1
  O  O436  1  0.01647209  0.41592191  0.16506083  1
  O  O437  1  0.01890229  0.41696256  0.41430079  1
  O  O438  1  0.01801915  0.41644876  0.66471278  1
  O  O439  1  0.01488727  0.41692617  0.91360021  1
  O  O440  1  0.01498854  0.75012638  0.16230631  1
  O  O441  1  0.01950248  0.74982658  0.41461034  1
  O  O442  1  0.01696089  0.74936315  0.66465502  1
  O  O443  1  0.01552713  0.75018518  0.91617707  1
  O  O444  1  0.51670905  0.08308404  0.16534216  1
  O  O445  1  0.51629311  0.08345995  0.41418501  1
  O  O446  1  0.51772632  0.08362895  0.66540221  1
  O  O447  1  0.51763835  0.08293327  0.91260920  1
  O  O448  1  0.51515618  0.41669466  0.16627815  1
  O  O449  1  0.51641679  0.41644455  0.41207949  1
  O  O450  1  0.51785377  0.41643678  0.66480776  1
  O  O451  1  0.51534119  0.41718592  0.91270357  1
  O  O452  1  0.51406389  0.74990808  0.16434554  1
  O  O453  1  0.51545910  0.74989911  0.41253751  1
  O  O454  1  0.51633398  0.75008966  0.66261516  1
  O  O455  1  0.51604698  0.74993413  0.91298015  1
  O  O456  1  0.48423983  0.24988575  0.08403439  1
  O  O457  1  0.48445497  0.25037035  0.33628275  1
  O  O458  1  0.48273005  0.24978158  0.58519844  1
  O  O459  1  0.48548034  0.24977790  0.83772215  1
  O  O460  1  0.48164579  0.58351825  0.08539439  1
  O  O461  1  0.48412091  0.58336184  0.33670888  1
  O  O462  1  0.48383163  0.58283026  0.58401730  1
  O  O463  1  0.48298421  0.58388826  0.83693636  1
  O  O464  1  0.48242261  0.91652155  0.08482361  1
  O  O465  1  0.48422567  0.91601372  0.33628821  1
  O  O466  1  0.48222043  0.91696762  0.58523389  1
  O  O467  1  0.48550458  0.91644284  0.83734604  1
  O  O468  1  0.98300318  0.24921121  0.08689552  1
  O  O469  1  0.98426521  0.25003235  0.33678445  1
  O  O470  1  0.98453132  0.25048805  0.58438118  1
  O  O471  1  0.98267688  0.24967594  0.83721777  1
  O  O472  1  0.98459885  0.58337967  0.08731365  1
  O  O473  1  0.98650458  0.58322000  0.33583172  1
  O  O474  1  0.98642080  0.58330376  0.58664495  1
  O  O475  1  0.98257568  0.58334134  0.83551180  1
  O  O476  1  0.98243371  0.91752568  0.08717165  1
  O  O477  1  0.98493247  0.91630682  0.33422616  1
  O  O478  1  0.98499186  0.91676219  0.58711561  1
  O  O479  1  0.98422230  0.91641430  0.83442193  1
  O  O480  1  0.08684732  0.31380058  0.07644640  1
  O  O481  1  0.08767804  0.31591572  0.32750168  1
  O  O482  1  0.08853537  0.31579226  0.57821980  1
  O  O483  1  0.08665460  0.31387219  0.82761209  1
  O  O484  1  0.08816000  0.64831428  0.07720524  1
  O  O485  1  0.09004893  0.64879674  0.32733009  1
  O  O486  1  0.09076256  0.64702158  0.57753629  1
  O  O487  1  0.08640060  0.64903603  0.82689606  1
  O  O488  1  0.08606445  0.98247720  0.07771409  1
  O  O489  1  0.08904362  0.98058844  0.32643539  1
  O  O490  1  0.08830662  0.98201883  0.57820300  1
  O  O491  1  0.08786222  0.98248399  0.82732672  1
  O  O492  1  0.58812883  0.31512728  0.07671888  1
  O  O493  1  0.58793694  0.31600732  0.32796564  1
  O  O494  1  0.58668152  0.31507247  0.57736334  1
  O  O495  1  0.58904102  0.31412338  0.82785278  1
  O  O496  1  0.58569694  0.64828935  0.07644331  1
  O  O497  1  0.58733722  0.64868434  0.32820099  1
  O  O498  1  0.58759716  0.64814247  0.57752218  1
  O  O499  1  0.58637529  0.64947313  0.82815584  1
  O  O500  1  0.58682973  0.98129910  0.07671403  1
  O  O501  1  0.58795399  0.98053931  0.32748744  1
  O  O502  1  0.58625255  0.98211938  0.57769715  1
  O  O503  1  0.58898896  0.98157497  0.82867333  1
  O  O504  1  0.41314289  0.01733678  0.17203916  1
  O  O505  1  0.41267932  0.01849742  0.42251472  1
  O  O506  1  0.41377831  0.01841825  0.67344174  1
  O  O507  1  0.41376434  0.01831302  0.92257313  1
  O  O508  1  0.41088219  0.35219251  0.17335427  1
  O  O509  1  0.41290448  0.35139837  0.42279907  1
  O  O510  1  0.41405624  0.35056161  0.67267548  1
  O  O511  1  0.41188337  0.35247524  0.92221239  1
  O  O512  1  0.41014761  0.68517457  0.17195236  1
  O  O513  1  0.41185515  0.68491234  0.42310423  1
  O  O514  1  0.41241453  0.68564791  0.67266876  1
  O  O515  1  0.41246087  0.68412896  0.92200513  1
  O  O516  1  0.91189375  0.01809483  0.17243292  1
  O  O517  1  0.91195958  0.01900954  0.42216355  1
  O  O518  1  0.91171772  0.01858403  0.67318140  1
  O  O519  1  0.91164871  0.01870005  0.92280932  1
  O  O520  1  0.91277613  0.35080424  0.17207198  1
  O  O521  1  0.91525061  0.35108639  0.42288950  1
  O  O522  1  0.91368473  0.35198955  0.67275029  1
  O  O523  1  0.91130809  0.35191796  0.92135154  1
  O  O524  1  0.91134570  0.68585186  0.17251810  1
  O  O525  1  0.91571709  0.68449827  0.42347063  1
  O  O526  1  0.91290328  0.68479227  0.67222282  1
  O  O527  1  0.91208609  0.68355800  0.92272740  1
  O  O528  1  0.16058653  0.01817262  0.20168495  1
  O  O529  1  0.16244514  0.01926525  0.45292420  1
  O  O530  1  0.16415032  0.01743932  0.70327449  1
  O  O531  1  0.15985067  0.01929796  0.95188795  1
  O  O532  1  0.16234570  0.35182872  0.20315633  1
  O  O533  1  0.16086124  0.35127877  0.45335425  1
  O  O534  1  0.16324703  0.35290828  0.70218584  1
  O  O535  1  0.16235938  0.35067209  0.95225660  1
  O  O536  1  0.16306417  0.68497633  0.20254171  1
  O  O537  1  0.16428581  0.68446162  0.45184154  1
  O  O538  1  0.16447874  0.68513473  0.70347069  1
  O  O539  1  0.16560929  0.68519782  0.95193256  1
  O  O540  1  0.66516037  0.01865457  0.20185276  1
  O  O541  1  0.66083102  0.01801074  0.45366844  1
  O  O542  1  0.66257918  0.01897034  0.70205061  1
  O  O543  1  0.66371288  0.01803160  0.95252383  1
  O  O544  1  0.66254780  0.35145291  0.20268866  1
  O  O545  1  0.66044574  0.35146050  0.45231186  1
  O  O546  1  0.66395651  0.35153034  0.70143403  1
  O  O547  1  0.66275909  0.35136841  0.95300960  1
  O  O548  1  0.66161229  0.68508555  0.20248077  1
  O  O549  1  0.65970339  0.68499106  0.45297369  1
  O  O550  1  0.66026447  0.68464756  0.70243945  1
  O  O551  1  0.66228527  0.68529014  0.95197584  1
  O  O552  1  0.33499093  0.31449418  0.04780569  1
  O  O553  1  0.33463167  0.31565752  0.29783108  1
  O  O554  1  0.33665315  0.31517217  0.54847403  1
  O  O555  1  0.33879974  0.31540598  0.79635446  1
  O  O556  1  0.33890857  0.64959592  0.04704233  1
  O  O557  1  0.33745278  0.64800448  0.29654155  1
  O  O558  1  0.33557892  0.64927363  0.54712178  1
  O  O559  1  0.33806787  0.64794767  0.79741685  1
  O  O560  1  0.33794171  0.98164317  0.04831662  1
  O  O561  1  0.33633197  0.98167205  0.29686048  1
  O  O562  1  0.33923270  0.98061550  0.54837165  1
  O  O563  1  0.33798126  0.98202683  0.79742291  1
  O  O564  1  0.83836972  0.31387060  0.04781776  1
  O  O565  1  0.84022523  0.31387861  0.29840743  1
  O  O566  1  0.83612579  0.31547827  0.54701811  1
  O  O567  1  0.83880172  0.31551751  0.79698705  1
  O  O568  1  0.83572753  0.64977124  0.04694046  1
  O  O569  1  0.83702896  0.64836054  0.29882875  1
  O  O570  1  0.83487092  0.64866581  0.54787823  1
  O  O571  1  0.83844541  0.64702496  0.79786820  1
  O  O572  1  0.83694332  0.98123925  0.04755708  1
  O  O573  1  0.83821431  0.98279324  0.29709508  1
  O  O574  1  0.83504814  0.98091399  0.54760477  1
  O  O575  1  0.83684688  0.98237588  0.79694978  1
  O  O576  1  0.41271457  0.14768002  0.17243078  1
  O  O577  1  0.41275502  0.14861949  0.42280215  1
  O  O578  1  0.41358126  0.14855846  0.67316012  1
  O  O579  1  0.41409139  0.14820485  0.92313524  1
  O  O580  1  0.41149255  0.48240832  0.17272566  1
  O  O581  1  0.41299884  0.48136426  0.42291347  1
  O  O582  1  0.41336840  0.48059049  0.67298637  1
  O  O583  1  0.41189030  0.48263084  0.92128724  1
  O  O584  1  0.41048454  0.81547104  0.17205539  1
  O  O585  1  0.41173115  0.81477346  0.42277255  1
  O  O586  1  0.41290636  0.81579507  0.67223898  1
  O  O587  1  0.41209122  0.81408178  0.92267833  1
  O  O588  1  0.91192367  0.14818566  0.17194036  1
  O  O589  1  0.91215491  0.14927395  0.42144062  1
  O  O590  1  0.91155199  0.14854595  0.67255633  1
  O  O591  1  0.91211711  0.14876269  0.92239079  1
  O  O592  1  0.91291935  0.48108502  0.17306566  1
  O  O593  1  0.91490364  0.48120527  0.42341005  1
  O  O594  1  0.91407387  0.48182854  0.67295698  1
  O  O595  1  0.91145798  0.48231475  0.92145913  1
  O  O596  1  0.91188884  0.81617418  0.17189937  1
  O  O597  1  0.91538380  0.81456372  0.42323286  1
  O  O598  1  0.91331920  0.81483855  0.67266924  1
  O  O599  1  0.91081218  0.81365953  0.92304333  1
  O  O600  1  0.08656153  0.18382527  0.07727122  1
  O  O601  1  0.08807841  0.18577969  0.32684865  1
  O  O602  1  0.08851116  0.18580234  0.57708317  1
  O  O603  1  0.08611413  0.18388646  0.82793835  1
  O  O604  1  0.08797824  0.51817752  0.07751241  1
  O  O605  1  0.09049390  0.51856560  0.32799096  1
  O  O606  1  0.08953080  0.51687876  0.57872329  1
  O  O607  1  0.08702514  0.51916337  0.82683622  1
  O  O608  1  0.08588617  0.85240899  0.07671321  1
  O  O609  1  0.08865540  0.85045958  0.32682397  1
  O  O610  1  0.08867032  0.85182877  0.57815902  1
  O  O611  1  0.08878858  0.85241201  0.82690869  1
  O  O612  1  0.58864509  0.18520070  0.07670589  1
  O  O613  1  0.58822058  0.18586729  0.32733856  1
  O  O614  1  0.58687291  0.18495287  0.57755255  1
  O  O615  1  0.58864581  0.18387511  0.82829488  1
  O  O616  1  0.58559438  0.51835835  0.07656806  1
  O  O617  1  0.58759732  0.51823464  0.32820075  1
  O  O618  1  0.58796672  0.51797971  0.57772059  1
  O  O619  1  0.58674445  0.51940236  0.82757467  1
  O  O620  1  0.58636122  0.85147957  0.07661132  1
  O  O621  1  0.58750857  0.85034333  0.32815469  1
  O  O622  1  0.58616200  0.85199118  0.57724662  1
  O  O623  1  0.58865408  0.85115907  0.82885043  1
  O  O624  1  0.33443984  0.18451961  0.04813355  1
  O  O625  1  0.33501773  0.18554536  0.29771818  1
  O  O626  1  0.33675418  0.18532874  0.54856779  1
  O  O627  1  0.33892419  0.18495789  0.79707330  1
  O  O628  1  0.33992016  0.51946656  0.04766363  1
  O  O629  1  0.33659126  0.51775888  0.29727499  1
  O  O630  1  0.33597471  0.51925427  0.54769971  1
  O  O631  1  0.33724397  0.51793213  0.79759739  1
  O  O632  1  0.33867994  0.85167303  0.04743312  1
  O  O633  1  0.33621383  0.85150329  0.29639686  1
  O  O634  1  0.33859479  0.85055081  0.54721788  1
  O  O635  1  0.33830818  0.85178511  0.79654152  1
  O  O636  1  0.83797015  0.18379779  0.04689326  1
  O  O637  1  0.83971257  0.18380227  0.29732339  1
  O  O638  1  0.83607947  0.18545152  0.54679956  1
  O  O639  1  0.83898898  0.18534712  0.79712616  1
  O  O640  1  0.83616890  0.51966141  0.04754900  1
  O  O641  1  0.83692468  0.51827008  0.29867382  1
  O  O642  1  0.83536385  0.51859690  0.54761041  1
  O  O643  1  0.83771601  0.51694401  0.79710179  1
  O  O644  1  0.83650024  0.85118274  0.04775082  1
  O  O645  1  0.83832022  0.85253463  0.29800444  1
  O  O646  1  0.83471363  0.85084480  0.54798885  1
  O  O647  1  0.83693542  0.85221667  0.79726681  1
  O  O648  1  0.16007437  0.14827935  0.20204994  1
  O  O649  1  0.16279162  0.14940699  0.45340940  1
  O  O650  1  0.16355920  0.14757231  0.70315877  1
  O  O651  1  0.16062540  0.14941338  0.95221766  1
  O  O652  1  0.16297090  0.48207437  0.20308288  1
  O  O653  1  0.16056197  0.48147349  0.45346357  1
  O  O654  1  0.16391920  0.48294770  0.70288045  1
  O  O655  1  0.16240459  0.48088666  0.95220535  1
  O  O656  1  0.16328476  0.81517959  0.20210779  1
  O  O657  1  0.16351788  0.81442512  0.45173053  1
  O  O658  1  0.16518295  0.81524445  0.70269675  1
  O  O659  1  0.16495148  0.81518879  0.95217720  1
  O  O660  1  0.66541559  0.14858079  0.20182965  1
  O  O661  1  0.66101863  0.14854886  0.45325570  1
  O  O662  1  0.66269615  0.14870853  0.70217631  1
  O  O663  1  0.66408029  0.14817288  0.95195472  1
  O  O664  1  0.66226535  0.48154061  0.20265452  1
  O  O665  1  0.66014196  0.48164000  0.45278700  1
  O  O666  1  0.66363703  0.48128104  0.70163300  1
  O  O667  1  0.66224382  0.48179466  0.95293752  1
  O  O668  1  0.66178556  0.81508016  0.20265533  1
  O  O669  1  0.65977497  0.81520147  0.45287346  1
  O  O670  1  0.66036445  0.81450078  0.70227903  1
  O  O671  1  0.66244856  0.81536684  0.95256232  1
