# generated using pymatgen
data_Na2MnFe(PO4)2
_symmetry_space_group_name_H-M   'P 1'
_cell_length_a   21.08045132
_cell_length_b   18.93283662
_cell_length_c   20.04014386
_cell_angle_alpha   89.99984037
_cell_angle_beta   89.99548812
_cell_angle_gamma   89.99989069
_symmetry_Int_Tables_number   1
_chemical_formula_structural   Na2MnFe(PO4)2
_chemical_formula_sum   'Na96 Mn48 Fe48 P96 O384'
_cell_volume   7998.27671545
_cell_formula_units_Z   48
loop_
 _symmetry_equiv_pos_site_id
 _symmetry_equiv_pos_as_xyz
  1  'x, y, z'
loop_
 _atom_site_type_symbol
 _atom_site_label
 _atom_site_symmetry_multiplicity
 _atom_site_fract_x
 _atom_site_fract_y
 _atom_site_fract_z
 _atom_site_occupancy
  Na  Na0  1  0.00210198  0.00067054  0.00049321  1
  Na  Na1  1  -0.00047870  -0.00042918  0.25011703  1
  Na  Na2  1  0.00111235  0.00046207  0.49957822  1
  Na  Na3  1  0.00103653  -0.00019650  0.75106899  1
  Na  Na4  1  -0.00034535  0.33299436  -0.00057670  1
  Na  Na5  1  0.00141568  0.33385070  0.24951033  1
  Na  Na6  1  -0.00067545  0.33322528  0.50027761  1
  Na  Na7  1  -0.00072914  0.33349095  0.75003707  1
  Na  Na8  1  0.00023237  0.66692780  -0.00039442  1
  Na  Na9  1  -0.00219216  0.66502851  0.25058453  1
  Na  Na10  1  -0.00022990  0.66652129  0.49947034  1
  Na  Na11  1  -0.00035258  0.66644897  0.75055044  1
  Na  Na12  1  0.49915941  0.00045681  -0.00096489  1
  Na  Na13  1  0.49853082  0.00020597  0.24986588  1
  Na  Na14  1  0.50131175  0.00049860  0.50034158  1
  Na  Na15  1  0.50195514  0.00084540  0.75024510  1
  Na  Na16  1  0.49708422  0.33230432  0.00084898  1
  Na  Na17  1  0.50000277  0.33403117  0.24972611  1
  Na  Na18  1  0.50070607  0.33443647  0.49940842  1
  Na  Na19  1  0.49925642  0.33359194  0.75043249  1
  Na  Na20  1  0.49982587  0.66673831  0.00013001  1
  Na  Na21  1  0.49959088  0.66690912  0.24902325  1
  Na  Na22  1  0.50003799  0.66588638  0.50098081  1
  Na  Na23  1  0.49954096  0.66544268  0.74951468  1
  Na  Na24  1  0.25165357  0.00001952  0.12528901  1
  Na  Na25  1  0.25170139  0.00074828  0.37552392  1
  Na  Na26  1  0.24875717  -0.00020238  0.62436036  1
  Na  Na27  1  0.25059500  0.00064573  0.87458235  1
  Na  Na28  1  0.25296862  0.33403133  0.12495783  1
  Na  Na29  1  0.24974449  0.33417457  0.37516453  1
  Na  Na30  1  0.24919068  0.33361105  0.62474319  1
  Na  Na31  1  0.25209202  0.33383928  0.87504291  1
  Na  Na32  1  0.25050665  0.66657676  0.12461222  1
  Na  Na33  1  0.25020814  0.66626713  0.37683376  1
  Na  Na34  1  0.24943142  0.66594117  0.62506128  1
  Na  Na35  1  0.24987145  0.66647222  0.87372012  1
  Na  Na36  1  0.74804829  0.00056646  0.12507983  1
  Na  Na37  1  0.74913654  0.00038799  0.37525546  1
  Na  Na38  1  0.74864798  -0.00016461  0.62602069  1
  Na  Na39  1  0.74694290  -0.00028298  0.87445748  1
  Na  Na40  1  0.74896459  0.33298970  0.12601332  1
  Na  Na41  1  0.74839509  0.33283051  0.37483262  1
  Na  Na42  1  0.75190328  0.33480900  0.62501995  1
  Na  Na43  1  0.75009230  0.33315087  0.87411825  1
  Na  Na44  1  0.75166588  0.66681834  0.12516739  1
  Na  Na45  1  0.75177840  0.66672884  0.37437575  1
  Na  Na46  1  0.75182335  0.66671197  0.62492536  1
  Na  Na47  1  0.75049070  0.66594099  0.87453905  1
  Na  Na48  1  0.00057966  0.16686313  0.00087374  1
  Na  Na49  1  0.00054454  0.16717013  0.24969032  1
  Na  Na50  1  -0.00018517  0.16708499  0.49979058  1
  Na  Na51  1  0.00080143  0.16602036  0.75034660  1
  Na  Na52  1  -0.00112201  0.50058375  -0.00086352  1
  Na  Na53  1  -0.00136993  0.50050479  0.25018036  1
  Na  Na54  1  -0.00045958  0.49986213  0.50046357  1
  Na  Na55  1  -0.00143741  0.50062280  0.75018604  1
  Na  Na56  1  0.00174187  0.83273015  -0.00058000  1
  Na  Na57  1  -0.00017841  0.83356368  0.25028201  1
  Na  Na58  1  0.00043494  0.83300428  0.49906322  1
  Na  Na59  1  0.00062690  0.83351691  0.75110252  1
  Na  Na60  1  0.49975163  0.16630102  -0.00001745  1
  Na  Na61  1  0.50119231  0.16619820  0.24940201  1
  Na  Na62  1  0.50200002  0.16586083  0.49929790  1
  Na  Na63  1  0.49915134  0.16700009  0.75113134  1
  Na  Na64  1  0.49818147  0.50070276  0.00013423  1
  Na  Na65  1  0.49823541  0.49989883  0.24967588  1
  Na  Na66  1  0.49936540  0.50022526  0.50009419  1
  Na  Na67  1  0.50068650  0.49981765  0.74950947  1
  Na  Na68  1  0.49844830  0.83334882  -0.00013524  1
  Na  Na69  1  0.49801225  0.83361413  0.24932694  1
  Na  Na70  1  0.50055081  0.83337557  0.50119010  1
  Na  Na71  1  0.50172086  0.83202880  0.74987042  1
  Na  Na72  1  0.25305643  0.16608397  0.12385284  1
  Na  Na73  1  0.24944301  0.16759523  0.37593417  1
  Na  Na74  1  0.25026398  0.16629406  0.62485079  1
  Na  Na75  1  0.25186748  0.16593850  0.87513860  1
  Na  Na76  1  0.25110796  0.50003176  0.12542049  1
  Na  Na77  1  0.25092892  0.49935563  0.37625956  1
  Na  Na78  1  0.24969784  0.50018551  0.62445082  1
  Na  Na79  1  0.25133324  0.50007464  0.87402203  1
  Na  Na80  1  0.25124979  0.83300725  0.12533699  1
  Na  Na81  1  0.24978287  0.83368959  0.37572992  1
  Na  Na82  1  0.24813216  0.83341428  0.62458174  1
  Na  Na83  1  0.24835465  0.83391363  0.87438048  1
  Na  Na84  1  0.74721345  0.16688547  0.12551481  1
  Na  Na85  1  0.74762687  0.16687643  0.37488128  1
  Na  Na86  1  0.74966750  0.16623175  0.62556840  1
  Na  Na87  1  0.74748047  0.16762186  0.87456892  1
  Na  Na88  1  0.75081197  0.49988204  0.12549042  1
  Na  Na89  1  0.75164742  0.49941843  0.37475475  1
  Na  Na90  1  0.75110198  0.50043236  0.62439830  1
  Na  Na91  1  0.75154230  0.49988378  0.87464699  1
  Na  Na92  1  0.75068854  0.83237759  0.12524689  1
  Na  Na93  1  0.74996204  0.83315873  0.37497662  1
  Na  Na94  1  0.75113312  0.83262569  0.62606323  1
  Na  Na95  1  0.74868789  0.83369035  0.87411092  1
  Mn  Mn96  1  0.64087642  0.91665957  0.99759992  1
  Mn  Mn97  1  0.39278861  0.25017396  0.37737978  1
  Mn  Mn98  1  0.64238483  0.58276644  0.99755655  1
  Mn  Mn99  1  0.60743724  0.75059734  0.12235913  1
  Mn  Mn100  1  0.10833368  0.08427506  0.37193103  1
  Mn  Mn101  1  0.64249768  0.25047595  0.49822280  1
  Mn  Mn102  1  0.85650984  0.08300053  0.25177890  1
  Mn  Mn103  1  0.85773912  0.08320853  0.75253475  1
  Mn  Mn104  1  0.14360112  0.24999426  0.99793766  1
  Mn  Mn105  1  0.64244790  0.58321056  0.24833311  1
  Mn  Mn106  1  0.10799399  0.74959614  0.12302550  1
  Mn  Mn107  1  0.14194290  0.58282831  0.74752277  1
  Mn  Mn108  1  0.39252445  0.25026499  0.62707447  1
  Mn  Mn109  1  0.35832670  0.74975930  0.25348900  1
  Mn  Mn110  1  0.89248267  0.91706475  0.87769856  1
  Mn  Mn111  1  0.10870284  0.08359715  0.12307642  1
  Mn  Mn112  1  0.35827039  0.41608962  0.75160657  1
  Mn  Mn113  1  0.85771502  0.41622713  0.25246620  1
  Mn  Mn114  1  0.85807363  0.75063977  0.00193193  1
  Mn  Mn115  1  0.89188949  0.24933216  0.87770614  1
  Mn  Mn116  1  0.89201402  0.25038242  0.37664893  1
  Mn  Mn117  1  0.85829012  0.75010007  0.50272995  1
  Mn  Mn118  1  0.89191586  0.91687469  0.37749065  1
  Mn  Mn119  1  0.14345070  0.91744198  0.24766341  1
  Mn  Mn120  1  0.64095675  0.91640584  0.24750769  1
  Mn  Mn121  1  0.39250334  0.91586424  0.87687887  1
  Mn  Mn122  1  0.14260174  0.25012711  0.74813066  1
  Mn  Mn123  1  0.85778682  0.41558988  0.00250349  1
  Mn  Mn124  1  0.10825176  0.41702492  0.12263813  1
  Mn  Mn125  1  0.14142741  0.25055805  0.49799104  1
  Mn  Mn126  1  0.35806285  0.08380436  0.50260716  1
  Mn  Mn127  1  0.35749446  0.74958913  0.50245776  1
  Mn  Mn128  1  0.85692218  0.08361665  0.00191337  1
  Mn  Mn129  1  0.39238239  0.91656968  0.62748200  1
  Mn  Mn130  1  0.10755852  0.74915555  0.37234350  1
  Mn  Mn131  1  0.60857348  0.74944442  0.62287256  1
  Mn  Mn132  1  0.85757267  0.08357633  0.50256697  1
  Mn  Mn133  1  0.39106800  0.58331297  0.12743986  1
  Mn  Mn134  1  0.89220129  0.91686752  0.12688536  1
  Mn  Mn135  1  0.64283421  0.58329353  0.49739041  1
  Mn  Mn136  1  0.14241240  0.58288479  0.24803902  1
  Mn  Mn137  1  0.10807619  0.41645226  0.87291413  1
  Mn  Mn138  1  0.35757052  0.75060404  0.75220186  1
  Mn  Mn139  1  0.14174133  0.91710208  0.74732510  1
  Mn  Mn140  1  0.64175241  0.25098423  0.74717683  1
  Mn  Mn141  1  0.60727023  0.41725143  0.87283490  1
  Mn  Mn142  1  0.60669725  0.41649515  0.12241947  1
  Mn  Mn143  1  0.64230812  0.91606477  0.49770712  1
  Fe  Fe144  1  0.35711908  0.41631313  0.25287327  1
  Fe  Fe145  1  0.35762638  0.08304163  0.75127368  1
  Fe  Fe146  1  0.60714777  0.74964967  0.37335855  1
  Fe  Fe147  1  0.10790113  0.74993563  0.87344975  1
  Fe  Fe148  1  0.14234722  0.58310362  0.49866903  1
  Fe  Fe149  1  0.14276606  0.58375794  0.99803244  1
  Fe  Fe150  1  0.64159269  0.25058613  0.99849266  1
  Fe  Fe151  1  0.64347065  0.58340237  0.74849904  1
  Fe  Fe152  1  0.14211190  0.91635560  0.49818887  1
  Fe  Fe153  1  0.89202406  0.24998882  0.12705100  1
  Fe  Fe154  1  0.89323292  0.91690403  0.62670229  1
  Fe  Fe155  1  0.39177833  0.91709711  0.12647248  1
  Fe  Fe156  1  0.35727652  0.41692399  0.50182519  1
  Fe  Fe157  1  0.10878752  0.08339298  0.87360176  1
  Fe  Fe158  1  0.64156342  0.25027781  0.24798590  1
  Fe  Fe159  1  0.85786074  0.41613722  0.50172150  1
  Fe  Fe160  1  0.14375825  0.25015296  0.24786673  1
  Fe  Fe161  1  0.35796103  0.08415254  0.25222396  1
  Fe  Fe162  1  0.35743750  0.41736861  0.00147908  1
  Fe  Fe163  1  0.39300320  0.58311963  0.62660932  1
  Fe  Fe164  1  0.10628283  0.41691022  0.62310688  1
  Fe  Fe165  1  0.60609640  0.08309043  0.87325507  1
  Fe  Fe166  1  0.10722397  0.08324826  0.62363820  1
  Fe  Fe167  1  0.85750749  0.41716226  0.75112201  1
  Fe  Fe168  1  0.89332215  0.58357128  0.62689139  1
  Fe  Fe169  1  0.60723948  0.08400848  0.62372459  1
  Fe  Fe170  1  0.60735141  0.74960236  0.87339002  1
  Fe  Fe171  1  0.89286639  0.24959935  0.62664585  1
  Fe  Fe172  1  0.60704729  0.41732843  0.37333012  1
  Fe  Fe173  1  0.10641602  0.74991841  0.62363020  1
  Fe  Fe174  1  0.60805083  0.41653858  0.62298303  1
  Fe  Fe175  1  0.39286575  0.58339516  0.87640621  1
  Fe  Fe176  1  0.35787508  0.08271652  0.00155700  1
  Fe  Fe177  1  0.64287028  0.91585864  0.74816649  1
  Fe  Fe178  1  0.10731678  0.41670768  0.37347643  1
  Fe  Fe179  1  0.60564903  0.08315641  0.12291185  1
  Fe  Fe180  1  0.35691954  0.74995452  0.00033829  1
  Fe  Fe181  1  0.89284864  0.58305127  0.12630398  1
  Fe  Fe182  1  0.39288888  0.24935995  0.12753241  1
  Fe  Fe183  1  0.39282334  0.58385319  0.37712532  1
  Fe  Fe184  1  0.89292911  0.58373993  0.87681173  1
  Fe  Fe185  1  0.89296437  0.58256918  0.37711791  1
  Fe  Fe186  1  0.85740069  0.75046137  0.25150188  1
  Fe  Fe187  1  0.85786213  0.74980738  0.75184860  1
  Fe  Fe188  1  0.14363018  0.91639062  0.99911558  1
  Fe  Fe189  1  0.60687948  0.08291351  0.37286243  1
  Fe  Fe190  1  0.39311786  0.91591475  0.37723795  1
  Fe  Fe191  1  0.39280518  0.25037715  0.87705498  1
  P  P192  1  0.05376009  0.25038910  0.11084507  1
  P  P193  1  0.05424638  0.25147112  0.35898941  1
  P  P194  1  0.05217795  0.25011061  0.61068020  1
  P  P195  1  0.05382229  0.24923780  0.86027204  1
  P  P196  1  0.05285216  0.58307703  0.10930360  1
  P  P197  1  0.05345137  0.58190877  0.36136405  1
  P  P198  1  0.05256561  0.58345457  0.60992738  1
  P  P199  1  0.05390315  0.58387331  0.86109450  1
  P  P200  1  0.05442517  0.91654709  0.10943286  1
  P  P201  1  0.05464175  0.91670213  0.36057617  1
  P  P202  1  0.05271020  0.91643353  0.60972958  1
  P  P203  1  0.05576826  0.91682763  0.86192395  1
  P  P204  1  0.55322269  0.24931303  0.11067810  1
  P  P205  1  0.55415992  0.25058564  0.35956307  1
  P  P206  1  0.55340491  0.25039339  0.61011081  1
  P  P207  1  0.55294867  0.24992390  0.86146007  1
  P  P208  1  0.55284271  0.58323998  0.10992554  1
  P  P209  1  0.55208315  0.58338098  0.36019742  1
  P  P210  1  0.55433288  0.58222357  0.61111107  1
  P  P211  1  0.55296458  0.58399747  0.85940699  1
  P  P212  1  0.55094573  0.91759878  0.10981791  1
  P  P213  1  0.55206200  0.91597976  0.36019989  1
  P  P214  1  0.55488357  0.91727738  0.61140844  1
  P  P215  1  0.55394979  0.91605390  0.85933664  1
  P  P216  1  0.44506058  0.08337578  0.13900086  1
  P  P217  1  0.44675680  0.08282910  0.38891744  1
  P  P218  1  0.44751519  0.08352658  0.64070573  1
  P  P219  1  0.44560399  0.08359585  0.88902942  1
  P  P220  1  0.44381989  0.41583487  0.13957192  1
  P  P221  1  0.44586600  0.41746368  0.38949986  1
  P  P222  1  0.44709279  0.41745306  0.63856067  1
  P  P223  1  0.44588039  0.41719577  0.89037084  1
  P  P224  1  0.44455597  0.75071542  0.13840197  1
  P  P225  1  0.44789894  0.74974913  0.39051543  1
  P  P226  1  0.44675302  0.74900278  0.64005801  1
  P  P227  1  0.44734050  0.74885825  0.88989943  1
  P  P228  1  0.94655192  0.08426148  0.14002792  1
  P  P229  1  0.94659803  0.08385166  0.38986562  1
  P  P230  1  0.94783286  0.08295591  0.64003654  1
  P  P231  1  0.94851377  0.08312649  0.89061703  1
  P  P232  1  0.94647439  0.41637932  0.13978977  1
  P  P233  1  0.94709897  0.41682772  0.39050904  1
  P  P234  1  0.94582728  0.41676594  0.63912702  1
  P  P235  1  0.94526189  0.41730673  0.88862672  1
  P  P236  1  0.94624898  0.74929658  0.14051279  1
  P  P237  1  0.94518829  0.74921897  0.38874295  1
  P  P238  1  0.94722697  0.75023938  0.64050951  1
  P  P239  1  0.94680433  0.74959774  0.88872009  1
  P  P240  1  0.19895956  0.08466694  0.23494924  1
  P  P241  1  0.19506296  0.08279010  0.48618276  1
  P  P242  1  0.19652713  0.08374888  0.73521692  1
  P  P243  1  0.19828244  0.08266389  0.98491099  1
  P  P244  1  0.19701760  0.41602593  0.23629788  1
  P  P245  1  0.19531760  0.41778602  0.48593624  1
  P  P246  1  0.19610090  0.41661439  0.73389585  1
  P  P247  1  0.19839840  0.41749722  0.98505698  1
  P  P248  1  0.19740077  0.74967533  0.23519885  1
  P  P249  1  0.19445494  0.74950208  0.48677081  1
  P  P250  1  0.19467682  0.74973361  0.73494699  1
  P  P251  1  0.19730293  0.74987283  0.98453013  1
  P  P252  1  0.69321509  0.08383124  0.23532441  1
  P  P253  1  0.69467833  0.08341164  0.48558486  1
  P  P254  1  0.69425291  0.08292134  0.73594824  1
  P  P255  1  0.69361745  0.08449681  0.98536308  1
  P  P256  1  0.69485609  0.41642501  0.23611590  1
  P  P257  1  0.69664145  0.41690308  0.48528722  1
  P  P258  1  0.69730074  0.41809461  0.73442601  1
  P  P259  1  0.69655337  0.41572250  0.98483052  1
  P  P260  1  0.69635195  0.74955419  0.23589184  1
  P  P261  1  0.69659283  0.74949350  0.48402745  1
  P  P262  1  0.69690001  0.74915941  0.73640543  1
  P  P263  1  0.69616574  0.74967567  0.98385578  1
  P  P264  1  0.30626828  0.25004897  0.01417944  1
  P  P265  1  0.30397700  0.24994635  0.26424918  1
  P  P266  1  0.30328444  0.25133212  0.51498909  1
  P  P267  1  0.30451846  0.24904957  0.76542798  1
  P  P268  1  0.30337476  0.58387706  0.01316558  1
  P  P269  1  0.30386707  0.58254504  0.26660593  1
  P  P270  1  0.30418932  0.58247980  0.51471236  1
  P  P271  1  0.30521833  0.58318526  0.76406928  1
  P  P272  1  0.30317785  0.91624647  0.01474969  1
  P  P273  1  0.30583885  0.91776332  0.26512270  1
  P  P274  1  0.30330616  0.91639961  0.51420168  1
  P  P275  1  0.30307827  0.91750221  0.76466006  1
  P  P276  1  0.80170757  0.24945750  0.01601069  1
  P  P277  1  0.80218669  0.24956327  0.26419085  1
  P  P278  1  0.80402399  0.25064782  0.51569776  1
  P  P279  1  0.80459784  0.25069726  0.76362771  1
  P  P280  1  0.80514050  0.58331237  0.01453273  1
  P  P281  1  0.80569341  0.58385895  0.26447604  1
  P  P282  1  0.80574541  0.58225198  0.51445919  1
  P  P283  1  0.80511014  0.58337419  0.76387735  1
  P  P284  1  0.80216563  0.91715370  0.01505128  1
  P  P285  1  0.80267316  0.91622887  0.26504206  1
  P  P286  1  0.80371623  0.91687223  0.51652033  1
  P  P287  1  0.80394457  0.91610338  0.76395925  1
  O  O288  1  0.05937068  0.25025752  0.18746724  1
  O  O289  1  0.05683999  0.25050296  0.43585722  1
  O  O290  1  0.05583203  0.25021207  0.68730750  1
  O  O291  1  0.05736146  0.25002776  0.93706369  1
  O  O292  1  0.05673588  0.58286268  0.18605955  1
  O  O293  1  0.05820534  0.58275169  0.43799614  1
  O  O294  1  0.05588440  0.58315190  0.68664990  1
  O  O295  1  0.05890258  0.58331410  0.93777282  1
  O  O296  1  0.05758624  0.91671365  0.18625285  1
  O  O297  1  0.05892246  0.91670283  0.43737782  1
  O  O298  1  0.05598551  0.91664434  0.68654057  1
  O  O299  1  0.06019261  0.91676776  0.93863713  1
  O  O300  1  0.55773320  0.25046160  0.18737424  1
  O  O301  1  0.55695720  0.25079765  0.43636875  1
  O  O302  1  0.55548724  0.25078610  0.68698161  1
  O  O303  1  0.55714389  0.25061763  0.93812285  1
  O  O304  1  0.55645036  0.58305974  0.18666687  1
  O  O305  1  0.55587508  0.58311644  0.43690398  1
  O  O306  1  0.55941264  0.58280500  0.68773431  1
  O  O307  1  0.55645991  0.58332047  0.93612836  1
  O  O308  1  0.55458551  0.91676342  0.18650762  1
  O  O309  1  0.55574156  0.91615452  0.43692597  1
  O  O310  1  0.55909472  0.91600344  0.68815689  1
  O  O311  1  0.55571765  0.91613221  0.93617862  1
  O  O312  1  0.44096071  0.08322458  0.06220544  1
  O  O313  1  0.44214526  0.08396567  0.31223683  1
  O  O314  1  0.44389938  0.08328832  0.56390144  1
  O  O315  1  0.44132042  0.08296577  0.81236886  1
  O  O316  1  0.43984382  0.41710447  0.06276695  1
  O  O317  1  0.44112433  0.41652188  0.31277393  1
  O  O318  1  0.44217029  0.41695483  0.56191329  1
  O  O319  1  0.44364241  0.41698414  0.81354135  1
  O  O320  1  0.44021039  0.74987554  0.06167257  1
  O  O321  1  0.44445845  0.74966691  0.31376791  1
  O  O322  1  0.44338289  0.74977477  0.56330254  1
  O  O323  1  0.44375869  0.74959169  0.81320098  1
  O  O324  1  0.94333592  0.08381622  0.06327669  1
  O  O325  1  0.94272714  0.08360524  0.31313460  1
  O  O326  1  0.94416793  0.08312489  0.56335925  1
  O  O327  1  0.94402484  0.08289754  0.81392724  1
  O  O328  1  0.94382604  0.41595836  0.06298531  1
  O  O329  1  0.94351486  0.41619851  0.31378409  1
  O  O330  1  0.94178059  0.41650596  0.56241646  1
  O  O331  1  0.94127075  0.41679364  0.81185917  1
  O  O332  1  0.94385776  0.75035757  0.06365153  1
  O  O333  1  0.94120855  0.75015894  0.31201818  1
  O  O334  1  0.94405591  0.75025426  0.56374967  1
  O  O335  1  0.94181282  0.75024630  0.81205797  1
  O  O336  1  0.19461222  0.08338726  0.06161448  1
  O  O337  1  0.19506063  0.08421967  0.31167411  1
  O  O338  1  0.19041994  0.08332036  0.56297828  1
  O  O339  1  0.19206615  0.08372347  0.81194798  1
  O  O340  1  0.19489714  0.41699758  0.06179383  1
  O  O341  1  0.19209734  0.41680414  0.31293687  1
  O  O342  1  0.18994526  0.41708522  0.56260425  1
  O  O343  1  0.19309036  0.41682837  0.81070498  1
  O  O344  1  0.19418519  0.74951771  0.06126975  1
  O  O345  1  0.19389217  0.74950409  0.31201185  1
  O  O346  1  0.19019376  0.74945715  0.56353551  1
  O  O347  1  0.19064628  0.74958207  0.81174631  1
  O  O348  1  0.68950456  0.08332379  0.06217529  1
  O  O349  1  0.68939398  0.08280240  0.31221688  1
  O  O350  1  0.69066510  0.08350013  0.56238668  1
  O  O351  1  0.68965428  0.08389762  0.81272532  1
  O  O352  1  0.69316781  0.41657258  0.06160213  1
  O  O353  1  0.69067218  0.41727721  0.31290865  1
  O  O354  1  0.69184131  0.41724866  0.56200052  1
  O  O355  1  0.69322464  0.41731327  0.81111359  1
  O  O356  1  0.69305006  0.74961677  0.06072084  1
  O  O357  1  0.69096719  0.74960505  0.31255350  1
  O  O358  1  0.69338112  0.74928685  0.56086118  1
  O  O359  1  0.69189434  0.74904140  0.81300393  1
  O  O360  1  0.30833320  0.24968549  0.18753510  1
  O  O361  1  0.30666446  0.25089020  0.43823316  1
  O  O362  1  0.30700392  0.24990745  0.68859243  1
  O  O363  1  0.30980751  0.24999199  0.93731572  1
  O  O364  1  0.30638229  0.58354144  0.18974376  1
  O  O365  1  0.30922487  0.58333627  0.43803761  1
  O  O366  1  0.30943757  0.58321962  0.68729185  1
  O  O367  1  0.30801164  0.58377884  0.93647934  1
  O  O368  1  0.30941121  0.91680465  0.18826598  1
  O  O369  1  0.30892615  0.91627092  0.43753839  1
  O  O370  1  0.30610656  0.91667209  0.68787145  1
  O  O371  1  0.30646447  0.91651218  0.93801201  1
  O  O372  1  0.80745240  0.24972422  0.18756791  1
  O  O373  1  0.80640313  0.24982508  0.43886869  1
  O  O374  1  0.80936813  0.24959472  0.68692256  1
  O  O375  1  0.80591899  0.24941843  0.93921860  1
  O  O376  1  0.80944986  0.58292349  0.18766062  1
  O  O377  1  0.80962442  0.58274853  0.43766113  1
  O  O378  1  0.80975045  0.58379006  0.68711195  1
  O  O379  1  0.80928218  0.58342204  0.93770351  1
  O  O380  1  0.80590705  0.91687759  0.18826686  1
  O  O381  1  0.80667576  0.91708244  0.43969242  1
  O  O382  1  0.80931209  0.91683049  0.68732751  1
  O  O383  1  0.80570823  0.91739182  0.93823640  1
  O  O384  1  0.23625426  0.24998737  0.03874141  1
  O  O385  1  0.23391072  0.25034296  0.28881160  1
  O  O386  1  0.23355476  0.25066133  0.53999209  1
  O  O387  1  0.23498107  0.25007485  0.79101769  1
  O  O388  1  0.23315887  0.58377094  0.03761672  1
  O  O389  1  0.23423931  0.58288350  0.29194031  1
  O  O390  1  0.23366922  0.58288351  0.53802245  1
  O  O391  1  0.23502997  0.58303563  0.78772149  1
  O  O392  1  0.23314885  0.91641082  0.03978369  1
  O  O393  1  0.23586110  0.91710751  0.28953754  1
  O  O394  1  0.23284010  0.91630277  0.53746230  1
  O  O395  1  0.23344295  0.91743621  0.78972351  1
  O  O396  1  0.73151584  0.24990044  0.04002103  1
  O  O397  1  0.73183674  0.24974319  0.28777386  1
  O  O398  1  0.73443152  0.25056467  0.54122651  1
  O  O399  1  0.73435389  0.25051595  0.78734238  1
  O  O400  1  0.73511301  0.58329231  0.03873907  1
  O  O401  1  0.73565636  0.58305286  0.28888743  1
  O  O402  1  0.73569011  0.58360476  0.53861573  1
  O  O403  1  0.73466177  0.58308331  0.78759434  1
  O  O404  1  0.73244108  0.91647908  0.04001822  1
  O  O405  1  0.73295143  0.91662249  0.29019950  1
  O  O406  1  0.73396955  0.91612983  0.54140915  1
  O  O407  1  0.73339488  0.91639625  0.78718371  1
  O  O408  1  0.26894903  0.08379351  0.21035532  1
  O  O409  1  0.26521414  0.08370346  0.46230293  1
  O  O410  1  0.26681318  0.08331340  0.71127127  1
  O  O411  1  0.26860793  0.08317069  0.96081673  1
  O  O412  1  0.26735301  0.41665493  0.21254448  1
  O  O413  1  0.26588618  0.41723659  0.46282879  1
  O  O414  1  0.26592832  0.41673813  0.70916524  1
  O  O415  1  0.26841731  0.41707344  0.96027581  1
  O  O416  1  0.26714152  0.74968336  0.21047609  1
  O  O417  1  0.26454071  0.74957835  0.46251242  1
  O  O418  1  0.26472824  0.74976044  0.71088077  1
  O  O419  1  0.26730239  0.75003222  0.95933280  1
  O  O420  1  0.76324711  0.08334724  0.21115963  1
  O  O421  1  0.76471257  0.08372039  0.46141270  1
  O  O422  1  0.76450352  0.08331034  0.71230260  1
  O  O423  1  0.76358584  0.08379385  0.96076364  1
  O  O424  1  0.76489417  0.41661587  0.21200690  1
  O  O425  1  0.76703005  0.41615515  0.46173564  1
  O  O426  1  0.76753603  0.41781334  0.71036898  1
  O  O427  1  0.76620151  0.41581022  0.95969617  1
  O  O428  1  0.76671935  0.74962044  0.21240420  1
  O  O429  1  0.76645432  0.74973048  0.45966194  1
  O  O430  1  0.76729700  0.74925390  0.71254476  1
  O  O431  1  0.76591123  0.75002845  0.95893616  1
  O  O432  1  0.01630586  0.08355487  0.16517016  1
  O  O433  1  0.01648721  0.08421021  0.41429302  1
  O  O434  1  0.01797448  0.08288929  0.66473634  1
  O  O435  1  0.01867006  0.08345005  0.91473732  1
  O  O436  1  0.01602914  0.41694083  0.16539538  1
  O  O437  1  0.01709645  0.41645562  0.41517908  1
  O  O438  1  0.01621948  0.41717788  0.66326386  1
  O  O439  1  0.01518782  0.41685939  0.91320004  1
  O  O440  1  0.01582918  0.74945112  0.16616818  1
  O  O441  1  0.01513123  0.74944292  0.41314577  1
  O  O442  1  0.01734542  0.74995644  0.66522259  1
  O  O443  1  0.01716347  0.74979977  0.91241644  1
  O  O444  1  0.51535467  0.08356421  0.16299225  1
  O  O445  1  0.51715304  0.08318059  0.41257948  1
  O  O446  1  0.51754243  0.08402016  0.66514844  1
  O  O447  1  0.51601599  0.08290854  0.91279679  1
  O  O448  1  0.51393115  0.41668169  0.16348891  1
  O  O449  1  0.51638814  0.41704468  0.41285724  1
  O  O450  1  0.51729497  0.41696212  0.66272768  1
  O  O451  1  0.51541669  0.41694393  0.91614544  1
  O  O452  1  0.51455389  0.75024974  0.16275480  1
  O  O453  1  0.51778919  0.74961246  0.41565487  1
  O  O454  1  0.51653576  0.74889594  0.66478908  1
  O  O455  1  0.51737723  0.74991973  0.91453349  1
  O  O456  1  0.48280356  0.24927483  0.08719389  1
  O  O457  1  0.48440759  0.25038490  0.33439681  1
  O  O458  1  0.48411789  0.25011550  0.58376281  1
  O  O459  1  0.48262774  0.25041112  0.83741362  1
  O  O460  1  0.48294688  0.58336598  0.08545991  1
  O  O461  1  0.48206956  0.58330401  0.33537373  1
  O  O462  1  0.48394854  0.58291165  0.58745334  1
  O  O463  1  0.48284701  0.58296241  0.83494751  1
  O  O464  1  0.48102709  0.91752869  0.08487303  1
  O  O465  1  0.48206363  0.91628139  0.33536103  1
  O  O466  1  0.48491546  0.91694786  0.58697652  1
  O  O467  1  0.48437159  0.91611500  0.83359725  1
  O  O468  1  0.98335453  0.25021771  0.08744302  1
  O  O469  1  0.98453122  0.25069585  0.33390853  1
  O  O470  1  0.98214187  0.25008935  0.58581976  1
  O  O471  1  0.98409066  0.24954092  0.83534304  1
  O  O472  1  0.98268864  0.58338532  0.08516551  1
  O  O473  1  0.98315429  0.58218615  0.33755422  1
  O  O474  1  0.98233550  0.58340813  0.58554046  1
  O  O475  1  0.98357575  0.58365951  0.83732962  1
  O  O476  1  0.98467680  0.91664652  0.08444458  1
  O  O477  1  0.98459344  0.91657789  0.33660577  1
  O  O478  1  0.98263159  0.91654356  0.58494208  1
  O  O479  1  0.98574469  0.91664237  0.83759337  1
  O  O480  1  0.08693405  0.31549328  0.07731577  1
  O  O481  1  0.08813804  0.31699912  0.32723901  1
  O  O482  1  0.08585844  0.31527177  0.57781749  1
  O  O483  1  0.08786227  0.31425517  0.82753438  1
  O  O484  1  0.08696376  0.64806003  0.07662099  1
  O  O485  1  0.08675950  0.64670464  0.32746788  1
  O  O486  1  0.08631121  0.64855410  0.57723228  1
  O  O487  1  0.08714166  0.64898124  0.82791715  1
  O  O488  1  0.08901703  0.98141795  0.07706628  1
  O  O489  1  0.08807023  0.98186645  0.32748048  1
  O  O490  1  0.08704969  0.98136548  0.57724143  1
  O  O491  1  0.08907188  0.98215298  0.82882607  1
  O  O492  1  0.58651564  0.31417737  0.07677114  1
  O  O493  1  0.58817304  0.31575680  0.32710164  1
  O  O494  1  0.58781713  0.31551420  0.57803276  1
  O  O495  1  0.58653099  0.31476618  0.82781056  1
  O  O496  1  0.58686015  0.64820910  0.07738256  1
  O  O497  1  0.58587077  0.64858106  0.32760389  1
  O  O498  1  0.58787460  0.64710850  0.57757575  1
  O  O499  1  0.58651223  0.64933081  0.82676573  1
  O  O500  1  0.58477759  0.98277322  0.07746369  1
  O  O501  1  0.58590433  0.98103406  0.32745230  1
  O  O502  1  0.58809629  0.98278923  0.57897663  1
  O  O503  1  0.58850373  0.98112719  0.82744261  1
  O  O504  1  0.41159525  0.01839933  0.17214640  1
  O  O505  1  0.41363232  0.01763711  0.42204471  1
  O  O506  1  0.41368563  0.01852460  0.67362138  1
  O  O507  1  0.41197552  0.01866442  0.92252936  1
  O  O508  1  0.41090617  0.35022571  0.17231291  1
  O  O509  1  0.41230522  0.35265930  0.42321984  1
  O  O510  1  0.41354667  0.35246266  0.67195326  1
  O  O511  1  0.41123171  0.35235887  0.92259306  1
  O  O512  1  0.41092233  0.68587437  0.17196621  1
  O  O513  1  0.41374330  0.68464970  0.42295269  1
  O  O514  1  0.41261106  0.68388653  0.67207847  1
  O  O515  1  0.41373819  0.68351527  0.92241172  1
  O  O516  1  0.91220609  0.01920662  0.17239603  1
  O  O517  1  0.91288750  0.01883187  0.42284494  1
  O  O518  1  0.91419374  0.01776939  0.67287727  1
  O  O519  1  0.91481495  0.01812745  0.92358017  1
  O  O520  1  0.91235072  0.35123923  0.17232800  1
  O  O521  1  0.91281843  0.35193191  0.42328114  1
  O  O522  1  0.91237451  0.35180817  0.67249786  1
  O  O523  1  0.91149679  0.35232881  0.92182471  1
  O  O524  1  0.91191994  0.68398077  0.17213793  1
  O  O525  1  0.91186386  0.68384142  0.42142683  1
  O  O526  1  0.91315615  0.68511913  0.67302795  1
  O  O527  1  0.91354106  0.68440746  0.92171866  1
  O  O528  1  0.16483718  0.01970464  0.20229405  1
  O  O529  1  0.16218481  0.01746436  0.45307772  1
  O  O530  1  0.16253929  0.01899076  0.70195769  1
  O  O531  1  0.16476311  0.01750125  0.95225165  1
  O  O532  1  0.16413441  0.35075667  0.20288167  1
  O  O533  1  0.16186593  0.35297270  0.45211784  1
  O  O534  1  0.16195465  0.35154710  0.70155123  1
  O  O535  1  0.16456600  0.35237012  0.95236805  1
  O  O536  1  0.16347466  0.68453525  0.20267975  1
  O  O537  1  0.16123635  0.68403902  0.45382833  1
  O  O538  1  0.16089302  0.68482338  0.70185115  1
  O  O539  1  0.16315036  0.68496905  0.95158608  1
  O  O540  1  0.65915833  0.01910630  0.20192758  1
  O  O541  1  0.66110745  0.01831378  0.45242836  1
  O  O542  1  0.66103566  0.01762487  0.70310467  1
  O  O543  1  0.65934716  0.01983018  0.95204293  1
  O  O544  1  0.66130026  0.35117475  0.20335629  1
  O  O545  1  0.66255670  0.35215847  0.45228461  1
  O  O546  1  0.66336579  0.35314007  0.70124889  1
  O  O547  1  0.66243013  0.35051993  0.95268812  1
  O  O548  1  0.66326274  0.68450186  0.20238179  1
  O  O549  1  0.66262798  0.68452371  0.45121940  1
  O  O550  1  0.66390162  0.68397454  0.70279295  1
  O  O551  1  0.66214167  0.68459536  0.95124747  1
  O  O552  1  0.33988312  0.31512870  0.04709061  1
  O  O553  1  0.33762160  0.31506760  0.29726231  1
  O  O554  1  0.33698273  0.31667029  0.54730053  1
  O  O555  1  0.33953138  0.31376600  0.79775664  1
  O  O556  1  0.33663298  0.64908941  0.04630974  1
  O  O557  1  0.33845379  0.64735400  0.29931234  1
  O  O558  1  0.33773745  0.64723781  0.54847494  1
  O  O559  1  0.33867601  0.64812912  0.79750867  1
  O  O560  1  0.33732449  0.98120086  0.04754260  1
  O  O561  1  0.33927646  0.98319295  0.29754730  1
  O  O562  1  0.33644036  0.98156107  0.54756038  1
  O  O563  1  0.33735063  0.98254504  0.79672772  1
  O  O564  1  0.83591712  0.31429449  0.04888542  1
  O  O565  1  0.83555735  0.31460009  0.29765021  1
  O  O566  1  0.83842899  0.31585752  0.54750400  1
  O  O567  1  0.83766119  0.31620795  0.79623181  1
  O  O568  1  0.83891237  0.64830371  0.04748508  1
  O  O569  1  0.83910670  0.64916487  0.29709592  1
  O  O570  1  0.84014442  0.64680121  0.54783586  1
  O  O571  1  0.83847238  0.64834556  0.79751253  1
  O  O572  1  0.83578698  0.98231814  0.04771101  1
  O  O573  1  0.83674771  0.98126367  0.29774829  1
  O  O574  1  0.83754204  0.98203255  0.54916603  1
  O  O575  1  0.83695663  0.98111296  0.79786586  1
  O  O576  1  0.41172517  0.14853174  0.17243528  1
  O  O577  1  0.41352491  0.14782040  0.42260224  1
  O  O578  1  0.41320076  0.14842316  0.67316862  1
  O  O579  1  0.41258108  0.14871254  0.92237838  1
  O  O580  1  0.40963035  0.48037292  0.17304766  1
  O  O581  1  0.41263119  0.48260682  0.42268696  1
  O  O582  1  0.41375593  0.48249721  0.67178946  1
  O  O583  1  0.41167687  0.48256605  0.92237540  1
  O  O584  1  0.41135708  0.81614227  0.17108723  1
  O  O585  1  0.41386512  0.81486986  0.42303116  1
  O  O586  1  0.41296981  0.81415052  0.67284715  1
  O  O587  1  0.41263513  0.81352117  0.92268491  1
  O  O588  1  0.91269770  0.14958421  0.17235139  1
  O  O589  1  0.91263889  0.14897404  0.42237838  1
  O  O590  1  0.91399858  0.14801691  0.67284380  1
  O  O591  1  0.91447297  0.14814307  0.92325520  1
  O  O592  1  0.91208227  0.48156937  0.17166040  1
  O  O593  1  0.91304240  0.48182472  0.42311160  1
  O  O594  1  0.91230775  0.48197215  0.67214693  1
  O  O595  1  0.91179477  0.48259784  0.92122157  1
  O  O596  1  0.91157206  0.81416004  0.17302838  1
  O  O597  1  0.91153775  0.81402862  0.42226447  1
  O  O598  1  0.91337558  0.81528066  0.67332319  1
  O  O599  1  0.91355605  0.81453424  0.92242063  1
  O  O600  1  0.08733468  0.18542152  0.07751052  1
  O  O601  1  0.08920726  0.18696949  0.32619784  1
  O  O602  1  0.08602989  0.18505265  0.57796940  1
  O  O603  1  0.08784872  0.18395483  0.82819319  1
  O  O604  1  0.08662547  0.51811266  0.07623833  1
  O  O605  1  0.08654741  0.51659474  0.32823405  1
  O  O606  1  0.08654237  0.51851606  0.57702247  1
  O  O607  1  0.08713370  0.51883674  0.82750999  1
  O  O608  1  0.08860208  0.85144073  0.07706035  1
  O  O609  1  0.08830269  0.85170135  0.32759706  1
  O  O610  1  0.08651727  0.85117567  0.57726602  1
  O  O611  1  0.08923859  0.85172726  0.82874355  1
  O  O612  1  0.58657338  0.18416710  0.07772875  1
  O  O613  1  0.58833491  0.18546757  0.32727707  1
  O  O614  1  0.58794641  0.18518903  0.57851193  1
  O  O615  1  0.58612626  0.18475564  0.82837165  1
  O  O616  1  0.58650948  0.51812450  0.07707196  1
  O  O617  1  0.58594988  0.51827739  0.32746640  1
  O  O618  1  0.58722386  0.51701690  0.57759214  1
  O  O619  1  0.58752525  0.51933199  0.82646396  1
  O  O620  1  0.58498969  0.85266177  0.07703312  1
  O  O621  1  0.58560882  0.85067535  0.32748391  1
  O  O622  1  0.58858237  0.85236395  0.57805740  1
  O  O623  1  0.58849479  0.85093964  0.82729852  1
  O  O624  1  0.33997974  0.18484190  0.04695132  1
  O  O625  1  0.33742292  0.18483017  0.29748872  1
  O  O626  1  0.33760251  0.18636486  0.54739727  1
  O  O627  1  0.33842767  0.18362512  0.79732073  1
  O  O628  1  0.33683761  0.51888994  0.04659046  1
  O  O629  1  0.33811265  0.51734247  0.29849226  1
  O  O630  1  0.33745274  0.51720624  0.54779200  1
  O  O631  1  0.33889907  0.51823577  0.79715246  1
  O  O632  1  0.33695010  0.85099226  0.04713570  1
  O  O633  1  0.33991828  0.85299726  0.29854290  1
  O  O634  1  0.33648462  0.85139791  0.54778277  1
  O  O635  1  0.33699732  0.85242793  0.79741755  1
  O  O636  1  0.83531163  0.18438801  0.04896119  1
  O  O637  1  0.83528098  0.18452808  0.29768572  1
  O  O638  1  0.83842150  0.18580705  0.54849980  1
  O  O639  1  0.83778262  0.18577718  0.79752259  1
  O  O640  1  0.83885348  0.51830741  0.04760697  1
  O  O641  1  0.83978204  0.51907922  0.29784986  1
  O  O642  1  0.83867324  0.51673333  0.54726032  1
  O  O643  1  0.83856737  0.51822260  0.79689149  1
  O  O644  1  0.83664788  0.85216311  0.04714143  1
  O  O645  1  0.83666781  0.85099647  0.29724044  1
  O  O646  1  0.83837760  0.85200365  0.54880024  1
  O  O647  1  0.83693217  0.85084710  0.79721019  1
  O  O648  1  0.16550125  0.14986356  0.20213508  1
  O  O649  1  0.16144402  0.14791896  0.45313153  1
  O  O650  1  0.16317170  0.14883331  0.70195191  1
  O  O651  1  0.16440155  0.14756147  0.95174279  1
  O  O652  1  0.16357227  0.48096534  0.20268409  1
  O  O653  1  0.16239777  0.48305918  0.45253667  1
  O  O654  1  0.16174385  0.48145551  0.70125922  1
  O  O655  1  0.16459048  0.48253867  0.95243515  1
  O  O656  1  0.16351816  0.81476235  0.20272359  1
  O  O657  1  0.16100012  0.81457651  0.45369302  1
  O  O658  1  0.16089553  0.81475582  0.70203857  1
  O  O659  1  0.16323565  0.81504519  0.95223869  1
  O  O660  1  0.65968743  0.14913764  0.20276937  1
  O  O661  1  0.66072792  0.14828067  0.45258780  1
  O  O662  1  0.66061135  0.14784457  0.70239941  1
  O  O663  1  0.66019237  0.15001164  0.95292308  1
  O  O664  1  0.66138735  0.48133918  0.20268054  1
  O  O665  1  0.66361207  0.48201678  0.45161761  1
  O  O666  1  0.66367992  0.48320859  0.70163609  1
  O  O667  1  0.66269582  0.48080802  0.95199221  1
  O  O668  1  0.66302747  0.81461644  0.20237377  1
  O  O669  1  0.66225696  0.81443437  0.45158386  1
  O  O670  1  0.66357625  0.81424468  0.70305060  1
  O  O671  1  0.66153992  0.81453156  0.95157830  1
