# generated using pymatgen
data_Na2MnFe(PO4)2
_symmetry_space_group_name_H-M   'P 1'
_cell_length_a   21.08080205
_cell_length_b   18.93227776
_cell_length_c   20.04034227
_cell_angle_alpha   89.99931796
_cell_angle_beta   89.99666142
_cell_angle_gamma   89.99960990
_symmetry_Int_Tables_number   1
_chemical_formula_structural   Na2MnFe(PO4)2
_chemical_formula_sum   'Na96 Mn48 Fe48 P96 O384'
_cell_volume   7998.25288619
_cell_formula_units_Z   48
loop_
 _symmetry_equiv_pos_site_id
 _symmetry_equiv_pos_as_xyz
  1  'x, y, z'
loop_
 _atom_site_type_symbol
 _atom_site_label
 _atom_site_symmetry_multiplicity
 _atom_site_fract_x
 _atom_site_fract_y
 _atom_site_fract_z
 _atom_site_occupancy
  Na  Na0  1  -0.00164449  -0.00067794  0.00020389  1
  Na  Na1  1  0.00111289  0.00116008  0.24953465  1
  Na  Na2  1  -0.00013716  -0.00041483  0.49960143  1
  Na  Na3  1  -0.00095190  -0.00085379  0.75102636  1
  Na  Na4  1  0.00252596  0.33443956  0.00011000  1
  Na  Na5  1  -0.00076639  0.33312234  0.25055808  1
  Na  Na6  1  0.00005824  0.33301489  0.49948260  1
  Na  Na7  1  0.00166692  0.33327859  0.74996013  1
  Na  Na8  1  0.00088615  0.66593100  0.00081538  1
  Na  Na9  1  0.00189522  0.66640103  0.25017493  1
  Na  Na10  1  0.00279286  0.66751846  0.49958439  1
  Na  Na11  1  0.00105197  0.66637340  0.74955823  1
  Na  Na12  1  0.50003069  0.00029763  0.00026419  1
  Na  Na13  1  0.49969295  0.00031789  0.24920965  1
  Na  Na14  1  0.49902613  -0.00018539  0.49945379  1
  Na  Na15  1  0.50094965  0.00093139  0.75071871  1
  Na  Na16  1  0.50092581  0.33356745  0.00072080  1
  Na  Na17  1  0.49912704  0.33299950  0.24946745  1
  Na  Na18  1  0.49857131  0.33251493  0.49941655  1
  Na  Na19  1  0.50154841  0.33371314  0.75000394  1
  Na  Na20  1  0.49992868  0.66613728  0.00002751  1
  Na  Na21  1  0.50027401  0.66603924  0.24899419  1
  Na  Na22  1  0.49860516  0.66651379  0.50023805  1
  Na  Na23  1  0.49779478  0.66639875  0.75098736  1
  Na  Na24  1  0.24751545  -0.00009210  0.12558164  1
  Na  Na25  1  0.24730098  -0.00028911  0.37470116  1
  Na  Na26  1  0.24987893  0.00015544  0.62508231  1
  Na  Na27  1  0.24854681  -0.00039598  0.87509027  1
  Na  Na28  1  0.25024564  0.33385490  0.12443575  1
  Na  Na29  1  0.25179731  0.33346480  0.37436525  1
  Na  Na30  1  0.25013356  0.33295634  0.62550473  1
  Na  Na31  1  0.24698330  0.33202327  0.87547264  1
  Na  Na32  1  0.24947029  0.66586623  0.12513461  1
  Na  Na33  1  0.24882439  0.66578851  0.37484350  1
  Na  Na34  1  0.24960903  0.66649388  0.62527955  1
  Na  Na35  1  0.25044028  0.66676305  0.87453409  1
  Na  Na36  1  0.75299661  0.00085422  0.12434837  1
  Na  Na37  1  0.75081797  -0.00010136  0.37544912  1
  Na  Na38  1  0.75065141  0.00013432  0.62602540  1
  Na  Na39  1  0.75160087  0.00009805  0.87412826  1
  Na  Na40  1  0.74901095  0.33266596  0.12384443  1
  Na  Na41  1  0.75110782  0.33372197  0.37534651  1
  Na  Na42  1  0.74986045  0.33339736  0.62505804  1
  Na  Na43  1  0.74815970  0.33292843  0.87598397  1
  Na  Na44  1  0.74953271  0.66586627  0.12493575  1
  Na  Na45  1  0.74900957  0.66596172  0.37377250  1
  Na  Na46  1  0.75098120  0.66747888  0.62601418  1
  Na  Na47  1  0.74934727  0.66581715  0.87512769  1
  Na  Na48  1  -0.00052917  0.16729200  -0.00005211  1
  Na  Na49  1  0.00052535  0.16663131  0.24945972  1
  Na  Na50  1  0.00189152  0.16638531  0.49973195  1
  Na  Na51  1  0.00032586  0.16750407  0.75017759  1
  Na  Na52  1  0.00072736  0.50008359  0.00054147  1
  Na  Na53  1  0.00071911  0.50018476  0.25090527  1
  Na  Na54  1  0.00125005  0.49972447  0.49846223  1
  Na  Na55  1  0.00030691  0.50033403  0.75040104  1
  Na  Na56  1  0.00057953  0.83361804  0.00048115  1
  Na  Na57  1  0.00014184  0.83333618  0.24974500  1
  Na  Na58  1  0.00050066  0.83300624  0.50047363  1
  Na  Na59  1  0.00116126  0.83303424  0.74991284  1
  Na  Na60  1  0.49905452  0.16716978  0.00142268  1
  Na  Na61  1  0.49851509  0.16727924  0.24876743  1
  Na  Na62  1  0.49956521  0.16689085  0.50018579  1
  Na  Na63  1  0.50176185  0.16607420  0.75022830  1
  Na  Na64  1  0.50146486  0.49972438  0.00045160  1
  Na  Na65  1  0.49975731  0.50045291  0.24964303  1
  Na  Na66  1  0.49789583  0.50068161  0.49896539  1
  Na  Na67  1  0.49830386  0.50103762  0.75045088  1
  Na  Na68  1  0.50101987  0.83242092  -0.00063269  1
  Na  Na69  1  0.50143111  0.83221192  0.24930491  1
  Na  Na70  1  0.49895366  0.83336865  0.50015797  1
  Na  Na71  1  0.49828452  0.83410191  0.75030922  1
  Na  Na72  1  0.24944356  0.16682802  0.12608376  1
  Na  Na73  1  0.24983044  0.16742982  0.37370105  1
  Na  Na74  1  0.24885492  0.16763851  0.62462198  1
  Na  Na75  1  0.24947532  0.16667825  0.87537790  1
  Na  Na76  1  0.24949085  0.50094277  0.12397413  1
  Na  Na77  1  0.25053256  0.50061688  0.37454465  1
  Na  Na78  1  0.25048249  0.50014798  0.62577101  1
  Na  Na79  1  0.24958207  0.50037839  0.87536255  1
  Na  Na80  1  0.24746674  0.83338466  0.12525219  1
  Na  Na81  1  0.24745223  0.83383750  0.37599880  1
  Na  Na82  1  0.25040460  0.83259495  0.62544397  1
  Na  Na83  1  0.24684684  0.83416975  0.87429493  1
  Na  Na84  1  0.75132139  0.16675265  0.12408620  1
  Na  Na85  1  0.75092702  0.16638240  0.37623292  1
  Na  Na86  1  0.74824676  0.16744377  0.62502592  1
  Na  Na87  1  0.75040877  0.16619261  0.87468617  1
  Na  Na88  1  0.74888551  0.50039289  0.12400179  1
  Na  Na89  1  0.74945185  0.50032480  0.37441152  1
  Na  Na90  1  0.75030753  0.50018491  0.62617185  1
  Na  Na91  1  0.75012532  0.49969957  0.87592149  1
  Na  Na92  1  0.75151625  0.83305211  0.12501542  1
  Na  Na93  1  0.75031111  0.83354558  0.37381438  1
  Na  Na94  1  0.75181428  0.83221992  0.62608628  1
  Na  Na95  1  0.74980810  0.83380057  0.87448013  1
  Mn  Mn96  1  0.89269334  0.24979754  0.62748736  1
  Mn  Mn97  1  0.10804625  0.08295611  0.62264660  1
  Mn  Mn98  1  0.60802322  0.74964441  0.12226691  1
  Mn  Mn99  1  0.89281845  0.91655921  0.37742785  1
  Mn  Mn100  1  0.14179687  0.91712146  0.49781455  1
  Mn  Mn101  1  0.85884879  0.74930342  0.75301733  1
  Mn  Mn102  1  0.85797090  0.41651543  0.00237946  1
  Mn  Mn103  1  0.85788114  0.74933256  0.25250414  1
  Mn  Mn104  1  0.85806296  0.41769383  0.50240436  1
  Mn  Mn105  1  0.64212572  0.91589830  0.49852490  1
  Mn  Mn106  1  0.10730250  0.08348128  0.87293819  1
  Mn  Mn107  1  0.85819810  0.75001151  0.00154982  1
  Mn  Mn108  1  0.89265100  0.25074459  0.12768376  1
  Mn  Mn109  1  0.85755941  0.08408942  0.75203014  1
  Mn  Mn110  1  0.64280465  0.91760210  0.24737480  1
  Mn  Mn111  1  0.85798186  0.41625430  0.75263995  1
  Mn  Mn112  1  0.10859527  0.41719149  0.62226404  1
  Mn  Mn113  1  0.39175309  0.91688585  0.87782554  1
  Mn  Mn114  1  0.60686817  0.41683687  0.62257726  1
  Mn  Mn115  1  0.60692274  0.75043990  0.62266615  1
  Mn  Mn116  1  0.60795760  0.08305051  0.37208681  1
  Mn  Mn117  1  0.35733683  0.75020087  0.50183193  1
  Mn  Mn118  1  0.60819826  0.08351735  0.12286201  1
  Mn  Mn119  1  0.14246230  0.25082034  0.24741500  1
  Mn  Mn120  1  0.64228556  0.91688889  0.74768450  1
  Mn  Mn121  1  0.35735319  0.41614962  0.00216692  1
  Mn  Mn122  1  0.64320784  0.91647999  0.99787898  1
  Mn  Mn123  1  0.35724882  0.08333460  0.50185281  1
  Mn  Mn124  1  0.14244381  0.58344201  0.74803668  1
  Mn  Mn125  1  0.64139708  0.58415712  0.49824672  1
  Mn  Mn126  1  0.39099674  0.91620526  0.12707351  1
  Mn  Mn127  1  0.60740427  0.41694626  0.37203454  1
  Mn  Mn128  1  0.35785788  0.08294452  0.75260078  1
  Mn  Mn129  1  0.39239069  0.25036004  0.87727120  1
  Mn  Mn130  1  0.35770486  0.41651091  0.75308231  1
  Mn  Mn131  1  0.10766520  0.74970416  0.12236539  1
  Mn  Mn132  1  0.10829289  0.41658089  0.37193500  1
  Mn  Mn133  1  0.35661603  0.08303460  0.25216477  1
  Mn  Mn134  1  0.35772860  0.41654938  0.50205313  1
  Mn  Mn135  1  0.64170624  0.25028735  0.49752445  1
  Mn  Mn136  1  0.89302832  0.58350308  0.62661894  1
  Mn  Mn137  1  0.85830144  0.08266590  0.50279774  1
  Mn  Mn138  1  0.35719129  0.75007885  0.25246044  1
  Mn  Mn139  1  0.35682986  0.75089771  0.00178319  1
  Mn  Mn140  1  0.39160073  0.91636917  0.37667721  1
  Mn  Mn141  1  0.64179237  0.58294439  0.74797303  1
  Mn  Mn142  1  0.89246159  0.58349484  0.37703168  1
  Mn  Mn143  1  0.64214248  0.24958856  0.99744889  1
  Fe  Fe144  1  0.39147964  0.58371531  0.62696278  1
  Fe  Fe145  1  0.39227797  0.25071680  0.12653230  1
  Fe  Fe146  1  0.35667398  0.08313896  0.00161683  1
  Fe  Fe147  1  0.39187199  0.91695459  0.62708319  1
  Fe  Fe148  1  0.10791515  0.41641469  0.12385003  1
  Fe  Fe149  1  0.14305837  0.25067793  0.49767945  1
  Fe  Fe150  1  0.39275300  0.24999378  0.37648890  1
  Fe  Fe151  1  0.14269617  0.24983713  0.99846435  1
  Fe  Fe152  1  0.14141845  0.91615541  0.24809704  1
  Fe  Fe153  1  0.60768145  0.74990377  0.37378645  1
  Fe  Fe154  1  0.64232376  0.58245053  0.24792284  1
  Fe  Fe155  1  0.10693805  0.08332680  0.37291159  1
  Fe  Fe156  1  0.10725403  0.74937343  0.87332322  1
  Fe  Fe157  1  0.14232294  0.24942587  0.74818442  1
  Fe  Fe158  1  0.14219602  0.91696492  0.74793317  1
  Fe  Fe159  1  0.39267156  0.58355024  0.37611043  1
  Fe  Fe160  1  0.89336180  0.58315186  0.87711107  1
  Fe  Fe161  1  0.64300290  0.25013580  0.24893820  1
  Fe  Fe162  1  0.89298521  0.25046755  0.87645757  1
  Fe  Fe163  1  0.85806211  0.74972951  0.50129904  1
  Fe  Fe164  1  0.85704247  0.41618030  0.25067911  1
  Fe  Fe165  1  0.39239935  0.24949064  0.62724255  1
  Fe  Fe166  1  0.10757421  0.75039357  0.37329641  1
  Fe  Fe167  1  0.64247916  0.24998250  0.74869842  1
  Fe  Fe168  1  0.39312613  0.58312377  0.87735556  1
  Fe  Fe169  1  0.35780461  0.41729250  0.25057466  1
  Fe  Fe170  1  0.10711785  0.41706873  0.87359542  1
  Fe  Fe171  1  0.89320760  0.91619411  0.62664947  1
  Fe  Fe172  1  0.14243326  0.58320910  0.99796276  1
  Fe  Fe173  1  0.14155588  0.91697377  0.99806306  1
  Fe  Fe174  1  0.10765812  0.74992395  0.62314436  1
  Fe  Fe175  1  0.14328566  0.58257299  0.49808885  1
  Fe  Fe176  1  0.14334325  0.58287573  0.24780972  1
  Fe  Fe177  1  0.85798309  0.08349742  0.00127426  1
  Fe  Fe178  1  0.89275491  0.24989642  0.37644846  1
  Fe  Fe179  1  0.64262133  0.58365240  0.99793793  1
  Fe  Fe180  1  0.60776403  0.08331087  0.87394678  1
  Fe  Fe181  1  0.60724092  0.41671648  0.87312452  1
  Fe  Fe182  1  0.85822244  0.08454456  0.25168359  1
  Fe  Fe183  1  0.89350749  0.91630193  0.87683606  1
  Fe  Fe184  1  0.89307798  0.58300442  0.12684137  1
  Fe  Fe185  1  0.89371137  0.91639422  0.12677469  1
  Fe  Fe186  1  0.60726730  0.41649255  0.12421556  1
  Fe  Fe187  1  0.10669037  0.08407551  0.12251790  1
  Fe  Fe188  1  0.60689321  0.75009515  0.87300456  1
  Fe  Fe189  1  0.35654226  0.75046079  0.75185687  1
  Fe  Fe190  1  0.39275133  0.58282164  0.12639948  1
  Fe  Fe191  1  0.60651720  0.08300173  0.62339613  1
  P  P192  1  0.05415715  0.25053681  0.10975878  1
  P  P193  1  0.05354716  0.24960849  0.36067010  1
  P  P194  1  0.05545349  0.25003312  0.60995478  1
  P  P195  1  0.05418042  0.25070294  0.86099861  1
  P  P196  1  0.05454279  0.58203024  0.11092787  1
  P  P197  1  0.05579250  0.58407714  0.36037260  1
  P  P198  1  0.05465174  0.58400355  0.60906462  1
  P  P199  1  0.05375229  0.58318977  0.86148386  1
  P  P200  1  0.05397230  0.91753972  0.11063579  1
  P  P201  1  0.05400647  0.91660554  0.35949728  1
  P  P202  1  0.05354847  0.91598150  0.61126857  1
  P  P203  1  0.05430230  0.91601572  0.86088382  1
  P  P204  1  0.55375288  0.25079324  0.11164733  1
  P  P205  1  0.55253459  0.24995941  0.35887027  1
  P  P206  1  0.55298295  0.24927792  0.61119785  1
  P  P207  1  0.55402261  0.24984619  0.86003644  1
  P  P208  1  0.55441125  0.58213547  0.11052975  1
  P  P209  1  0.55277373  0.58428382  0.35934619  1
  P  P210  1  0.55087906  0.58355980  0.61023464  1
  P  P211  1  0.55359038  0.58336692  0.86149298  1
  P  P212  1  0.55313239  0.91677154  0.10952424  1
  P  P213  1  0.55320258  0.91561776  0.35967850  1
  P  P214  1  0.55148785  0.91741236  0.61033936  1
  P  P215  1  0.55355770  0.91682346  0.86042226  1
  P  P216  1  0.44463090  0.08382172  0.13863393  1
  P  P217  1  0.44633893  0.08410737  0.38952214  1
  P  P218  1  0.44693717  0.08334623  0.64003266  1
  P  P219  1  0.44734023  0.08376589  0.89101536  1
  P  P220  1  0.44687274  0.41701997  0.13992886  1
  P  P221  1  0.44502117  0.41689519  0.38789240  1
  P  P222  1  0.44569110  0.41639897  0.64002191  1
  P  P223  1  0.44789591  0.41702861  0.89038439  1
  P  P224  1  0.44606541  0.74892294  0.13949719  1
  P  P225  1  0.44753821  0.74897534  0.38953739  1
  P  P226  1  0.44501029  0.75026989  0.64078319  1
  P  P227  1  0.44613513  0.74954243  0.88898103  1
  P  P228  1  0.94618352  0.08309635  0.13902566  1
  P  P229  1  0.94669625  0.08437547  0.38869210  1
  P  P230  1  0.94714917  0.08251321  0.64032646  1
  P  P231  1  0.94599949  0.08370802  0.89024834  1
  P  P232  1  0.94773841  0.41767341  0.14060978  1
  P  P233  1  0.94535466  0.41596591  0.38837165  1
  P  P234  1  0.94744402  0.41685384  0.64023837  1
  P  P235  1  0.94789899  0.41651538  0.89009832  1
  P  P236  1  0.94658071  0.74931570  0.13984964  1
  P  P237  1  0.94782682  0.74970933  0.39044890  1
  P  P238  1  0.94716439  0.75029131  0.63890920  1
  P  P239  1  0.94857857  0.74963763  0.89012029  1
  P  P240  1  0.19367264  0.08289455  0.23541502  1
  P  P241  1  0.19575632  0.08457632  0.48394794  1
  P  P242  1  0.19627951  0.08323755  0.73518656  1
  P  P243  1  0.19595175  0.08378958  0.98642433  1
  P  P244  1  0.19783293  0.41753604  0.23411283  1
  P  P245  1  0.19696065  0.41657553  0.48467191  1
  P  P246  1  0.19536338  0.41617516  0.73650610  1
  P  P247  1  0.19454501  0.41669556  0.98584498  1
  P  P248  1  0.19492336  0.74957749  0.23625089  1
  P  P249  1  0.19477629  0.74906367  0.48576190  1
  P  P250  1  0.19532260  0.75047501  0.73567441  1
  P  P251  1  0.19530307  0.74958854  0.98428649  1
  P  P252  1  0.69874384  0.08461824  0.23483908  1
  P  P253  1  0.69548200  0.08264007  0.48625109  1
  P  P254  1  0.69448796  0.08424055  0.73560808  1
  P  P255  1  0.69800699  0.08293380  0.98427565  1
  P  P256  1  0.69711606  0.41602700  0.23431702  1
  P  P257  1  0.69636856  0.41726456  0.48480527  1
  P  P258  1  0.69522031  0.41585920  0.73627735  1
  P  P259  1  0.69448835  0.41752808  0.98592919  1
  P  P260  1  0.69546214  0.74923844  0.23578024  1
  P  P261  1  0.69777676  0.75023180  0.48433358  1
  P  P262  1  0.69563495  0.74979970  0.73607953  1
  P  P263  1  0.69631205  0.74922247  0.98412059  1
  P  P264  1  0.30256779  0.24918323  0.01536176  1
  P  P265  1  0.30526692  0.25133493  0.26384544  1
  P  P266  1  0.30384073  0.24990134  0.51437359  1
  P  P267  1  0.30293157  0.24966687  0.76452652  1
  P  P268  1  0.30382201  0.58339690  0.01409566  1
  P  P269  1  0.30419767  0.58257327  0.26388883  1
  P  P270  1  0.30371690  0.58347548  0.51436821  1
  P  P271  1  0.30525317  0.58427742  0.76495772  1
  P  P272  1  0.30078232  0.91725391  0.01493351  1
  P  P273  1  0.30063591  0.91640163  0.26514419  1
  P  P274  1  0.30328255  0.91680658  0.51575468  1
  P  P275  1  0.30283594  0.91602075  0.76415041  1
  P  P276  1  0.80498363  0.24950615  0.01357350  1
  P  P277  1  0.80313158  0.25040742  0.26519528  1
  P  P278  1  0.80448560  0.25002901  0.51438158  1
  P  P279  1  0.80260752  0.25028857  0.76593022  1
  P  P280  1  0.80443198  0.58340060  0.01450589  1
  P  P281  1  0.80335852  0.58179621  0.26327392  1
  P  P282  1  0.80297171  0.58463559  0.51514618  1
  P  P283  1  0.80441063  0.58301727  0.76636985  1
  P  P284  1  0.80617857  0.91711766  0.01413256  1
  P  P285  1  0.80553117  0.91779488  0.26360962  1
  P  P286  1  0.80433404  0.91527391  0.51597633  1
  P  P287  1  0.80577679  0.91651880  0.76466247  1
  O  O288  1  0.05664918  0.25055180  0.18657117  1
  O  O289  1  0.05832242  0.25049332  0.43732322  1
  O  O290  1  0.05959073  0.24997279  0.68682286  1
  O  O291  1  0.05882171  0.24968322  0.93769119  1
  O  O292  1  0.05925072  0.58255908  0.18761597  1
  O  O293  1  0.05983248  0.58280097  0.43711199  1
  O  O294  1  0.05720441  0.58307858  0.68590104  1
  O  O295  1  0.05808302  0.58325789  0.93819072  1
  O  O296  1  0.05816068  0.91676261  0.18733659  1
  O  O297  1  0.05649610  0.91667640  0.43636493  1
  O  O298  1  0.05801320  0.91677115  0.68799569  1
  O  O299  1  0.05866130  0.91697930  0.93768267  1
  O  O300  1  0.55888996  0.24987437  0.18823793  1
  O  O301  1  0.55627530  0.25001289  0.43564412  1
  O  O302  1  0.55794843  0.25009792  0.68781237  1
  O  O303  1  0.55629543  0.24969959  0.93692680  1
  O  O304  1  0.55915239  0.58277786  0.18725651  1
  O  O305  1  0.55595399  0.58347209  0.43610327  1
  O  O306  1  0.55510795  0.58354096  0.68690478  1
  O  O307  1  0.55806118  0.58358347  0.93818575  1
  O  O308  1  0.55675077  0.91706995  0.18630171  1
  O  O309  1  0.55604966  0.91636654  0.43646055  1
  O  O310  1  0.55569437  0.91687883  0.68700016  1
  O  O311  1  0.55691801  0.91658657  0.93715395  1
  O  O312  1  0.44011330  0.08300074  0.06187558  1
  O  O313  1  0.44289523  0.08339220  0.31274159  1
  O  O314  1  0.44331743  0.08343517  0.56335337  1
  O  O315  1  0.44338372  0.08361819  0.81427674  1
  O  O316  1  0.44348147  0.41694351  0.06321957  1
  O  O317  1  0.44157505  0.41705534  0.31116214  1
  O  O318  1  0.44308086  0.41618739  0.56317637  1
  O  O319  1  0.44391343  0.41645761  0.81370608  1
  O  O320  1  0.44271748  0.74975235  0.06272063  1
  O  O321  1  0.44381462  0.74957205  0.31282803  1
  O  O322  1  0.44247710  0.75019540  0.56394492  1
  O  O323  1  0.44099281  0.75059548  0.81239070  1
  O  O324  1  0.94167632  0.08378539  0.06234761  1
  O  O325  1  0.94215652  0.08436958  0.31196181  1
  O  O326  1  0.94453675  0.08322617  0.56348343  1
  O  O327  1  0.94336689  0.08409921  0.81347000  1
  O  O328  1  0.94397776  0.41707413  0.06390189  1
  O  O329  1  0.94082445  0.41661144  0.31166250  1
  O  O330  1  0.94416186  0.41679789  0.56341448  1
  O  O331  1  0.94442415  0.41630670  0.81341481  1
  O  O332  1  0.94388704  0.74923212  0.06310764  1
  O  O333  1  0.94362574  0.74934156  0.31373616  1
  O  O334  1  0.94259789  0.74972588  0.56226159  1
  O  O335  1  0.94547834  0.74951998  0.81339371  1
  O  O336  1  0.19141639  0.08380941  0.06310888  1
  O  O337  1  0.18984451  0.08388686  0.31221517  1
  O  O338  1  0.19338324  0.08351746  0.56077368  1
  O  O339  1  0.19313666  0.08319117  0.81199250  1
  O  O340  1  0.19117879  0.41704234  0.06263367  1
  O  O341  1  0.19431308  0.41672486  0.31084004  1
  O  O342  1  0.19452580  0.41660117  0.56147328  1
  O  O343  1  0.19103312  0.41688468  0.81328907  1
  O  O344  1  0.19280419  0.74922183  0.06112895  1
  O  O345  1  0.19150733  0.74989505  0.31303328  1
  O  O346  1  0.19143058  0.74994396  0.56259642  1
  O  O347  1  0.19054529  0.74963162  0.81239777  1
  O  O348  1  0.69405040  0.08309867  0.06100717  1
  O  O349  1  0.69477159  0.08367210  0.31156811  1
  O  O350  1  0.69054445  0.08273971  0.56300101  1
  O  O351  1  0.69065121  0.08305644  0.81239373  1
  O  O352  1  0.69038886  0.41664392  0.06267076  1
  O  O353  1  0.69376969  0.41637210  0.31106805  1
  O  O354  1  0.69288699  0.41709844  0.56163472  1
  O  O355  1  0.69097169  0.41677693  0.81307956  1
  O  O356  1  0.69362859  0.74988858  0.06097437  1
  O  O357  1  0.69131128  0.74973605  0.31251696  1
  O  O358  1  0.69360608  0.75015459  0.56111185  1
  O  O359  1  0.69051305  0.74994625  0.81278812  1
  O  O360  1  0.30915436  0.25071557  0.18704466  1
  O  O361  1  0.30880923  0.24983409  0.43765070  1
  O  O362  1  0.30826178  0.24979452  0.68785520  1
  O  O363  1  0.30613846  0.24991706  0.93860621  1
  O  O364  1  0.30884428  0.58317822  0.18716475  1
  O  O365  1  0.30853310  0.58377728  0.43765702  1
  O  O366  1  0.30880893  0.58338368  0.68809139  1
  O  O367  1  0.30919538  0.58308002  0.93740445  1
  O  O368  1  0.30466441  0.91625325  0.18844296  1
  O  O369  1  0.30632395  0.91682899  0.43894321  1
  O  O370  1  0.30798826  0.91686560  0.68750434  1
  O  O371  1  0.30492922  0.91668442  0.93821129  1
  O  O372  1  0.80659186  0.25024302  0.18838742  1
  O  O373  1  0.80911179  0.24974302  0.43762807  1
  O  O374  1  0.80658932  0.25042897  0.68918145  1
  O  O375  1  0.80932355  0.25055122  0.93689487  1
  O  O376  1  0.80839164  0.58268032  0.18661653  1
  O  O377  1  0.80606874  0.58380818  0.43834421  1
  O  O378  1  0.80807694  0.58343949  0.68960843  1
  O  O379  1  0.80996812  0.58320178  0.93783437  1
  O  O380  1  0.80994397  0.91689088  0.18681259  1
  O  O381  1  0.80725670  0.91629379  0.43910576  1
  O  O382  1  0.81018160  0.91614396  0.68790767  1
  O  O383  1  0.81011535  0.91600373  0.93729637  1
  O  O384  1  0.23245107  0.25025711  0.03981372  1
  O  O385  1  0.23509046  0.25060062  0.28779890  1
  O  O386  1  0.23342105  0.25029500  0.53778525  1
  O  O387  1  0.23252610  0.24939415  0.78798804  1
  O  O388  1  0.23316386  0.58329739  0.03685526  1
  O  O389  1  0.23377612  0.58300160  0.28746688  1
  O  O390  1  0.23340405  0.58317289  0.53816658  1
  O  O391  1  0.23515765  0.58358847  0.78904025  1
  O  O392  1  0.23060567  0.91671567  0.03918508  1
  O  O393  1  0.23057147  0.91654108  0.28948285  1
  O  O394  1  0.23344724  0.91657539  0.54051931  1
  O  O395  1  0.23239268  0.91645413  0.78762171  1
  O  O396  1  0.73485476  0.24966843  0.03758567  1
  O  O397  1  0.73311126  0.25029819  0.29012134  1
  O  O398  1  0.73436473  0.25036626  0.53824294  1
  O  O399  1  0.73250532  0.24955792  0.79018371  1
  O  O400  1  0.73378819  0.58335623  0.03722667  1
  O  O401  1  0.73291129  0.58227240  0.28686355  1
  O  O402  1  0.73347224  0.58420223  0.54091293  1
  O  O403  1  0.73444652  0.58281421  0.79063766  1
  O  O404  1  0.73616208  0.91653860  0.03850799  1
  O  O405  1  0.73552953  0.91730357  0.28785726  1
  O  O406  1  0.73471979  0.91607098  0.54141051  1
  O  O407  1  0.73553547  0.91686076  0.78817731  1
  O  O408  1  0.26379292  0.08357260  0.21144678  1
  O  O409  1  0.26527050  0.08362972  0.45828644  1
  O  O410  1  0.26586865  0.08351838  0.70983186  1
  O  O411  1  0.26611527  0.08345990  0.96192385  1
  O  O412  1  0.26780230  0.41736688  0.20937952  1
  O  O413  1  0.26643571  0.41672396  0.45899010  1
  O  O414  1  0.26533021  0.41668571  0.71221116  1
  O  O415  1  0.26454362  0.41629072  0.96113381  1
  O  O416  1  0.26465170  0.74934786  0.21106514  1
  O  O417  1  0.26466387  0.74999463  0.46095994  1
  O  O418  1  0.26570225  0.74978625  0.71211302  1
  O  O419  1  0.26490675  0.75015284  0.95877329  1
  O  O420  1  0.76882167  0.08453271  0.21031146  1
  O  O421  1  0.76568621  0.08260495  0.46266282  1
  O  O422  1  0.76460058  0.08393770  0.71146982  1
  O  O423  1  0.76812890  0.08314769  0.96002974  1
  O  O424  1  0.76706935  0.41610075  0.20915761  1
  O  O425  1  0.76608571  0.41727831  0.45994560  1
  O  O426  1  0.76520177  0.41650045  0.71196603  1
  O  O427  1  0.76469233  0.41675645  0.96205333  1
  O  O428  1  0.76550501  0.74929854  0.21145347  1
  O  O429  1  0.76777950  0.75004810  0.45966214  1
  O  O430  1  0.76594660  0.74969035  0.71294692  1
  O  O431  1  0.76604014  0.74968782  0.95898309  1
  O  O432  1  0.01664198  0.08406432  0.16252158  1
  O  O433  1  0.01698358  0.08314100  0.41265490  1
  O  O434  1  0.01660484  0.08294749  0.66607251  1
  O  O435  1  0.01574503  0.08330036  0.91553030  1
  O  O436  1  0.01786947  0.41665873  0.16503574  1
  O  O437  1  0.01552192  0.41648411  0.41222188  1
  O  O438  1  0.01713658  0.41699142  0.66515998  1
  O  O439  1  0.01792086  0.41690040  0.91488483  1
  O  O440  1  0.01626445  0.74954785  0.16510701  1
  O  O441  1  0.01805873  0.75030284  0.41426409  1
  O  O442  1  0.01741901  0.74971328  0.66304775  1
  O  O443  1  0.01844055  0.74984310  0.91539140  1
  O  O444  1  0.51474754  0.08374188  0.16265858  1
  O  O445  1  0.51601422  0.08367375  0.41460977  1
  O  O446  1  0.51691456  0.08335772  0.66489543  1
  O  O447  1  0.51758450  0.08374911  0.91510945  1
  O  O448  1  0.51691763  0.41686394  0.16469518  1
  O  O449  1  0.51478780  0.41690096  0.41302499  1
  O  O450  1  0.51523508  0.41699449  0.66563403  1
  O  O451  1  0.51794105  0.41651451  0.91480925  1
  O  O452  1  0.51587337  0.74898744  0.16417224  1
  O  O453  1  0.51736212  0.74941341  0.41475141  1
  O  O454  1  0.51468690  0.75021627  0.66622265  1
  O  O455  1  0.51652988  0.74948736  0.91261330  1
  O  O456  1  0.48329109  0.25086130  0.08804256  1
  O  O457  1  0.48238325  0.25015256  0.33473251  1
  O  O458  1  0.48262505  0.24945706  0.58735405  1
  O  O459  1  0.48440695  0.24995534  0.83444410  1
  O  O460  1  0.48392483  0.58268678  0.08706369  1
  O  O461  1  0.48273001  0.58342876  0.33459064  1
  O  O462  1  0.48073943  0.58373036  0.58597039  1
  O  O463  1  0.48325504  0.58339551  0.83751236  1
  O  O464  1  0.48336312  0.91641431  0.08465316  1
  O  O465  1  0.48359130  0.91608204  0.33403779  1
  O  O466  1  0.48137058  0.91672687  0.58596547  1
  O  O467  1  0.48372560  0.91722760  0.83550096  1
  O  O468  1  0.98444157  0.25080879  0.08460919  1
  O  O469  1  0.98335493  0.24991521  0.33648985  1
  O  O470  1  0.98540094  0.24982571  0.58602273  1
  O  O471  1  0.98377172  0.25026520  0.83722458  1
  O  O472  1  0.98412839  0.58289523  0.08732225  1
  O  O473  1  0.98565667  0.58340055  0.33638202  1
  O  O474  1  0.98511556  0.58354233  0.58348875  1
  O  O475  1  0.98358009  0.58306811  0.83712688  1
  O  O476  1  0.98359802  0.91654232  0.08689577  1
  O  O477  1  0.98437194  0.91678987  0.33412915  1
  O  O478  1  0.98347914  0.91614506  0.58681727  1
  O  O479  1  0.98386507  0.91651339  0.83736107  1
  O  O480  1  0.08864864  0.31553966  0.07769990  1
  O  O481  1  0.08715239  0.31448167  0.32700374  1
  O  O482  1  0.08910073  0.31504068  0.57675451  1
  O  O483  1  0.08754535  0.31588949  0.82808667  1
  O  O484  1  0.08832890  0.64682119  0.07732978  1
  O  O485  1  0.08901003  0.64954808  0.32783581  1
  O  O486  1  0.08892503  0.64927751  0.57740337  1
  O  O487  1  0.08710881  0.64829802  0.82821825  1
  O  O488  1  0.08679731  0.98288584  0.07738791  1
  O  O489  1  0.08835514  0.98156253  0.32718148  1
  O  O490  1  0.08697403  0.98091511  0.57773278  1
  O  O491  1  0.08783964  0.98091690  0.82730222  1
  O  O492  1  0.58703217  0.31595693  0.07863757  1
  O  O493  1  0.58655513  0.31493780  0.32611148  1
  O  O494  1  0.58612415  0.31430413  0.57735822  1
  O  O495  1  0.58843142  0.31497191  0.82794619  1
  O  O496  1  0.58806897  0.64686288  0.07675458  1
  O  O497  1  0.58662369  0.64950146  0.32706950  1
  O  O498  1  0.58465777  0.64866237  0.57745444  1
  O  O499  1  0.58688971  0.64831051  0.82796260  1
  O  O500  1  0.58721533  0.98188494  0.07711835  1
  O  O501  1  0.58758342  0.98062277  0.32703346  1
  O  O502  1  0.58506180  0.98254432  0.57760207  1
  O  O503  1  0.58763643  0.98208820  0.82826608  1
  O  O504  1  0.41108168  0.01884702  0.17208332  1
  O  O505  1  0.41198360  0.01916676  0.42204199  1
  O  O506  1  0.41313127  0.01818159  0.67280041  1
  O  O507  1  0.41314586  0.01881524  0.92374776  1
  O  O508  1  0.41252395  0.35221744  0.17253970  1
  O  O509  1  0.41129548  0.35164964  0.42064601  1
  O  O510  1  0.41190007  0.35105770  0.67250143  1
  O  O511  1  0.41394947  0.35199776  0.92319694  1
  O  O512  1  0.41220560  0.68356369  0.17158286  1
  O  O513  1  0.41359876  0.68367597  0.42183946  1
  O  O514  1  0.41054940  0.68524908  0.67299777  1
  O  O515  1  0.41280624  0.68442875  0.92208712  1
  O  O516  1  0.91334506  0.01781253  0.17225974  1
  O  O517  1  0.91291907  0.01939299  0.42177698  1
  O  O518  1  0.91293433  0.01733758  0.67214849  1
  O  O519  1  0.91175936  0.01853790  0.92237403  1
  O  O520  1  0.91317606  0.35292372  0.17338545  1
  O  O521  1  0.91221944  0.35068331  0.42136586  1
  O  O522  1  0.91349931  0.35175368  0.67285894  1
  O  O523  1  0.91430658  0.35134064  0.92296389  1
  O  O524  1  0.91278139  0.68403744  0.17235357  1
  O  O525  1  0.91437906  0.68462548  0.42358117  1
  O  O526  1  0.91364173  0.68534098  0.67241779  1
  O  O527  1  0.91461353  0.68461566  0.92275110  1
  O  O528  1  0.16031807  0.01762514  0.20267062  1
  O  O529  1  0.16069952  0.01978942  0.45177527  1
  O  O530  1  0.16234399  0.01795040  0.70282134  1
  O  O531  1  0.16217387  0.01889002  0.95324881  1
  O  O532  1  0.16358274  0.35266169  0.20127919  1
  O  O533  1  0.16281755  0.35143442  0.45223340  1
  O  O534  1  0.16204773  0.35093538  0.70371201  1
  O  O535  1  0.16052781  0.35159022  0.95329804  1
  O  O536  1  0.16114942  0.68435769  0.20355607  1
  O  O537  1  0.16149360  0.68372567  0.45310020  1
  O  O538  1  0.16169306  0.68562429  0.70214126  1
  O  O539  1  0.16135723  0.68430750  0.95186926  1
  O  O540  1  0.66492790  0.01969678  0.20163128  1
  O  O541  1  0.66232371  0.01749122  0.45293207  1
  O  O542  1  0.66069163  0.01944656  0.70201572  1
  O  O543  1  0.66425589  0.01793122  0.95139380  1
  O  O544  1  0.66307122  0.35079519  0.20197083  1
  O  O545  1  0.66232719  0.35224545  0.45216341  1
  O  O546  1  0.66201023  0.35031280  0.70369783  1
  O  O547  1  0.66045640  0.35280956  0.95259203  1
  O  O548  1  0.66197363  0.68394091  0.20302458  1
  O  O549  1  0.66336638  0.68537989  0.45160184  1
  O  O550  1  0.66237790  0.68473213  0.70271142  1
  O  O551  1  0.66215676  0.68393881  0.95217582  1
  O  O552  1  0.33709711  0.31400473  0.04808681  1
  O  O553  1  0.33841636  0.31670025  0.29657025  1
  O  O554  1  0.33742009  0.31475529  0.54782871  1
  O  O555  1  0.33584448  0.31476101  0.79828787  1
  O  O556  1  0.33684948  0.64842414  0.04764999  1
  O  O557  1  0.33761382  0.64737276  0.29782670  1
  O  O558  1  0.33690742  0.64851488  0.54789397  1
  O  O559  1  0.33848419  0.64971171  0.79753387  1
  O  O560  1  0.33433544  0.98233350  0.04764941  1
  O  O561  1  0.33442897  0.98149321  0.29777342  1
  O  O562  1  0.33726786  0.98188271  0.54834449  1
  O  O563  1  0.33614051  0.98091255  0.79793333  1
  O  O564  1  0.83827762  0.31444496  0.04729295  1
  O  O565  1  0.83713311  0.31566716  0.29744541  1
  O  O566  1  0.83808740  0.31507580  0.54741088  1
  O  O567  1  0.83620282  0.31535745  0.79907974  1
  O  O568  1  0.83758359  0.64844751  0.04801576  1
  O  O569  1  0.83681218  0.64658188  0.29718480  1
  O  O570  1  0.83709923  0.65002810  0.54702171  1
  O  O571  1  0.83845991  0.64796462  0.79930773  1
  O  O572  1  0.83963786  0.98255379  0.04656545  1
  O  O573  1  0.83872074  0.98321911  0.29633549  1
  O  O574  1  0.83928615  0.97987554  0.54863145  1
  O  O575  1  0.83943943  0.98154465  0.79763981  1
  O  O576  1  0.41117673  0.14915836  0.17117961  1
  O  O577  1  0.41256141  0.14951529  0.42174531  1
  O  O578  1  0.41313924  0.14843086  0.67292555  1
  O  O579  1  0.41335370  0.14877892  0.92366378  1
  O  O580  1  0.41292808  0.48219899  0.17253083  1
  O  O581  1  0.41120346  0.48211104  0.42060533  1
  O  O582  1  0.41113497  0.48147573  0.67192073  1
  O  O583  1  0.41413687  0.48208611  0.92306354  1
  O  O584  1  0.41203072  0.81388777  0.17236861  1
  O  O585  1  0.41311822  0.81380482  0.42220906  1
  O  O586  1  0.41066350  0.81541047  0.67308614  1
  O  O587  1  0.41300337  0.81460823  0.92276065  1
  O  O588  1  0.91248051  0.14791655  0.17270402  1
  O  O589  1  0.91383839  0.14953119  0.42213865  1
  O  O590  1  0.91272663  0.14752389  0.67270207  1
  O  O591  1  0.91201264  0.14879841  0.92283328  1
  O  O592  1  0.91409370  0.48286480  0.17326348  1
  O  O593  1  0.91196215  0.48108222  0.42172811  1
  O  O594  1  0.91333546  0.48192418  0.67256141  1
  O  O595  1  0.91391889  0.48151107  0.92283986  1
  O  O596  1  0.91249416  0.81447811  0.17203412  1
  O  O597  1  0.91377366  0.81457894  0.42326191  1
  O  O598  1  0.91401691  0.81544107  0.67222264  1
  O  O599  1  0.91451083  0.81477611  0.92242710  1
  O  O600  1  0.08820414  0.18540230  0.07723019  1
  O  O601  1  0.08686708  0.18448085  0.32768943  1
  O  O602  1  0.08928746  0.18514292  0.57691929  1
  O  O603  1  0.08768220  0.18578125  0.82729673  1
  O  O604  1  0.08763548  0.51686307  0.07767169  1
  O  O605  1  0.08985843  0.51946758  0.32666205  1
  O  O606  1  0.08933783  0.51927819  0.57635108  1
  O  O607  1  0.08735547  0.51817161  0.82837346  1
  O  O608  1  0.08785671  0.85279097  0.07720314  1
  O  O609  1  0.08814569  0.85135832  0.32729017  1
  O  O610  1  0.08712226  0.85088148  0.57847346  1
  O  O611  1  0.08754313  0.85084697  0.82790337  1
  O  O612  1  0.58692399  0.18587818  0.07768735  1
  O  O613  1  0.58651143  0.18503601  0.32597593  1
  O  O614  1  0.58631364  0.18406568  0.57815784  1
  O  O615  1  0.58838380  0.18475394  0.82794923  1
  O  O616  1  0.58759404  0.51685798  0.07766844  1
  O  O617  1  0.58714847  0.51949583  0.32630074  1
  O  O618  1  0.58443942  0.51855530  0.57718309  1
  O  O619  1  0.58667591  0.51800802  0.82836426  1
  O  O620  1  0.58739517  0.85171639  0.07726899  1
  O  O621  1  0.58729688  0.85025673  0.32789377  1
  O  O622  1  0.58543139  0.85235947  0.57744753  1
  O  O623  1  0.58726723  0.85165317  0.82761993  1
  O  O624  1  0.33609778  0.18400130  0.04794043  1
  O  O625  1  0.33902109  0.18651610  0.29729190  1
  O  O626  1  0.33689518  0.18476999  0.54794133  1
  O  O627  1  0.33629202  0.18469642  0.79789036  1
  O  O628  1  0.33704992  0.51841225  0.04775790  1
  O  O629  1  0.33741218  0.51736956  0.29697372  1
  O  O630  1  0.33726404  0.51852574  0.54766591  1
  O  O631  1  0.33932308  0.51959245  0.79842317  1
  O  O632  1  0.33447780  0.85214704  0.04785179  1
  O  O633  1  0.33433496  0.85136246  0.29806832  1
  O  O634  1  0.33752724  0.85186951  0.54818548  1
  O  O635  1  0.33568506  0.85070001  0.79746473  1
  O  O636  1  0.83836214  0.18427871  0.04635165  1
  O  O637  1  0.83745720  0.18552762  0.29797311  1
  O  O638  1  0.83764768  0.18482778  0.54771751  1
  O  O639  1  0.83716349  0.18553047  0.79846333  1
  O  O640  1  0.83765246  0.51843635  0.04825081  1
  O  O641  1  0.83632443  0.51648444  0.29632636  1
  O  O642  1  0.83741904  0.51976615  0.54775472  1
  O  O643  1  0.83852909  0.51803318  0.79904229  1
  O  O644  1  0.84018852  0.85236844  0.04753133  1
  O  O645  1  0.83916792  0.85278903  0.29690755  1
  O  O646  1  0.83829331  0.84973222  0.54775761  1
  O  O647  1  0.83928789  0.85161814  0.79823771  1
  O  O648  1  0.15986922  0.14775920  0.20201861  1
  O  O649  1  0.16185617  0.14997533  0.45198091  1
  O  O650  1  0.16196493  0.14824870  0.70297700  1
  O  O651  1  0.16279498  0.14912909  0.95330771  1
  O  O652  1  0.16362505  0.48248525  0.20165345  1
  O  O653  1  0.16268346  0.48166419  0.45248975  1
  O  O654  1  0.16189469  0.48127660  0.70328161  1
  O  O655  1  0.16096490  0.48183523  0.95271069  1
  O  O656  1  0.16103557  0.81460954  0.20335565  1
  O  O657  1  0.16032057  0.81380229  0.45281472  1
  O  O658  1  0.16208858  0.81566921  0.70254769  1
  O  O659  1  0.16060855  0.81459549  0.95238845  1
  O  O660  1  0.66491433  0.14985785  0.20244564  1
  O  O661  1  0.66217476  0.14772037  0.45286664  1
  O  O662  1  0.66102028  0.14961681  0.70303702  1
  O  O663  1  0.66379879  0.14784450  0.95158678  1
  O  O664  1  0.66270542  0.48088038  0.20164883  1
  O  O665  1  0.66231400  0.48240167  0.45244678  1
  O  O666  1  0.66135733  0.48071260  0.70296437  1
  O  O667  1  0.66138110  0.48292357  0.95298662  1
  O  O668  1  0.66211526  0.81436154  0.20248061  1
  O  O669  1  0.66384850  0.81531335  0.45160209  1
  O  O670  1  0.66257567  0.81491114  0.70252303  1
  O  O671  1  0.66179956  0.81404856  0.95156450  1
