# generated using pymatgen
data_Na2MnFe(PO4)2
_symmetry_space_group_name_H-M   'P 1'
_cell_length_a   21.08237725
_cell_length_b   18.93479674
_cell_length_c   20.04171533
_cell_angle_alpha   90.00040478
_cell_angle_beta   89.99549817
_cell_angle_gamma   89.99804800
_symmetry_Int_Tables_number   1
_chemical_formula_structural   Na2MnFe(PO4)2
_chemical_formula_sum   'Na96 Mn48 Fe48 P96 O384'
_cell_volume   8000.46289550
_cell_formula_units_Z   48
loop_
 _symmetry_equiv_pos_site_id
 _symmetry_equiv_pos_as_xyz
  1  'x, y, z'
loop_
 _atom_site_type_symbol
 _atom_site_label
 _atom_site_symmetry_multiplicity
 _atom_site_fract_x
 _atom_site_fract_y
 _atom_site_fract_z
 _atom_site_occupancy
  Na  Na0  1  0.00303336  0.00152526  -0.00117303  1
  Na  Na1  1  0.00163643  0.00092143  0.24949479  1
  Na  Na2  1  -0.00041825  -0.00036829  0.50126808  1
  Na  Na3  1  0.00120914  0.00059881  0.75074496  1
  Na  Na4  1  -0.00057661  0.33259645  0.00081126  1
  Na  Na5  1  -0.00093550  0.33285029  0.24980373  1
  Na  Na6  1  -0.00001513  0.33311483  0.49885794  1
  Na  Na7  1  0.00077219  0.33299262  0.75068916  1
  Na  Na8  1  -0.00186037  0.66560216  0.00035255  1
  Na  Na9  1  -0.00009374  0.66720478  0.24885052  1
  Na  Na10  1  -0.00108262  0.66628777  0.50077186  1
  Na  Na11  1  -0.00089654  0.66640399  0.75023278  1
  Na  Na12  1  0.50186369  0.00125997  -0.00017907  1
  Na  Na13  1  0.50077913  0.00084880  0.25023917  1
  Na  Na14  1  0.49952631  0.00007373  0.49980764  1
  Na  Na15  1  0.50073039  0.00041797  0.74971992  1
  Na  Na16  1  0.50047736  0.33318801  0.00058717  1
  Na  Na17  1  0.49881550  0.33280937  0.25109965  1
  Na  Na18  1  0.50002617  0.33303617  0.49978554  1
  Na  Na19  1  0.50124480  0.33307947  0.74830564  1
  Na  Na20  1  0.50025625  0.66652324  0.00008775  1
  Na  Na21  1  0.50158479  0.66695572  0.25019338  1
  Na  Na22  1  0.50078911  0.66716796  0.49936750  1
  Na  Na23  1  0.49923532  0.66650105  0.75017364  1
  Na  Na24  1  0.24746255  0.00014179  0.12575235  1
  Na  Na25  1  0.24861179  0.00027620  0.37437431  1
  Na  Na26  1  0.24802332  0.00017149  0.62542771  1
  Na  Na27  1  0.24657153  -0.00061325  0.87547075  1
  Na  Na28  1  0.24962142  0.33243350  0.12455939  1
  Na  Na29  1  0.25054487  0.33334890  0.37462022  1
  Na  Na30  1  0.24824684  0.33263661  0.62465875  1
  Na  Na31  1  0.24978069  0.33331625  0.87605398  1
  Na  Na32  1  0.25180749  0.66728914  0.12579575  1
  Na  Na33  1  0.24782555  0.66556345  0.37453385  1
  Na  Na34  1  0.24855000  0.66666984  0.62378293  1
  Na  Na35  1  0.24939377  0.66641890  0.87534309  1
  Na  Na36  1  0.74820421  -0.00012845  0.12466512  1
  Na  Na37  1  0.75081286  0.00041712  0.37489897  1
  Na  Na38  1  0.75198377  0.00099591  0.62490062  1
  Na  Na39  1  0.74929594  0.00053892  0.87589744  1
  Na  Na40  1  0.75088837  0.33318422  0.12445423  1
  Na  Na41  1  0.75162348  0.33320614  0.37434493  1
  Na  Na42  1  0.74975427  0.33196537  0.62568358  1
  Na  Na43  1  0.75148487  0.33349075  0.87556742  1
  Na  Na44  1  0.74980015  0.66658594  0.12550054  1
  Na  Na45  1  0.75008759  0.66590971  0.37409040  1
  Na  Na46  1  0.75320675  0.66776536  0.62490090  1
  Na  Na47  1  0.75027078  0.66649957  0.87505533  1
  Na  Na48  1  0.00165428  0.16721024  -0.00001970  1
  Na  Na49  1  0.00217599  0.16711210  0.24981350  1
  Na  Na50  1  0.00093019  0.16719150  0.50037680  1
  Na  Na51  1  -0.00037387  0.16803172  0.75044983  1
  Na  Na52  1  -0.00072160  0.49997515  0.00067628  1
  Na  Na53  1  -0.00147392  0.50030062  0.24920180  1
  Na  Na54  1  -0.00150340  0.50060584  0.49934217  1
  Na  Na55  1  0.00096899  0.49926375  0.75043968  1
  Na  Na56  1  -0.00004655  0.83297074  -0.00060296  1
  Na  Na57  1  -0.00163340  0.83344615  0.24869913  1
  Na  Na58  1  -0.00067891  0.83291557  0.50135903  1
  Na  Na59  1  0.00080914  0.83254523  0.75076010  1
  Na  Na60  1  0.50043225  0.16774274  0.00059486  1
  Na  Na61  1  0.50058750  0.16765389  0.25033762  1
  Na  Na62  1  0.50123004  0.16732173  0.50026854  1
  Na  Na63  1  0.50138483  0.16688931  0.74924178  1
  Na  Na64  1  0.50022203  0.49988648  0.00037420  1
  Na  Na65  1  0.49979136  0.49949776  0.25096272  1
  Na  Na66  1  0.49847964  0.49991845  0.49901265  1
  Na  Na67  1  0.50145440  0.49866783  0.74906267  1
  Na  Na68  1  0.50124957  0.83212618  -0.00064540  1
  Na  Na69  1  0.49991987  0.83262220  0.25025796  1
  Na  Na70  1  0.50048712  0.83224835  0.49972650  1
  Na  Na71  1  0.49917373  0.83327640  0.75001635  1
  Na  Na72  1  0.24942618  0.16727982  0.12525823  1
  Na  Na73  1  0.24799946  0.16808504  0.37367907  1
  Na  Na74  1  0.24841301  0.16748552  0.62508942  1
  Na  Na75  1  0.24872576  0.16777713  0.87630068  1
  Na  Na76  1  0.25033300  0.49982585  0.12492312  1
  Na  Na77  1  0.25088696  0.49874652  0.37452434  1
  Na  Na78  1  0.24811137  0.49996661  0.62473847  1
  Na  Na79  1  0.24846254  0.50022234  0.87586069  1
  Na  Na80  1  0.24925845  0.83312914  0.12597403  1
  Na  Na81  1  0.24930741  0.83223851  0.37520529  1
  Na  Na82  1  0.24777190  0.83323636  0.62402384  1
  Na  Na83  1  0.24878765  0.83327390  0.87482959  1
  Na  Na84  1  0.74985045  0.16759468  0.12404893  1
  Na  Na85  1  0.75008103  0.16834188  0.37423670  1
  Na  Na86  1  0.75163582  0.16724162  0.62557023  1
  Na  Na87  1  0.75028043  0.16708064  0.87584262  1
  Na  Na88  1  0.75063089  0.49913238  0.12486342  1
  Na  Na89  1  0.75073603  0.50012805  0.37485017  1
  Na  Na90  1  0.75169734  0.49957412  0.62524587  1
  Na  Na91  1  0.75010976  0.49978995  0.87472072  1
  Na  Na92  1  0.74947191  0.83234609  0.12560019  1
  Na  Na93  1  0.75093736  0.83279024  0.37446729  1
  Na  Na94  1  0.75131385  0.83301612  0.62469696  1
  Na  Na95  1  0.75099322  0.83210577  0.87571649  1
  Mn  Mn96  1  0.10763028  0.41649471  0.87330152  1
  Mn  Mn97  1  0.14230018  0.58358139  0.99872282  1
  Mn  Mn98  1  0.39122146  0.58359522  0.62725480  1
  Mn  Mn99  1  0.64261816  0.58334674  0.74720751  1
  Mn  Mn100  1  0.39220361  0.58296350  0.37677682  1
  Mn  Mn101  1  0.85842599  0.08382519  0.25173497  1
  Mn  Mn102  1  0.10736747  0.08398215  0.62297331  1
  Mn  Mn103  1  0.64223531  0.58293865  0.99837938  1
  Mn  Mn104  1  0.10763044  0.75001198  0.87272175  1
  Mn  Mn105  1  0.60828792  0.41698600  0.62216122  1
  Mn  Mn106  1  0.14083969  0.91722800  0.49688178  1
  Mn  Mn107  1  0.35823989  0.75063636  0.00202215  1
  Mn  Mn108  1  0.39179788  0.91760393  0.87719785  1
  Mn  Mn109  1  0.39195010  0.91708092  0.37735825  1
  Mn  Mn110  1  0.35700393  0.41698001  0.75226279  1
  Mn  Mn111  1  0.64270359  0.91703583  0.74758354  1
  Mn  Mn112  1  0.35850937  0.41653674  0.00241054  1
  Mn  Mn113  1  0.64240129  0.25055044  0.99779617  1
  Mn  Mn114  1  0.39136537  0.91662870  0.62714484  1
  Mn  Mn115  1  0.35700103  0.08316595  0.75279360  1
  Mn  Mn116  1  0.85890634  0.08343852  0.50191869  1
  Mn  Mn117  1  0.64345307  0.58307995  0.49802330  1
  Mn  Mn118  1  0.60829069  0.74982779  0.62291295  1
  Mn  Mn119  1  0.64171579  0.91631118  0.99768136  1
  Mn  Mn120  1  0.14127033  0.91621651  0.24787642  1
  Mn  Mn121  1  0.60766170  0.41675332  0.37268696  1
  Mn  Mn122  1  0.89251458  0.91763163  0.12677551  1
  Mn  Mn123  1  0.85861335  0.41690354  0.50238497  1
  Mn  Mn124  1  0.10745277  0.74976165  0.12250909  1
  Mn  Mn125  1  0.89208330  0.58249973  0.87760849  1
  Mn  Mn126  1  0.85847709  0.41619431  0.75239544  1
  Mn  Mn127  1  0.35743984  0.08305709  0.00185124  1
  Mn  Mn128  1  0.85807319  0.08310219  0.00266168  1
  Mn  Mn129  1  0.60837991  0.08316287  0.37266301  1
  Mn  Mn130  1  0.10731947  0.41729133  0.37152126  1
  Mn  Mn131  1  0.64208051  0.91701575  0.24746207  1
  Mn  Mn132  1  0.39204678  0.91676988  0.12722582  1
  Mn  Mn133  1  0.64302846  0.91681171  0.49751924  1
  Mn  Mn134  1  0.35695950  0.74962441  0.50198994  1
  Mn  Mn135  1  0.39204162  0.24961487  0.62698993  1
  Mn  Mn136  1  0.35684650  0.08381377  0.50204821  1
  Mn  Mn137  1  0.89277695  0.91752000  0.87765659  1
  Mn  Mn138  1  0.85733603  0.74958570  0.25256120  1
  Mn  Mn139  1  0.14085142  0.58257241  0.49699115  1
  Mn  Mn140  1  0.39223316  0.58238258  0.87643158  1
  Mn  Mn141  1  0.89247307  0.91688609  0.62857420  1
  Mn  Mn142  1  0.35726881  0.08339143  0.25214822  1
  Mn  Mn143  1  0.60890794  0.08287325  0.62268080  1
  Fe  Fe144  1  0.89324106  0.25056618  0.62695589  1
  Fe  Fe145  1  0.60765117  0.74991567  0.87232589  1
  Fe  Fe146  1  0.60732399  0.41666099  0.12403603  1
  Fe  Fe147  1  0.10708667  0.41684934  0.62327833  1
  Fe  Fe148  1  0.64297445  0.25087189  0.24818428  1
  Fe  Fe149  1  0.64293371  0.58207664  0.24796837  1
  Fe  Fe150  1  0.60760940  0.08392564  0.87273838  1
  Fe  Fe151  1  0.89373226  0.25001808  0.12677888  1
  Fe  Fe152  1  0.10733493  0.08406840  0.87295813  1
  Fe  Fe153  1  0.89224235  0.58258543  0.12716155  1
  Fe  Fe154  1  0.14247975  0.91609171  0.74821037  1
  Fe  Fe155  1  0.35628043  0.41628566  0.50173811  1
  Fe  Fe156  1  0.89327570  0.24991091  0.87681365  1
  Fe  Fe157  1  0.10779251  0.08413473  0.12287403  1
  Fe  Fe158  1  0.10689330  0.41649594  0.12382414  1
  Fe  Fe159  1  0.85810049  0.75014894  0.50126686  1
  Fe  Fe160  1  0.89254451  0.58384005  0.37614423  1
  Fe  Fe161  1  0.39290765  0.25046004  0.12695933  1
  Fe  Fe162  1  0.85776261  0.08335017  0.75257365  1
  Fe  Fe163  1  0.64372317  0.25008927  0.49813147  1
  Fe  Fe164  1  0.89333810  0.24951945  0.37644503  1
  Fe  Fe165  1  0.14210922  0.91669507  0.99836219  1
  Fe  Fe166  1  0.60726429  0.08378287  0.12372300  1
  Fe  Fe167  1  0.14185848  0.58345113  0.74805681  1
  Fe  Fe168  1  0.85672447  0.74943380  0.00171644  1
  Fe  Fe169  1  0.85805833  0.75074192  0.75220911  1
  Fe  Fe170  1  0.85757695  0.41711575  0.00253670  1
  Fe  Fe171  1  0.60667387  0.74973395  0.12344837  1
  Fe  Fe172  1  0.10692559  0.08292685  0.37353124  1
  Fe  Fe173  1  0.14228814  0.25056180  0.74830768  1
  Fe  Fe174  1  0.35712979  0.41686478  0.25084986  1
  Fe  Fe175  1  0.60803499  0.41613764  0.87343819  1
  Fe  Fe176  1  0.35607264  0.74988684  0.75095943  1
  Fe  Fe177  1  0.10610777  0.75015695  0.37330599  1
  Fe  Fe178  1  0.14260539  0.25130200  0.24809178  1
  Fe  Fe179  1  0.10660866  0.74903988  0.62365190  1
  Fe  Fe180  1  0.39245002  0.24955298  0.37685467  1
  Fe  Fe181  1  0.64359922  0.24972142  0.74893011  1
  Fe  Fe182  1  0.89275867  0.91673266  0.37620179  1
  Fe  Fe183  1  0.39316604  0.58282220  0.12735737  1
  Fe  Fe184  1  0.39309195  0.24997031  0.87584183  1
  Fe  Fe185  1  0.85726697  0.41634149  0.25084883  1
  Fe  Fe186  1  0.14198702  0.25035314  0.49783067  1
  Fe  Fe187  1  0.14232944  0.58262237  0.24805505  1
  Fe  Fe188  1  0.14282900  0.25005050  0.99838608  1
  Fe  Fe189  1  0.35730394  0.74932680  0.25200608  1
  Fe  Fe190  1  0.60807675  0.74981230  0.37326038  1
  Fe  Fe191  1  0.89351972  0.58281336  0.62716347  1
  P  P192  1  0.05468152  0.25105035  0.11099799  1
  P  P193  1  0.05403762  0.24973793  0.36030955  1
  P  P194  1  0.05397917  0.25123315  0.61055892  1
  P  P195  1  0.05427121  0.24965119  0.86102330  1
  P  P196  1  0.05306471  0.58212066  0.11142057  1
  P  P197  1  0.05196147  0.58422527  0.35890087  1
  P  P198  1  0.05333181  0.58292203  0.61134780  1
  P  P199  1  0.05376935  0.58330169  0.85970909  1
  P  P200  1  0.05391761  0.91732962  0.10896909  1
  P  P201  1  0.05142217  0.91606769  0.36010272  1
  P  P202  1  0.05452036  0.91582143  0.61177498  1
  P  P203  1  0.05535890  0.91742135  0.86058631  1
  P  P204  1  0.55396276  0.25094397  0.11179919  1
  P  P205  1  0.55439701  0.25030131  0.36050168  1
  P  P206  1  0.55578542  0.24988800  0.61009482  1
  P  P207  1  0.55343380  0.25035183  0.85946030  1
  P  P208  1  0.55361103  0.58253890  0.11184989  1
  P  P209  1  0.55464691  0.58357258  0.35950363  1
  P  P210  1  0.55304549  0.58339453  0.60918752  1
  P  P211  1  0.55396298  0.58276140  0.85996052  1
  P  P212  1  0.55311839  0.91651378  0.11013086  1
  P  P213  1  0.55350721  0.91588074  0.35993683  1
  P  P214  1  0.55331703  0.91640400  0.60946396  1
  P  P215  1  0.55350456  0.91682589  0.85972877  1
  P  P216  1  0.44761786  0.08438126  0.13984734  1
  P  P217  1  0.44658788  0.08473291  0.39002848  1
  P  P218  1  0.44665893  0.08354502  0.64023954  1
  P  P219  1  0.44794220  0.08465375  0.88972986  1
  P  P220  1  0.44727738  0.41657559  0.14075986  1
  P  P221  1  0.44412677  0.41546181  0.38922718  1
  P  P222  1  0.44521379  0.41640012  0.63865869  1
  P  P223  1  0.44815114  0.41538937  0.88947255  1
  P  P224  1  0.44697495  0.74908892  0.14044790  1
  P  P225  1  0.44661616  0.74947811  0.38882179  1
  P  P226  1  0.44575787  0.74988729  0.64074213  1
  P  P227  1  0.44648422  0.74978311  0.88842832  1
  P  P228  1  0.94864890  0.08458971  0.13956095  1
  P  P229  1  0.94824070  0.08358443  0.38955934  1
  P  P230  1  0.94608672  0.08464753  0.64115001  1
  P  P231  1  0.94696363  0.08451031  0.88911023  1
  P  P232  1  0.94574294  0.41629700  0.13929010  1
  P  P233  1  0.94518305  0.41670275  0.38788183  1
  P  P234  1  0.94802654  0.41623383  0.63990560  1
  P  P235  1  0.94609329  0.41548065  0.89118323  1
  P  P236  1  0.94474160  0.74925544  0.13845059  1
  P  P237  1  0.94692081  0.74985518  0.39011233  1
  P  P238  1  0.94612199  0.74917492  0.63978867  1
  P  P239  1  0.94486345  0.75001906  0.88995087  1
  P  P240  1  0.19401687  0.08455983  0.23570713  1
  P  P241  1  0.19518352  0.08472954  0.48401206  1
  P  P242  1  0.19488702  0.08398480  0.73657988  1
  P  P243  1  0.19424825  0.08395655  0.98595981  1
  P  P244  1  0.19690040  0.41659681  0.23426891  1
  P  P245  1  0.19557184  0.41574906  0.48544457  1
  P  P246  1  0.19535452  0.41651129  0.73467634  1
  P  P247  1  0.19554197  0.41594608  0.98685095  1
  P  P248  1  0.19585131  0.74877265  0.23642623  1
  P  P249  1  0.19370141  0.74953853  0.48483791  1
  P  P250  1  0.19633245  0.74958243  0.73433206  1
  P  P251  1  0.19665254  0.75038950  0.98524683  1
  P  P252  1  0.69650265  0.08492995  0.23411406  1
  P  P253  1  0.69784371  0.08460038  0.48477433  1
  P  P254  1  0.69737817  0.08449130  0.73636553  1
  P  P255  1  0.69471583  0.08387599  0.98558969  1
  P  P256  1  0.69723814  0.41634011  0.23461474  1
  P  P257  1  0.69755005  0.41574545  0.48476706  1
  P  P258  1  0.69596557  0.41546486  0.73620894  1
  P  P259  1  0.69650428  0.41669691  0.98582115  1
  P  P260  1  0.69456921  0.74875087  0.23562422  1
  P  P261  1  0.69821777  0.74972015  0.48426444  1
  P  P262  1  0.69759105  0.75011639  0.73579634  1
  P  P263  1  0.69554286  0.74927825  0.98577857  1
  P  P264  1  0.30437317  0.24973567  0.01453453  1
  P  P265  1  0.30415721  0.25103766  0.26389836  1
  P  P266  1  0.30261269  0.25058812  0.51364600  1
  P  P267  1  0.30215276  0.25024486  0.76579179  1
  P  P268  1  0.30454775  0.58332503  0.01599378  1
  P  P269  1  0.30338758  0.58285510  0.26356833  1
  P  P270  1  0.30257610  0.58221309  0.51443624  1
  P  P271  1  0.30103908  0.58397354  0.76477596  1
  P  P272  1  0.30141320  0.91722709  0.01533110  1
  P  P273  1  0.30284357  0.91586848  0.26507148  1
  P  P274  1  0.30204482  0.91689691  0.51492579  1
  P  P275  1  0.30143301  0.91577929  0.76489950  1
  P  P276  1  0.80581038  0.25078417  0.01444899  1
  P  P277  1  0.80467805  0.25080319  0.26367223  1
  P  P278  1  0.80506248  0.25013842  0.51459824  1
  P  P279  1  0.80487832  0.24934786  0.76507026  1
  P  P280  1  0.80404464  0.58301496  0.01570417  1
  P  P281  1  0.80394809  0.58193652  0.26399781  1
  P  P282  1  0.80618726  0.58426181  0.51440789  1
  P  P283  1  0.80520582  0.58370561  0.76395762  1
  P  P284  1  0.80308252  0.91589631  0.01532677  1
  P  P285  1  0.80394558  0.91707047  0.26537761  1
  P  P286  1  0.80557057  0.91592255  0.51385126  1
  P  P287  1  0.80378749  0.91714140  0.76569429  1
  O  O288  1  0.05889651  0.25134534  0.18772889  1
  O  O289  1  0.05820645  0.25075053  0.43703338  1
  O  O290  1  0.05839798  0.25058793  0.68727784  1
  O  O291  1  0.05872425  0.25033134  0.93770987  1
  O  O292  1  0.05816347  0.58291068  0.18807063  1
  O  O293  1  0.05526505  0.58294630  0.43566258  1
  O  O294  1  0.05784414  0.58312342  0.68802626  1
  O  O295  1  0.05696080  0.58351918  0.93650703  1
  O  O296  1  0.05634280  0.91625090  0.18585244  1
  O  O297  1  0.05435232  0.91606032  0.43685071  1
  O  O298  1  0.05875009  0.91619108  0.68854878  1
  O  O299  1  0.05908507  0.91630852  0.93737585  1
  O  O300  1  0.55856082  0.25106533  0.18842715  1
  O  O301  1  0.55949919  0.25051614  0.43714357  1
  O  O302  1  0.56034329  0.24980441  0.68680392  1
  O  O303  1  0.55661976  0.25056531  0.93628876  1
  O  O304  1  0.55826180  0.58218862  0.18847466  1
  O  O305  1  0.55783517  0.58282602  0.43626474  1
  O  O306  1  0.55665542  0.58317198  0.68597676  1
  O  O307  1  0.55661472  0.58308325  0.93679466  1
  O  O308  1  0.55579050  0.91645743  0.18689343  1
  O  O309  1  0.55673262  0.91632192  0.43671779  1
  O  O310  1  0.55687562  0.91661168  0.68625343  1
  O  O311  1  0.55636259  0.91649569  0.93652630  1
  O  O312  1  0.44382441  0.08391282  0.06315362  1
  O  O313  1  0.44329860  0.08438803  0.31324044  1
  O  O314  1  0.44291914  0.08391029  0.56348289  1
  O  O315  1  0.44370774  0.08371884  0.81306201  1
  O  O316  1  0.44420169  0.41655155  0.06394418  1
  O  O317  1  0.44000039  0.41642694  0.31246160  1
  O  O318  1  0.44040678  0.41629200  0.56191196  1
  O  O319  1  0.44407334  0.41609683  0.81281059  1
  O  O320  1  0.44365059  0.74971482  0.06364655  1
  O  O321  1  0.44119846  0.74922732  0.31216169  1
  O  O322  1  0.44242969  0.74969417  0.56390371  1
  O  O323  1  0.44050297  0.74989707  0.81188170  1
  O  O324  1  0.94474334  0.08403308  0.06289833  1
  O  O325  1  0.94504305  0.08397027  0.31287360  1
  O  O326  1  0.94354684  0.08378200  0.56432276  1
  O  O327  1  0.94210778  0.08374880  0.81247155  1
  O  O328  1  0.94171337  0.41661378  0.06259184  1
  O  O329  1  0.94129249  0.41653653  0.31116483  1
  O  O330  1  0.94467542  0.41623257  0.56317849  1
  O  O331  1  0.94351122  0.41616330  0.81435139  1
  O  O332  1  0.94065809  0.74957935  0.06174286  1
  O  O333  1  0.94357063  0.74990007  0.31327252  1
  O  O334  1  0.94188539  0.75003007  0.56311438  1
  O  O335  1  0.94098430  0.75020538  0.81310642  1
  O  O336  1  0.19080451  0.08430588  0.06286701  1
  O  O337  1  0.18975060  0.08356749  0.31247943  1
  O  O338  1  0.19233847  0.08396145  0.56086139  1
  O  O339  1  0.19145837  0.08430947  0.81339127  1
  O  O340  1  0.19134309  0.41639622  0.06350826  1
  O  O341  1  0.19335261  0.41653141  0.31104461  1
  O  O342  1  0.19067761  0.41647704  0.56208481  1
  O  O343  1  0.19290672  0.41653116  0.81152018  1
  O  O344  1  0.19364079  0.74966435  0.06204154  1
  O  O345  1  0.19043082  0.74933474  0.31304687  1
  O  O346  1  0.18923885  0.74938438  0.56158763  1
  O  O347  1  0.19328492  0.74939013  0.81108822  1
  O  O348  1  0.68995559  0.08407952  0.06233477  1
  O  O349  1  0.69385429  0.08435119  0.31092678  1
  O  O350  1  0.69518045  0.08388484  0.56158312  1
  O  O351  1  0.69216528  0.08394286  0.81305723  1
  O  O352  1  0.69121820  0.41639031  0.06245706  1
  O  O353  1  0.69378528  0.41636201  0.31129200  1
  O  O354  1  0.69468068  0.41636787  0.56156621  1
  O  O355  1  0.69189554  0.41610723  0.81300130  1
  O  O356  1  0.69022455  0.74934944  0.06248698  1
  O  O357  1  0.69095476  0.74964060  0.31239189  1
  O  O358  1  0.69462388  0.74978397  0.56104138  1
  O  O359  1  0.69207378  0.74976275  0.81247693  1
  O  O360  1  0.30921494  0.25010128  0.18717589  1
  O  O361  1  0.30739092  0.24982883  0.43699137  1
  O  O362  1  0.30616122  0.24992421  0.68906764  1
  O  O363  1  0.30948455  0.25009233  0.93790136  1
  O  O364  1  0.30853107  0.58312903  0.18692953  1
  O  O365  1  0.30605103  0.58293114  0.43765765  1
  O  O366  1  0.30460814  0.58326741  0.68808767  1
  O  O367  1  0.30753266  0.58293813  0.93916630  1
  O  O368  1  0.30605732  0.91665841  0.18826282  1
  O  O369  1  0.30566975  0.91680756  0.43812987  1
  O  O370  1  0.30497364  0.91669588  0.68820974  1
  O  O371  1  0.30556822  0.91740056  0.93860112  1
  O  O372  1  0.80958346  0.24975575  0.18698691  1
  O  O373  1  0.81005264  0.25001626  0.43784764  1
  O  O374  1  0.80942203  0.25029522  0.68833414  1
  O  O375  1  0.80982051  0.24977804  0.93771140  1
  O  O376  1  0.80857540  0.58273501  0.18730458  1
  O  O377  1  0.80974621  0.58343838  0.43754356  1
  O  O378  1  0.80970795  0.58286271  0.68716509  1
  O  O379  1  0.80654983  0.58284553  0.93887576  1
  O  O380  1  0.80705929  0.91712044  0.18859720  1
  O  O381  1  0.80973086  0.91670337  0.43707077  1
  O  O382  1  0.80645019  0.91719467  0.68882295  1
  O  O383  1  0.80648416  0.91696267  0.93858418  1
  O  O384  1  0.23383980  0.24958574  0.03775534  1
  O  O385  1  0.23349062  0.25093490  0.28686456  1
  O  O386  1  0.23231872  0.25021408  0.53759601  1
  O  O387  1  0.23191087  0.25063651  0.78982290  1
  O  O388  1  0.23475573  0.58349170  0.04086387  1
  O  O389  1  0.23298015  0.58221129  0.28737752  1
  O  O390  1  0.23272767  0.58279941  0.53903958  1
  O  O391  1  0.23104110  0.58342184  0.78963882  1
  O  O392  1  0.23138367  0.91712904  0.03977814  1
  O  O393  1  0.23301787  0.91602066  0.29001470  1
  O  O394  1  0.23222429  0.91700153  0.53952126  1
  O  O395  1  0.23132629  0.91601454  0.78945322  1
  O  O396  1  0.73556147  0.25036540  0.03818285  1
  O  O397  1  0.73421958  0.25090323  0.28714251  1
  O  O398  1  0.73473221  0.25000967  0.53813713  1
  O  O399  1  0.73460283  0.24996561  0.78906968  1
  O  O400  1  0.73438480  0.58290846  0.04101947  1
  O  O401  1  0.73356201  0.58247110  0.28758813  1
  O  O402  1  0.73629968  0.58337600  0.53910420  1
  O  O403  1  0.73524372  0.58322682  0.78822998  1
  O  O404  1  0.73337241  0.91607162  0.04033158  1
  O  O405  1  0.73416208  0.91689742  0.29013654  1
  O  O406  1  0.73571238  0.91672375  0.53850039  1
  O  O407  1  0.73432328  0.91672791  0.79140839  1
  O  O408  1  0.26415753  0.08395905  0.21168888  1
  O  O409  1  0.26473030  0.08428562  0.45856192  1
  O  O410  1  0.26461339  0.08393525  0.71135326  1
  O  O411  1  0.26417894  0.08376408  0.96129818  1
  O  O412  1  0.26702853  0.41639833  0.20984459  1
  O  O413  1  0.26577292  0.41608132  0.46145327  1
  O  O414  1  0.26493368  0.41626034  0.70907900  1
  O  O415  1  0.26551981  0.41661049  0.96234118  1
  O  O416  1  0.26630336  0.74948931  0.21294820  1
  O  O417  1  0.26387278  0.74902753  0.46112239  1
  O  O418  1  0.26624157  0.74986850  0.70912011  1
  O  O419  1  0.26624289  0.74988772  0.95985646  1
  O  O420  1  0.76617055  0.08403190  0.20874052  1
  O  O421  1  0.76737857  0.08450424  0.45915919  1
  O  O422  1  0.76769644  0.08421759  0.71265644  1
  O  O423  1  0.76501906  0.08393841  0.96231691  1
  O  O424  1  0.76735140  0.41616564  0.21002943  1
  O  O425  1  0.76716565  0.41632547  0.45950649  1
  O  O426  1  0.76596095  0.41579355  0.71182062  1
  O  O427  1  0.76700681  0.41677021  0.96265981  1
  O  O428  1  0.76474128  0.74933420  0.21158341  1
  O  O429  1  0.76829268  0.74945809  0.45968710  1
  O  O430  1  0.76804471  0.75044604  0.71252156  1
  O  O431  1  0.76613699  0.74901670  0.96279387  1
  O  O432  1  0.01876439  0.08447543  0.16387961  1
  O  O433  1  0.01806390  0.08343190  0.41502926  1
  O  O434  1  0.01580547  0.08427208  0.66614675  1
  O  O435  1  0.01731946  0.08437179  0.91267300  1
  O  O436  1  0.01598068  0.41633752  0.16357421  1
  O  O437  1  0.01513587  0.41685481  0.41247422  1
  O  O438  1  0.01783567  0.41631580  0.66508700  1
  O  O439  1  0.01576487  0.41628235  0.91629210  1
  O  O440  1  0.01478213  0.74994172  0.16265702  1
  O  O441  1  0.01684301  0.74946154  0.41512843  1
  O  O442  1  0.01645155  0.74929383  0.66381065  1
  O  O443  1  0.01495288  0.74956411  0.91388153  1
  O  O444  1  0.51770329  0.08431028  0.16447008  1
  O  O445  1  0.51629073  0.08416926  0.41506035  1
  O  O446  1  0.51653903  0.08364041  0.66472140  1
  O  O447  1  0.51807976  0.08459756  0.91401419  1
  O  O448  1  0.51724990  0.41632685  0.16569711  1
  O  O449  1  0.51432594  0.41643380  0.41305592  1
  O  O450  1  0.51539363  0.41606645  0.66219138  1
  O  O451  1  0.51816112  0.41595024  0.91425272  1
  O  O452  1  0.51719656  0.74952812  0.16466612  1
  O  O453  1  0.51709686  0.74933926  0.41209874  1
  O  O454  1  0.51562521  0.74981222  0.66537673  1
  O  O455  1  0.51705627  0.74964182  0.91153701  1
  O  O456  1  0.48363141  0.25093720  0.08777780  1
  O  O457  1  0.48390150  0.25028201  0.33725142  1
  O  O458  1  0.48551918  0.25012235  0.58654133  1
  O  O459  1  0.48348327  0.25006484  0.83438894  1
  O  O460  1  0.48337419  0.58277377  0.08763705  1
  O  O461  1  0.48472383  0.58309593  0.33493315  1
  O  O462  1  0.48338484  0.58365357  0.58419256  1
  O  O463  1  0.48437110  0.58244533  0.83430512  1
  O  O464  1  0.48361387  0.91655174  0.08416402  1
  O  O465  1  0.48385263  0.91666481  0.33468464  1
  O  O466  1  0.48363935  0.91619492  0.58447663  1
  O  O467  1  0.48382973  0.91702528  0.83438894  1
  O  O468  1  0.98430989  0.25053335  0.08714313  1
  O  O469  1  0.98365338  0.25015926  0.33645115  1
  O  O470  1  0.98364829  0.25023441  0.58669707  1
  O  O471  1  0.98391956  0.25026889  0.83725832  1
  O  O472  1  0.98269121  0.58217104  0.08784921  1
  O  O473  1  0.98183558  0.58386646  0.33443614  1
  O  O474  1  0.98308816  0.58298837  0.58719674  1
  O  O475  1  0.98394884  0.58282010  0.83509922  1
  O  O476  1  0.98437852  0.91719153  0.08337329  1
  O  O477  1  0.98166833  0.91664626  0.33450144  1
  O  O478  1  0.98446627  0.91662259  0.58773201  1
  O  O479  1  0.98536065  0.91680464  0.83629030  1
  O  O480  1  0.08775861  0.31621975  0.07757428  1
  O  O481  1  0.08761513  0.31454811  0.32647788  1
  O  O482  1  0.08698437  0.31646158  0.57722989  1
  O  O483  1  0.08787561  0.31449670  0.82752380  1
  O  O484  1  0.08616097  0.64711861  0.07767291  1
  O  O485  1  0.08587126  0.64937240  0.32669517  1
  O  O486  1  0.08655832  0.64795381  0.57799231  1
  O  O487  1  0.08755926  0.64830506  0.82680084  1
  O  O488  1  0.08828107  0.98258619  0.07739571  1
  O  O489  1  0.08602409  0.98095037  0.32796317  1
  O  O490  1  0.08807541  0.98092061  0.57866291  1
  O  O491  1  0.08876569  0.98282536  0.82817689  1
  O  O492  1  0.58726344  0.31608457  0.07837905  1
  O  O493  1  0.58766996  0.31530849  0.32679772  1
  O  O494  1  0.58942775  0.31476172  0.57662431  1
  O  O495  1  0.58757972  0.31536214  0.82692542  1
  O  O496  1  0.58705199  0.64763448  0.07866816  1
  O  O497  1  0.58871216  0.64857164  0.32717349  1
  O  O498  1  0.58742094  0.64844968  0.57706115  1
  O  O499  1  0.58807383  0.64792159  0.82752582  1
  O  O500  1  0.58747300  0.98173731  0.07827294  1
  O  O501  1  0.58795131  0.98088924  0.32758246  1
  O  O502  1  0.58741109  0.98156536  0.57708079  1
  O  O503  1  0.58766747  0.98222141  0.82782267  1
  O  O504  1  0.41380602  0.01928894  0.17264759  1
  O  O505  1  0.41222664  0.01977544  0.42238360  1
  O  O506  1  0.41277340  0.01837370  0.67276603  1
  O  O507  1  0.41413915  0.01965515  0.92292521  1
  O  O508  1  0.41283512  0.35170330  0.17318401  1
  O  O509  1  0.41103469  0.34998969  0.42204906  1
  O  O510  1  0.41172293  0.35149454  0.67203976  1
  O  O511  1  0.41452400  0.35013487  0.92212060  1
  O  O512  1  0.41336840  0.68388729  0.17319045  1
  O  O513  1  0.41340386  0.68444075  0.42229873  1
  O  O514  1  0.41145605  0.68497575  0.67341738  1
  O  O515  1  0.41351317  0.68465127  0.92199956  1
  O  O516  1  0.91492830  0.01957507  0.17247306  1
  O  O517  1  0.91418566  0.01850766  0.42193625  1
  O  O518  1  0.91163869  0.01985598  0.67394723  1
  O  O519  1  0.91382911  0.01950408  0.92287116  1
  O  O520  1  0.91227673  0.35108570  0.17229008  1
  O  O521  1  0.91184169  0.35151637  0.42099441  1
  O  O522  1  0.91413849  0.35107336  0.67249185  1
  O  O523  1  0.91218486  0.35024929  0.92325744  1
  O  O524  1  0.91160996  0.68397033  0.17164161  1
  O  O525  1  0.91277151  0.68476563  0.42245984  1
  O  O526  1  0.91260106  0.68407171  0.67264774  1
  O  O527  1  0.91092054  0.68508882  0.92281931  1
  O  O528  1  0.15996963  0.01978218  0.20248367  1
  O  O529  1  0.16051253  0.01987151  0.45144301  1
  O  O530  1  0.16102428  0.01879921  0.70408271  1
  O  O531  1  0.16018413  0.01897760  0.95337625  1
  O  O532  1  0.16276966  0.35164167  0.20161998  1
  O  O533  1  0.16232170  0.35065726  0.45221032  1
  O  O534  1  0.16089971  0.35141614  0.70248490  1
  O  O535  1  0.16236648  0.35057294  0.95386635  1
  O  O536  1  0.16304630  0.68350566  0.20291363  1
  O  O537  1  0.15976903  0.68479297  0.45156884  1
  O  O538  1  0.16226748  0.68447898  0.70164807  1
  O  O539  1  0.16226771  0.68543143  0.95282873  1
  O  O540  1  0.66158649  0.02015514  0.20181990  1
  O  O541  1  0.66360995  0.01953861  0.45239534  1
  O  O542  1  0.66418182  0.01946129  0.70268913  1
  O  O543  1  0.66123581  0.01893868  0.95228017  1
  O  O544  1  0.66323227  0.35142249  0.20167336  1
  O  O545  1  0.66368266  0.35051321  0.45247980  1
  O  O546  1  0.66265040  0.35009656  0.70362368  1
  O  O547  1  0.66328290  0.35171810  0.95208498  1
  O  O548  1  0.66138037  0.68334793  0.20286478  1
  O  O549  1  0.66406417  0.68477114  0.45164651  1
  O  O550  1  0.66474099  0.68506241  0.70198057  1
  O  O551  1  0.66237060  0.68426826  0.95225851  1
  O  O552  1  0.33764703  0.31473157  0.04822382  1
  O  O553  1  0.33721975  0.31622612  0.29698900  1
  O  O554  1  0.33578322  0.31581827  0.54680021  1
  O  O555  1  0.33616962  0.31522140  0.79858933  1
  O  O556  1  0.33889572  0.64825209  0.04831758  1
  O  O557  1  0.33631171  0.64796879  0.29727905  1
  O  O558  1  0.33664127  0.64717701  0.54713292  1
  O  O559  1  0.33481690  0.64919711  0.79711100  1
  O  O560  1  0.33507123  0.98230330  0.04820153  1
  O  O561  1  0.33668028  0.98116410  0.29743898  1
  O  O562  1  0.33586722  0.98201342  0.54751243  1
  O  O563  1  0.33513550  0.98077403  0.79816533  1
  O  O564  1  0.83907452  0.31608084  0.04731602  1
  O  O565  1  0.83810891  0.31589054  0.29671623  1
  O  O566  1  0.83835696  0.31518730  0.54817208  1
  O  O567  1  0.83875847  0.31413162  0.79851242  1
  O  O568  1  0.83829063  0.64801949  0.04804659  1
  O  O569  1  0.83755037  0.64681544  0.29766491  1
  O  O570  1  0.83967221  0.64962786  0.54681429  1
  O  O571  1  0.83854813  0.64890340  0.79674806  1
  O  O572  1  0.83706046  0.98108450  0.04798927  1
  O  O573  1  0.83814824  0.98207844  0.29784375  1
  O  O574  1  0.83968857  0.98067949  0.54702404  1
  O  O575  1  0.83779322  0.98247433  0.79792519  1
  O  O576  1  0.41380879  0.14944081  0.17250244  1
  O  O577  1  0.41280284  0.15009413  0.42234071  1
  O  O578  1  0.41270045  0.14853586  0.67302924  1
  O  O579  1  0.41421470  0.14987456  0.92217795  1
  O  O580  1  0.41318076  0.48161123  0.17335629  1
  O  O581  1  0.40994460  0.48009915  0.42254051  1
  O  O582  1  0.41211034  0.48159971  0.67204415  1
  O  O583  1  0.41398314  0.48024329  0.92245049  1
  O  O584  1  0.41275119  0.81392916  0.17322953  1
  O  O585  1  0.41341004  0.81452190  0.42223146  1
  O  O586  1  0.41152600  0.81487754  0.67327172  1
  O  O587  1  0.41357908  0.81496405  0.92223620  1
  O  O588  1  0.91500152  0.14964586  0.17240071  1
  O  O589  1  0.91446310  0.14879256  0.42219954  1
  O  O590  1  0.91210785  0.14995571  0.67308140  1
  O  O591  1  0.91375328  0.14954749  0.92235116  1
  O  O592  1  0.91178170  0.48105616  0.17261052  1
  O  O593  1  0.91169815  0.48193868  0.42069951  1
  O  O594  1  0.91388803  0.48114070  0.67252844  1
  O  O595  1  0.91136969  0.48022608  0.92370679  1
  O  O596  1  0.91097309  0.81416123  0.17159655  1
  O  O597  1  0.91310209  0.81495618  0.42277978  1
  O  O598  1  0.91271591  0.81411341  0.67354895  1
  O  O599  1  0.91130641  0.81501944  0.92303818  1
  O  O600  1  0.08841835  0.18619314  0.07777034  1
  O  O601  1  0.08744688  0.18461822  0.32755269  1
  O  O602  1  0.08792114  0.18647133  0.57716221  1
  O  O603  1  0.08746298  0.18462447  0.82761743  1
  O  O604  1  0.08633112  0.51694021  0.07842174  1
  O  O605  1  0.08616697  0.51941842  0.32579142  1
  O  O606  1  0.08640986  0.51767150  0.57796118  1
  O  O607  1  0.08812602  0.51839061  0.82733690  1
  O  O608  1  0.08841885  0.85241535  0.07649837  1
  O  O609  1  0.08504680  0.85076633  0.32747711  1
  O  O610  1  0.08742849  0.85054354  0.57871932  1
  O  O611  1  0.08929505  0.85259992  0.82727523  1
  O  O612  1  0.58733271  0.18597092  0.07838445  1
  O  O613  1  0.58798446  0.18549458  0.32699335  1
  O  O614  1  0.58930934  0.18488699  0.57680090  1
  O  O615  1  0.58783901  0.18536598  0.82699593  1
  O  O616  1  0.58689794  0.51733307  0.07855765  1
  O  O617  1  0.58879975  0.51859073  0.32660604  1
  O  O618  1  0.58704666  0.51829589  0.57661738  1
  O  O619  1  0.58830046  0.51751004  0.82813862  1
  O  O620  1  0.58725932  0.85122757  0.07797807  1
  O  O621  1  0.58733526  0.85067287  0.32767475  1
  O  O622  1  0.58761443  0.85135200  0.57721918  1
  O  O623  1  0.58764837  0.85170110  0.82735422  1
  O  O624  1  0.33765818  0.18477791  0.04805792  1
  O  O625  1  0.33729724  0.18615285  0.29787829  1
  O  O626  1  0.33598865  0.18572669  0.54741712  1
  O  O627  1  0.33585694  0.18531263  0.79901757  1
  O  O628  1  0.33874019  0.51826175  0.04855284  1
  O  O629  1  0.33687270  0.51767166  0.29648247  1
  O  O630  1  0.33613185  0.51689530  0.54684617  1
  O  O631  1  0.33509326  0.51896149  0.79769920  1
  O  O632  1  0.33532603  0.85211141  0.04784143  1
  O  O633  1  0.33683914  0.85070449  0.29722539  1
  O  O634  1  0.33581536  0.85163692  0.54729118  1
  O  O635  1  0.33509535  0.85050071  0.79723860  1
  O  O636  1  0.83961085  0.18606914  0.04811487  1
  O  O637  1  0.83795971  0.18590515  0.29761421  1
  O  O638  1  0.83871083  0.18536201  0.54804709  1
  O  O639  1  0.83825100  0.18423241  0.79825191  1
  O  O640  1  0.83842887  0.51793677  0.04802058  1
  O  O641  1  0.83719219  0.51677855  0.29698235  1
  O  O642  1  0.84050069  0.51953577  0.54765005  1
  O  O643  1  0.83875331  0.51861477  0.79719001  1
  O  O644  1  0.83695261  0.85065368  0.04735792  1
  O  O645  1  0.83821632  0.85205346  0.29785529  1
  O  O646  1  0.83875286  0.85041147  0.54653417  1
  O  O647  1  0.83841320  0.85213723  0.79756139  1
  O  O648  1  0.16094698  0.15002144  0.20288500  1
  O  O649  1  0.16096005  0.14989510  0.45201682  1
  O  O650  1  0.16115875  0.14920268  0.70377594  1
  O  O651  1  0.16054476  0.14916511  0.95308471  1
  O  O652  1  0.16274491  0.48155735  0.20167352  1
  O  O653  1  0.16209351  0.48067799  0.45179826  1
  O  O654  1  0.16105833  0.48158330  0.70227355  1
  O  O655  1  0.16160718  0.48077352  0.95375877  1
  O  O656  1  0.16226415  0.81368616  0.20297352  1
  O  O657  1  0.16037046  0.81471358  0.45161248  1
  O  O658  1  0.16195129  0.81456417  0.70197225  1
  O  O659  1  0.16266220  0.81559934  0.95313073  1
  O  O660  1  0.66264530  0.15031462  0.20199071  1
  O  O661  1  0.66361942  0.14975309  0.45274263  1
  O  O662  1  0.66425091  0.14970791  0.70325158  1
  O  O663  1  0.66140252  0.14895118  0.95218272  1
  O  O664  1  0.66334720  0.48138549  0.20171492  1
  O  O665  1  0.66317822  0.48067595  0.45233045  1
  O  O666  1  0.66232013  0.48036947  0.70280156  1
  O  O667  1  0.66313920  0.48162727  0.95240554  1
  O  O668  1  0.66072934  0.81354140  0.20221544  1
  O  O669  1  0.66426221  0.81473460  0.45153239  1
  O  O670  1  0.66439937  0.81517783  0.70244234  1
  O  O671  1  0.66251587  0.81427291  0.95204217  1
