# generated using pymatgen
data_Na2MnFe(PO4)2
_symmetry_space_group_name_H-M   'P 1'
_cell_length_a   21.08540360
_cell_length_b   18.93777281
_cell_length_c   20.04444739
_cell_angle_alpha   90.00030424
_cell_angle_beta   89.99741496
_cell_angle_gamma   90.00012107
_symmetry_Int_Tables_number   1
_chemical_formula_structural   Na2MnFe(PO4)2
_chemical_formula_sum   'Na96 Mn48 Fe48 P96 O384'
_cell_volume   8003.95996327
_cell_formula_units_Z   48
loop_
 _symmetry_equiv_pos_site_id
 _symmetry_equiv_pos_as_xyz
  1  'x, y, z'
loop_
 _atom_site_type_symbol
 _atom_site_label
 _atom_site_symmetry_multiplicity
 _atom_site_fract_x
 _atom_site_fract_y
 _atom_site_fract_z
 _atom_site_occupancy
  Na  Na0  1  0.00055899  0.00010726  -0.00043271  1
  Na  Na1  1  0.00201495  0.00010892  0.24944698  1
  Na  Na2  1  -0.00042644  -0.00031414  0.50048708  1
  Na  Na3  1  -0.00145699  -0.00030709  0.75115270  1
  Na  Na4  1  -0.00010964  0.33346041  0.00069162  1
  Na  Na5  1  -0.00031590  0.33324822  0.24916102  1
  Na  Na6  1  0.00112062  0.33407690  0.49892263  1
  Na  Na7  1  0.00047135  0.33379035  0.75091927  1
  Na  Na8  1  0.00155345  0.66731963  -0.00016528  1
  Na  Na9  1  0.00246168  0.66697245  0.25016230  1
  Na  Na10  1  0.00238804  0.66749585  0.50070004  1
  Na  Na11  1  -0.00140597  0.66576264  0.74974561  1
  Na  Na12  1  0.49857859  -0.00014831  -0.00053203  1
  Na  Na13  1  0.49952929  0.00071866  0.24925781  1
  Na  Na14  1  0.50011701  -0.00029409  0.50084982  1
  Na  Na15  1  0.50119231  0.00057788  0.75067257  1
  Na  Na16  1  0.50015777  0.33314586  -0.00038290  1
  Na  Na17  1  0.49977081  0.33394437  0.24974212  1
  Na  Na18  1  0.50010549  0.33330795  0.50072088  1
  Na  Na19  1  0.50212138  0.33345939  0.75024949  1
  Na  Na20  1  0.50115481  0.66701916  -0.00014092  1
  Na  Na21  1  0.49869083  0.66577032  0.24910810  1
  Na  Na22  1  0.50139416  0.66733889  0.49917900  1
  Na  Na23  1  0.50085136  0.66666564  0.75091023  1
  Na  Na24  1  0.24966162  0.00023538  0.12537553  1
  Na  Na25  1  0.24854267  -0.00090850  0.37441984  1
  Na  Na26  1  0.25221395  0.00057025  0.62589481  1
  Na  Na27  1  0.25046308  0.00015897  0.87361339  1
  Na  Na28  1  0.24668044  0.33222411  0.12442238  1
  Na  Na29  1  0.24954228  0.33407336  0.37555188  1
  Na  Na30  1  0.24942766  0.33394114  0.62614702  1
  Na  Na31  1  0.24940118  0.33408727  0.87474424  1
  Na  Na32  1  0.25043674  0.66710371  0.12493769  1
  Na  Na33  1  0.24868659  0.66578558  0.37446280  1
  Na  Na34  1  0.24908247  0.66629579  0.62436122  1
  Na  Na35  1  0.24836686  0.66651565  0.87612778  1
  Na  Na36  1  0.75171397  0.00038631  0.12606272  1
  Na  Na37  1  0.74893120  -0.00049857  0.37464409  1
  Na  Na38  1  0.75009572  0.00050537  0.62508354  1
  Na  Na39  1  0.74876977  -0.00077184  0.87478816  1
  Na  Na40  1  0.75211660  0.33369739  0.12489614  1
  Na  Na41  1  0.75060511  0.33391781  0.37454204  1
  Na  Na42  1  0.74679312  0.33175284  0.62480555  1
  Na  Na43  1  0.75066454  0.33321890  0.87502907  1
  Na  Na44  1  0.74902613  0.66609608  0.12554115  1
  Na  Na45  1  0.74835265  0.66589921  0.37494469  1
  Na  Na46  1  0.75074296  0.66766086  0.62506841  1
  Na  Na47  1  0.74882953  0.66611186  0.87409182  1
  Na  Na48  1  -0.00040783  0.16717612  -0.00011414  1
  Na  Na49  1  0.00162009  0.16617352  0.24929978  1
  Na  Na50  1  0.00173617  0.16576129  0.50044117  1
  Na  Na51  1  -0.00236967  0.16755236  0.75081192  1
  Na  Na52  1  -0.00030265  0.50042368  0.00059062  1
  Na  Na53  1  0.00117941  0.49962002  0.25012059  1
  Na  Na54  1  0.00022039  0.50094710  0.49916830  1
  Na  Na55  1  0.00241745  0.49922625  0.75021159  1
  Na  Na56  1  0.00205675  0.83282283  -0.00064538  1
  Na  Na57  1  0.00251414  0.83284623  0.24958009  1
  Na  Na58  1  -0.00008453  0.83382616  0.50023586  1
  Na  Na59  1  -0.00102111  0.83363884  0.75113968  1
  Na  Na60  1  0.50197721  0.16561395  -0.00073671  1
  Na  Na61  1  0.50027718  0.16694291  0.24878214  1
  Na  Na62  1  0.50325974  0.16567110  0.50100779  1
  Na  Na63  1  0.50185753  0.16653694  0.75072862  1
  Na  Na64  1  0.49813691  0.50091376  0.00061837  1
  Na  Na65  1  0.49870686  0.50016436  0.24894243  1
  Na  Na66  1  0.49862551  0.50071926  0.49978101  1
  Na  Na67  1  0.50170391  0.49898511  0.75073121  1
  Na  Na68  1  0.49984043  0.83283920  -0.00084698  1
  Na  Na69  1  0.49780505  0.83326496  0.25004010  1
  Na  Na70  1  0.50000437  0.83270204  0.49992446  1
  Na  Na71  1  0.50075526  0.83294083  0.75042330  1
  Na  Na72  1  0.24930774  0.16614714  0.12515465  1
  Na  Na73  1  0.24724482  0.16783375  0.37518738  1
  Na  Na74  1  0.25151605  0.16581283  0.62526862  1
  Na  Na75  1  0.24919850  0.16712963  0.87448915  1
  Na  Na76  1  0.25011998  0.49964272  0.12462595  1
  Na  Na77  1  0.24999786  0.50039316  0.37465459  1
  Na  Na78  1  0.24803331  0.50071673  0.62523904  1
  Na  Na79  1  0.24886798  0.49967301  0.87539252  1
  Na  Na80  1  0.24846456  0.83353231  0.12469745  1
  Na  Na81  1  0.24864348  0.83370130  0.37473759  1
  Na  Na82  1  0.25219265  0.83215169  0.62576283  1
  Na  Na83  1  0.24895967  0.83398162  0.87479281  1
  Na  Na84  1  0.74997674  0.16713581  0.12496594  1
  Na  Na85  1  0.74782496  0.16754164  0.37417680  1
  Na  Na86  1  0.74807836  0.16630857  0.62521536  1
  Na  Na87  1  0.74876323  0.16719202  0.87537511  1
  Na  Na88  1  0.75212832  0.50008199  0.12534078  1
  Na  Na89  1  0.75047499  0.50012731  0.37552712  1
  Na  Na90  1  0.75063760  0.49976185  0.62487960  1
  Na  Na91  1  0.75092345  0.50059858  0.87387782  1
  Na  Na92  1  0.75115385  0.83209365  0.12612529  1
  Na  Na93  1  0.74888917  0.83342277  0.37465072  1
  Na  Na94  1  0.74955451  0.83296883  0.62467576  1
  Na  Na95  1  0.74822949  0.83376895  0.87461619  1
  Mn  Mn96  1  0.89213528  0.91675867  0.87765223  1
  Mn  Mn97  1  0.64204267  0.58287235  0.49771218  1
  Mn  Mn98  1  0.14222902  0.25008453  0.49830912  1
  Mn  Mn99  1  0.10829690  0.41650586  0.37221322  1
  Mn  Mn100  1  0.64165258  0.91694297  0.49768538  1
  Mn  Mn101  1  0.35834073  0.08405002  0.50200063  1
  Mn  Mn102  1  0.60826281  0.41684642  0.12208851  1
  Mn  Mn103  1  0.39199120  0.58377186  0.62775250  1
  Mn  Mn104  1  0.14179900  0.25016879  0.74765011  1
  Mn  Mn105  1  0.89324507  0.91656500  0.37684735  1
  Mn  Mn106  1  0.35668951  0.41666741  0.25175883  1
  Mn  Mn107  1  0.85751057  0.08356556  0.50176054  1
  Mn  Mn108  1  0.39360488  0.24959302  0.62744757  1
  Mn  Mn109  1  0.64259158  0.58322496  0.74696936  1
  Mn  Mn110  1  0.35684494  0.08348496  0.25291905  1
  Mn  Mn111  1  0.39280857  0.25007133  0.87745269  1
  Mn  Mn112  1  0.10742639  0.08341120  0.62365217  1
  Mn  Mn113  1  0.60717360  0.08288204  0.12247719  1
  Mn  Mn114  1  0.85831916  0.08359036  0.25253076  1
  Mn  Mn115  1  0.35794651  0.74945030  0.50214949  1
  Mn  Mn116  1  0.14211759  0.58319747  0.99802553  1
  Mn  Mn117  1  0.14219572  0.91627548  0.49907998  1
  Mn  Mn118  1  0.85803294  0.75013955  0.50166781  1
  Mn  Mn119  1  0.85851378  0.74931519  0.25249932  1
  Mn  Mn120  1  0.85791681  0.74951095  0.00199456  1
  Mn  Mn121  1  0.60864761  0.41655060  0.87365499  1
  Mn  Mn122  1  0.60714600  0.41719267  0.37225639  1
  Mn  Mn123  1  0.89157836  0.25030096  0.62722014  1
  Mn  Mn124  1  0.39285749  0.91652128  0.87718682  1
  Mn  Mn125  1  0.85804561  0.41625559  0.75165351  1
  Mn  Mn126  1  0.64231345  0.25126973  0.24735113  1
  Mn  Mn127  1  0.39177618  0.25021627  0.37724631  1
  Mn  Mn128  1  0.39137859  0.25014129  0.12639489  1
  Mn  Mn129  1  0.64195397  0.91630050  0.99863322  1
  Mn  Mn130  1  0.10792966  0.08335333  0.12169462  1
  Mn  Mn131  1  0.14283880  0.91649645  0.74729644  1
  Mn  Mn132  1  0.39216680  0.58313214  0.87694259  1
  Mn  Mn133  1  0.39180307  0.91670842  0.37732418  1
  Mn  Mn134  1  0.89316158  0.58412361  0.37696117  1
  Mn  Mn135  1  0.35760221  0.41710154  0.75215394  1
  Mn  Mn136  1  0.35708326  0.75031597  0.00222450  1
  Mn  Mn137  1  0.60684220  0.75033178  0.12304798  1
  Mn  Mn138  1  0.89278437  0.58297236  0.87730229  1
  Mn  Mn139  1  0.85754367  0.08322351  0.00202827  1
  Mn  Mn140  1  0.85783761  0.41623410  0.50269248  1
  Mn  Mn141  1  0.10740523  0.75026103  0.62340808  1
  Mn  Mn142  1  0.64157739  0.91606714  0.24709969  1
  Mn  Mn143  1  0.89278525  0.24922758  0.37736591  1
  Fe  Fe144  1  0.85665306  0.75070710  0.75161455  1
  Fe  Fe145  1  0.35856757  0.08337749  0.75213277  1
  Fe  Fe146  1  0.35636396  0.41583718  0.00167035  1
  Fe  Fe147  1  0.14261183  0.91639908  0.24764982  1
  Fe  Fe148  1  0.85820203  0.41711827  0.00151874  1
  Fe  Fe149  1  0.60760818  0.08284233  0.62354851  1
  Fe  Fe150  1  0.35604240  0.74979068  0.25133453  1
  Fe  Fe151  1  0.60759732  0.41704916  0.62270482  1
  Fe  Fe152  1  0.89373027  0.91619321  0.12655916  1
  Fe  Fe153  1  0.14236463  0.58396260  0.74833791  1
  Fe  Fe154  1  0.89148511  0.91636555  0.62713907  1
  Fe  Fe155  1  0.10814251  0.08274005  0.37369961  1
  Fe  Fe156  1  0.60659352  0.74976547  0.37266992  1
  Fe  Fe157  1  0.64366166  0.25075812  0.99849863  1
  Fe  Fe158  1  0.89360172  0.58377824  0.62622656  1
  Fe  Fe159  1  0.64328001  0.24966923  0.74860181  1
  Fe  Fe160  1  0.14272105  0.58329004  0.49817758  1
  Fe  Fe161  1  0.14191024  0.24931746  0.99784285  1
  Fe  Fe162  1  0.39356245  0.91649103  0.62677170  1
  Fe  Fe163  1  0.39094801  0.91625861  0.12637538  1
  Fe  Fe164  1  0.60724345  0.08283892  0.37288579  1
  Fe  Fe165  1  0.39238021  0.58378995  0.12669044  1
  Fe  Fe166  1  0.64283678  0.91684082  0.74780727  1
  Fe  Fe167  1  0.89312511  0.25000353  0.12660123  1
  Fe  Fe168  1  0.64211865  0.25022463  0.49753567  1
  Fe  Fe169  1  0.89239605  0.25006559  0.87675949  1
  Fe  Fe170  1  0.14178595  0.25034987  0.24780786  1
  Fe  Fe171  1  0.10752587  0.74956094  0.12335934  1
  Fe  Fe172  1  0.14312669  0.58323743  0.24753581  1
  Fe  Fe173  1  0.60720579  0.74981009  0.62339315  1
  Fe  Fe174  1  0.35699220  0.41673604  0.50224724  1
  Fe  Fe175  1  0.10637538  0.41706946  0.12298786  1
  Fe  Fe176  1  0.60775407  0.08254561  0.87319619  1
  Fe  Fe177  1  0.85629477  0.08301064  0.75177160  1
  Fe  Fe178  1  0.85788609  0.41721076  0.25138511  1
  Fe  Fe179  1  0.64300808  0.58262393  0.99904067  1
  Fe  Fe180  1  0.10735401  0.41667952  0.62318185  1
  Fe  Fe181  1  0.10752834  0.74992326  0.87217975  1
  Fe  Fe182  1  0.89282424  0.58392516  0.12706353  1
  Fe  Fe183  1  0.10853356  0.75072423  0.37288336  1
  Fe  Fe184  1  0.10702136  0.41666377  0.87377813  1
  Fe  Fe185  1  0.35781640  0.74963000  0.75178183  1
  Fe  Fe186  1  0.10730862  0.08366305  0.87272203  1
  Fe  Fe187  1  0.64234992  0.58282972  0.24806756  1
  Fe  Fe188  1  0.39220146  0.58319578  0.37629371  1
  Fe  Fe189  1  0.60780190  0.75020343  0.87293917  1
  Fe  Fe190  1  0.35677770  0.08400478  0.00078488  1
  Fe  Fe191  1  0.14273796  0.91775303  0.99812493  1
  P  P192  1  0.05390819  0.25089523  0.11034733  1
  P  P193  1  0.05427840  0.24926154  0.35915447  1
  P  P194  1  0.05279106  0.25075181  0.61028414  1
  P  P195  1  0.05345134  0.24990586  0.86159845  1
  P  P196  1  0.05353111  0.58327215  0.11144638  1
  P  P197  1  0.05602495  0.58430482  0.36033960  1
  P  P198  1  0.05445010  0.58287927  0.61069357  1
  P  P199  1  0.05434175  0.58326034  0.85977595  1
  P  P200  1  0.05448651  0.91580571  0.11013415  1
  P  P201  1  0.05491324  0.91660473  0.35962862  1
  P  P202  1  0.05136650  0.91676848  0.61087782  1
  P  P203  1  0.05524838  0.91716946  0.86121891  1
  P  P204  1  0.55386640  0.25025974  0.10872717  1
  P  P205  1  0.55403867  0.24960603  0.36060187  1
  P  P206  1  0.55622623  0.24977948  0.61124189  1
  P  P207  1  0.55611178  0.24930896  0.86096776  1
  P  P208  1  0.55355445  0.58333348  0.11035199  1
  P  P209  1  0.55240951  0.58359720  0.35893954  1
  P  P210  1  0.55323564  0.58359609  0.61006478  1
  P  P211  1  0.55523517  0.58356864  0.86143479  1
  P  P212  1  0.55057199  0.91633631  0.10972153  1
  P  P213  1  0.55303765  0.91657489  0.35977924  1
  P  P214  1  0.55381349  0.91634582  0.61172168  1
  P  P215  1  0.55479822  0.91656314  0.85968515  1
  P  P216  1  0.44406073  0.08292364  0.13840330  1
  P  P217  1  0.44805946  0.08366839  0.39010458  1
  P  P218  1  0.44793085  0.08277026  0.64075696  1
  P  P219  1  0.44654391  0.08341241  0.88945055  1
  P  P220  1  0.44502267  0.41703022  0.13848848  1
  P  P221  1  0.44523831  0.41757245  0.39039416  1
  P  P222  1  0.44724746  0.41667784  0.63928734  1
  P  P223  1  0.44624196  0.41658061  0.89089585  1
  P  P224  1  0.44481131  0.74989565  0.14014015  1
  P  P225  1  0.44595090  0.74886189  0.38822942  1
  P  P226  1  0.44741552  0.75026950  0.64064459  1
  P  P227  1  0.44686012  0.74968265  0.88897528  1
  P  P228  1  0.94660360  0.08312506  0.13941928  1
  P  P229  1  0.94872610  0.08307672  0.39000883  1
  P  P230  1  0.94533682  0.08268086  0.64108740  1
  P  P231  1  0.94627028  0.08400146  0.88885232  1
  P  P232  1  0.94562702  0.41707082  0.13901043  1
  P  P233  1  0.94590106  0.41692993  0.38875134  1
  P  P234  1  0.94819543  0.41763959  0.63983348  1
  P  P235  1  0.94720375  0.41605812  0.89054047  1
  P  P236  1  0.94812581  0.74997806  0.13965291  1
  P  P237  1  0.94915887  0.75001382  0.38999359  1
  P  P238  1  0.94573594  0.75014049  0.64065080  1
  P  P239  1  0.94698031  0.75000549  0.88882465  1
  P  P240  1  0.19473501  0.08328125  0.23599296  1
  P  P241  1  0.19652090  0.08286421  0.48489181  1
  P  P242  1  0.19732551  0.08342437  0.73598078  1
  P  P243  1  0.19688383  0.08327834  0.98405681  1
  P  P244  1  0.19533762  0.41695636  0.23401953  1
  P  P245  1  0.19633156  0.41754604  0.48627830  1
  P  P246  1  0.19428952  0.41779975  0.73588877  1
  P  P247  1  0.19519652  0.41596059  0.98583794  1
  P  P248  1  0.19563070  0.74967675  0.23535862  1
  P  P249  1  0.19614688  0.74940783  0.48474032  1
  P  P250  1  0.19700246  0.74927024  0.73610491  1
  P  P251  1  0.19438161  0.75094258  0.98563567  1
  P  P252  1  0.69543905  0.08342081  0.23559508  1
  P  P253  1  0.69453707  0.08385082  0.48521910  1
  P  P254  1  0.69574461  0.08300265  0.73616033  1
  P  P255  1  0.69602056  0.08374023  0.98477472  1
  P  P256  1  0.69788562  0.41787675  0.23474903  1
  P  P257  1  0.69538642  0.41614912  0.48565014  1
  P  P258  1  0.69629552  0.41582598  0.73448020  1
  P  P259  1  0.69892225  0.41719529  0.98529725  1
  P  P260  1  0.69519732  0.74866401  0.23614649  1
  P  P261  1  0.69463723  0.74995541  0.48506476  1
  P  P262  1  0.69579521  0.75091853  0.73536246  1
  P  P263  1  0.69593427  0.74885956  0.98470324  1
  P  P264  1  0.30137950  0.24989083  0.01429488  1
  P  P265  1  0.30116042  0.25030821  0.26486056  1
  P  P266  1  0.30350739  0.25113606  0.51558300  1
  P  P267  1  0.30384090  0.24976411  0.76506103  1
  P  P268  1  0.30378255  0.58260586  0.01535071  1
  P  P269  1  0.30371179  0.58410746  0.26386885  1
  P  P270  1  0.30332529  0.58250637  0.51385813  1
  P  P271  1  0.30184342  0.58413283  0.76525080  1
  P  P272  1  0.30229804  0.91772069  0.01481435  1
  P  P273  1  0.30279834  0.91554478  0.26360096  1
  P  P274  1  0.30421317  0.91662334  0.51605984  1
  P  P275  1  0.30583789  0.91629043  0.76367157  1
  P  P276  1  0.80468091  0.25073876  0.01420574  1
  P  P277  1  0.80519684  0.25100825  0.26375091  1
  P  P278  1  0.80150392  0.24962170  0.51491489  1
  P  P279  1  0.80290176  0.24898678  0.76537536  1
  P  P280  1  0.80330404  0.58306768  0.01536762  1
  P  P281  1  0.80379433  0.58278651  0.26421568  1
  P  P282  1  0.80422683  0.58363636  0.51565818  1
  P  P283  1  0.80522720  0.58427692  0.76325271  1
  P  P284  1  0.80368520  0.91612704  0.01612363  1
  P  P285  1  0.80475828  0.91620126  0.26415359  1
  P  P286  1  0.80358338  0.91667684  0.51538708  1
  P  P287  1  0.80325999  0.91653307  0.76383398  1
  O  O288  1  0.05855077  0.25013796  0.18700546  1
  O  O289  1  0.05719773  0.25024190  0.43597540  1
  O  O290  1  0.05561983  0.25023743  0.68709665  1
  O  O291  1  0.05801253  0.24952511  0.93831900  1
  O  O292  1  0.05828597  0.58317747  0.18807677  1
  O  O293  1  0.05962365  0.58343820  0.43716835  1
  O  O294  1  0.05865152  0.58369460  0.68741089  1
  O  O295  1  0.05685493  0.58343297  0.93661663  1
  O  O296  1  0.05920102  0.91652893  0.18684052  1
  O  O297  1  0.05709472  0.91666619  0.43643422  1
  O  O298  1  0.05577296  0.91665435  0.68754565  1
  O  O299  1  0.05922458  0.91747513  0.93797697  1
  O  O300  1  0.55695497  0.25090676  0.18555175  1
  O  O301  1  0.55791246  0.25045688  0.43739175  1
  O  O302  1  0.55980503  0.24992437  0.68808578  1
  O  O303  1  0.56037277  0.25044517  0.93770934  1
  O  O304  1  0.55842888  0.58249771  0.18698235  1
  O  O305  1  0.55635960  0.58297426  0.43563430  1
  O  O306  1  0.55628568  0.58312183  0.68686908  1
  O  O307  1  0.55923128  0.58277958  0.93817780  1
  O  O308  1  0.55473644  0.91641905  0.18637939  1
  O  O309  1  0.55581277  0.91637690  0.43659515  1
  O  O310  1  0.55830867  0.91656793  0.68837898  1
  O  O311  1  0.55707370  0.91657342  0.93647259  1
  O  O312  1  0.43983976  0.08368546  0.06160987  1
  O  O313  1  0.44363300  0.08409040  0.31337079  1
  O  O314  1  0.44415427  0.08355075  0.56405586  1
  O  O315  1  0.44176253  0.08388218  0.81276530  1
  O  O316  1  0.44028217  0.41595024  0.06179449  1
  O  O317  1  0.44207740  0.41669190  0.31355602  1
  O  O318  1  0.44180358  0.41692320  0.56268608  1
  O  O319  1  0.44322513  0.41635594  0.81406757  1
  O  O320  1  0.44258363  0.74995284  0.06327380  1
  O  O321  1  0.44064482  0.74937615  0.31166468  1
  O  O322  1  0.44369234  0.74948130  0.56388866  1
  O  O323  1  0.44172934  0.74936001  0.81235309  1
  O  O324  1  0.94355231  0.08328615  0.06264671  1
  O  O325  1  0.94476318  0.08336398  0.31332655  1
  O  O326  1  0.94282891  0.08333134  0.56425715  1
  O  O327  1  0.94070442  0.08339514  0.81228002  1
  O  O328  1  0.94132686  0.41733768  0.06225230  1
  O  O329  1  0.94172842  0.41699500  0.31199349  1
  O  O330  1  0.94447260  0.41691111  0.56310409  1
  O  O331  1  0.94345586  0.41659070  0.81385467  1
  O  O332  1  0.94453198  0.74978753  0.06296690  1
  O  O333  1  0.94507445  0.74959172  0.31331376  1
  O  O334  1  0.94344842  0.75033888  0.56383857  1
  O  O335  1  0.94124693  0.75026238  0.81229464  1
  O  O336  1  0.19343305  0.08323712  0.06083943  1
  O  O337  1  0.19116405  0.08317716  0.31274678  1
  O  O338  1  0.19363472  0.08278881  0.56170772  1
  O  O339  1  0.19168036  0.08356045  0.81257939  1
  O  O340  1  0.19023726  0.41678773  0.06249491  1
  O  O341  1  0.19345714  0.41698513  0.31088823  1
  O  O342  1  0.19162142  0.41701137  0.56296611  1
  O  O343  1  0.19014485  0.41664514  0.81267369  1
  O  O344  1  0.19051670  0.74978327  0.06245305  1
  O  O345  1  0.19197700  0.74992677  0.31209415  1
  O  O346  1  0.19307828  0.75019945  0.56155527  1
  O  O347  1  0.19203740  0.75006479  0.81278506  1
  O  O348  1  0.69327588  0.08294431  0.06159316  1
  O  O349  1  0.69089900  0.08298801  0.31235794  1
  O  O350  1  0.69071019  0.08257809  0.56206102  1
  O  O351  1  0.69168099  0.08264478  0.81286370  1
  O  O352  1  0.69539292  0.41714890  0.06195377  1
  O  O353  1  0.69377074  0.41733180  0.31142007  1
  O  O354  1  0.69110409  0.41709879  0.56239499  1
  O  O355  1  0.69382711  0.41705243  0.81126905  1
  O  O356  1  0.69290801  0.74975201  0.06151198  1
  O  O357  1  0.69048779  0.74959518  0.31287301  1
  O  O358  1  0.69041754  0.75000591  0.56186691  1
  O  O359  1  0.69129571  0.75010016  0.81207113  1
  O  O360  1  0.30529216  0.24994842  0.18820416  1
  O  O361  1  0.30606802  0.25049041  0.43876823  1
  O  O362  1  0.30745848  0.25005049  0.68832117  1
  O  O363  1  0.30553208  0.25033048  0.93767562  1
  O  O364  1  0.30838639  0.58348268  0.18720736  1
  O  O365  1  0.30800361  0.58326163  0.43719360  1
  O  O366  1  0.30552497  0.58368161  0.68849027  1
  O  O367  1  0.30655852  0.58328010  0.93856824  1
  O  O368  1  0.30731784  0.91619939  0.18693558  1
  O  O369  1  0.30668113  0.91655036  0.43917106  1
  O  O370  1  0.31020571  0.91628998  0.68693794  1
  O  O371  1  0.30631689  0.91678827  0.93809735  1
  O  O372  1  0.80970959  0.24988247  0.18695873  1
  O  O373  1  0.80597853  0.24973936  0.43822663  1
  O  O374  1  0.80610700  0.24964623  0.68864027  1
  O  O375  1  0.80920941  0.24995437  0.93745176  1
  O  O376  1  0.80904355  0.58408622  0.18753542  1
  O  O377  1  0.80744207  0.58377159  0.43883696  1
  O  O378  1  0.80964028  0.58351150  0.68658118  1
  O  O379  1  0.80698936  0.58386036  0.93860963  1
  O  O380  1  0.81006906  0.91598141  0.18744208  1
  O  O381  1  0.80707756  0.91649803  0.43858752  1
  O  O382  1  0.80762091  0.91642658  0.68715740  1
  O  O383  1  0.80654872  0.91612928  0.93925232  1
  O  O384  1  0.23120425  0.24927885  0.03871567  1
  O  O385  1  0.23103123  0.25089523  0.28903035  1
  O  O386  1  0.23401185  0.25023992  0.54129170  1
  O  O387  1  0.23396079  0.25046261  0.78963982  1
  O  O388  1  0.23392985  0.58322539  0.04024029  1
  O  O389  1  0.23326259  0.58324766  0.28727895  1
  O  O390  1  0.23304832  0.58314620  0.53780437  1
  O  O391  1  0.23196317  0.58352744  0.79017485  1
  O  O392  1  0.23212217  0.91722159  0.03910745  1
  O  O393  1  0.23247273  0.91595970  0.28732175  1
  O  O394  1  0.23464771  0.91635771  0.54160635  1
  O  O395  1  0.23576990  0.91666891  0.78772406  1
  O  O396  1  0.73425691  0.25029786  0.03791312  1
  O  O397  1  0.73511505  0.25099473  0.28764497  1
  O  O398  1  0.73143840  0.24943813  0.53905574  1
  O  O399  1  0.73280839  0.24981231  0.78986881  1
  O  O400  1  0.73319195  0.58316281  0.03984343  1
  O  O401  1  0.73350401  0.58293248  0.28797141  1
  O  O402  1  0.73440011  0.58354688  0.54033330  1
  O  O403  1  0.73511505  0.58368852  0.78721598  1
  O  O404  1  0.73398767  0.91623903  0.04129346  1
  O  O405  1  0.73452382  0.91616913  0.28750937  1
  O  O406  1  0.73370740  0.91673114  0.53992964  1
  O  O407  1  0.73296195  0.91674039  0.78777280  1
  O  O408  1  0.26459539  0.08316386  0.21127248  1
  O  O409  1  0.26611536  0.08342603  0.45939545  1
  O  O410  1  0.26784015  0.08319082  0.71292828  1
  O  O411  1  0.26699626  0.08364618  0.95946694  1
  O  O412  1  0.26486818  0.41650407  0.20839095  1
  O  O413  1  0.26641584  0.41724752  0.46195129  1
  O  O414  1  0.26439622  0.41720381  0.71185507  1
  O  O415  1  0.26564666  0.41669599  0.96229366  1
  O  O416  1  0.26577768  0.74974901  0.21087916  1
  O  O417  1  0.26585108  0.74980193  0.45964202  1
  O  O418  1  0.26725298  0.74944078  0.71218248  1
  O  O419  1  0.26451590  0.75023518  0.96153416  1
  O  O420  1  0.76553227  0.08382547  0.21175041  1
  O  O421  1  0.76449080  0.08335489  0.46065023  1
  O  O422  1  0.76601431  0.08307245  0.71195859  1
  O  O423  1  0.76574137  0.08315288  0.95958430  1
  O  O424  1  0.76792595  0.41723284  0.21031664  1
  O  O425  1  0.76537636  0.41677477  0.46143926  1
  O  O426  1  0.76599690  0.41585491  0.70917433  1
  O  O427  1  0.76885596  0.41712484  0.96014902  1
  O  O428  1  0.76531280  0.74888262  0.21231208  1
  O  O429  1  0.76474181  0.74985388  0.46101894  1
  O  O430  1  0.76613995  0.75052626  0.71164660  1
  O  O431  1  0.76563029  0.74970086  0.95944877  1
  O  O432  1  0.01642258  0.08318871  0.16420366  1
  O  O433  1  0.01871829  0.08270937  0.41452832  1
  O  O434  1  0.01497317  0.08341081  0.66664032  1
  O  O435  1  0.01668097  0.08361333  0.91235680  1
  O  O436  1  0.01603989  0.41673215  0.16278992  1
  O  O437  1  0.01599863  0.41721063  0.41268481  1
  O  O438  1  0.01809580  0.41690612  0.66473632  1
  O  O439  1  0.01736038  0.41682180  0.91488059  1
  O  O440  1  0.01821941  0.74975177  0.16424651  1
  O  O441  1  0.01915733  0.75066055  0.41443326  1
  O  O442  1  0.01541391  0.75005382  0.66613950  1
  O  O443  1  0.01750504  0.74997016  0.91181781  1
  O  O444  1  0.51411416  0.08363570  0.16253289  1
  O  O445  1  0.51804265  0.08279659  0.41451409  1
  O  O446  1  0.51819624  0.08345110  0.66487271  1
  O  O447  1  0.51701702  0.08259105  0.91265214  1
  O  O448  1  0.51511722  0.41692469  0.16248018  1
  O  O449  1  0.51504190  0.41711467  0.41515441  1
  O  O450  1  0.51768404  0.41637873  0.66265827  1
  O  O451  1  0.51606327  0.41690250  0.91566069  1
  O  O452  1  0.51441046  0.74966313  0.16560259  1
  O  O453  1  0.51632746  0.74948968  0.41189926  1
  O  O454  1  0.51757193  0.74979204  0.66492564  1
  O  O455  1  0.51721998  0.75029341  0.91243970  1
  O  O456  1  0.48408034  0.24962789  0.08391837  1
  O  O457  1  0.48419093  0.25039497  0.33572874  1
  O  O458  1  0.48620668  0.24943745  0.58677498  1
  O  O459  1  0.48602786  0.25011146  0.83688212  1
  O  O460  1  0.48308562  0.58410218  0.08703266  1
  O  O461  1  0.48221527  0.58294618  0.33475009  1
  O  O462  1  0.48362819  0.58424674  0.58469292  1
  O  O463  1  0.48530456  0.58292871  0.83683741  1
  O  O464  1  0.48060585  0.91601474  0.08508808  1
  O  O465  1  0.48336949  0.91683187  0.33442652  1
  O  O466  1  0.48362475  0.91624510  0.58732400  1
  O  O467  1  0.48511830  0.91671109  0.83444658  1
  O  O468  1  0.98340500  0.25050031  0.08697247  1
  O  O469  1  0.98463310  0.24979338  0.33392087  1
  O  O470  1  0.98330224  0.25027057  0.58455838  1
  O  O471  1  0.98313354  0.25029275  0.83762384  1
  O  O472  1  0.98325763  0.58354175  0.08736376  1
  O  O473  1  0.98608123  0.58342258  0.33585226  1
  O  O474  1  0.98419399  0.58409994  0.58654848  1
  O  O475  1  0.98464722  0.58283679  0.83461613  1
  O  O476  1  0.98412511  0.91643011  0.08636054  1
  O  O477  1  0.98541343  0.91632201  0.33372404  1
  O  O478  1  0.98134519  0.91650246  0.58654220  1
  O  O479  1  0.98516331  0.91677082  0.83717246  1
  O  O480  1  0.08706120  0.31603332  0.07724031  1
  O  O481  1  0.08863588  0.31418931  0.32639012  1
  O  O482  1  0.08695538  0.31588217  0.57811331  1
  O  O483  1  0.08688152  0.31513307  0.82884872  1
  O  O484  1  0.08722399  0.64815455  0.07826140  1
  O  O485  1  0.08941306  0.64969917  0.32781920  1
  O  O486  1  0.08874332  0.64752359  0.57751677  1
  O  O487  1  0.08838572  0.64833021  0.82712169  1
  O  O488  1  0.08812792  0.98072940  0.07655113  1
  O  O489  1  0.08914687  0.98165246  0.32725060  1
  O  O490  1  0.08511960  0.98181049  0.57818360  1
  O  O491  1  0.08847642  0.98237236  0.82801548  1
  O  O492  1  0.58797794  0.31528319  0.07603991  1
  O  O493  1  0.58801059  0.31457996  0.32748852  1
  O  O494  1  0.58964974  0.31485753  0.57799226  1
  O  O495  1  0.59021815  0.31393136  0.82756033  1
  O  O496  1  0.58733175  0.64823877  0.07736884  1
  O  O497  1  0.58611207  0.64869687  0.32625501  1
  O  O498  1  0.58762619  0.64872499  0.57814009  1
  O  O499  1  0.58857494  0.64892423  0.82863972  1
  O  O500  1  0.58444683  0.98130517  0.07694367  1
  O  O501  1  0.58729535  0.98165039  0.32754778  1
  O  O502  1  0.58711239  0.98153348  0.57859101  1
  O  O503  1  0.58916375  0.98162186  0.82738331  1
  O  O504  1  0.41093359  0.01745209  0.17115415  1
  O  O505  1  0.41385657  0.01871015  0.42254076  1
  O  O506  1  0.41447457  0.01750657  0.67334163  1
  O  O507  1  0.41260271  0.01862758  0.92251168  1
  O  O508  1  0.41159735  0.35210062  0.17207795  1
  O  O509  1  0.41081537  0.35289810  0.42334871  1
  O  O510  1  0.41405055  0.35168726  0.67278629  1
  O  O511  1  0.41215891  0.35153538  0.92351874  1
  O  O512  1  0.41036180  0.68482358  0.17229579  1
  O  O513  1  0.41315024  0.68350809  0.42163972  1
  O  O514  1  0.41327894  0.68548967  0.67384762  1
  O  O515  1  0.41379440  0.68471509  0.92256929  1
  O  O516  1  0.91288323  0.01788836  0.17185099  1
  O  O517  1  0.91460407  0.01813612  0.42249424  1
  O  O518  1  0.91123138  0.01741572  0.67321921  1
  O  O519  1  0.91301281  0.01901562  0.92248719  1
  O  O520  1  0.91211553  0.35194942  0.17193658  1
  O  O521  1  0.91264135  0.35177235  0.42196227  1
  O  O522  1  0.91391057  0.35278079  0.67266006  1
  O  O523  1  0.91354893  0.35095852  0.92323500  1
  O  O524  1  0.91427452  0.68498030  0.17262883  1
  O  O525  1  0.91570683  0.68492426  0.42299997  1
  O  O526  1  0.91148952  0.68494495  0.67270044  1
  O  O527  1  0.91410097  0.68485636  0.92244162  1
  O  O528  1  0.16113826  0.01817203  0.20295699  1
  O  O529  1  0.16252528  0.01765878  0.45259875  1
  O  O530  1  0.16413954  0.01846330  0.70239788  1
  O  O531  1  0.16319045  0.01812293  0.95141174  1
  O  O532  1  0.16046224  0.35216490  0.20199951  1
  O  O533  1  0.16269309  0.35254921  0.45303537  1
  O  O534  1  0.16029102  0.35311647  0.70237477  1
  O  O535  1  0.16216003  0.35078486  0.95256112  1
  O  O536  1  0.16210178  0.68445935  0.20234342  1
  O  O537  1  0.16210812  0.68427437  0.45254183  1
  O  O538  1  0.16357029  0.68411622  0.70321763  1
  O  O539  1  0.16042239  0.68608893  0.95244987  1
  O  O540  1  0.66213027  0.01831715  0.20220765  1
  O  O541  1  0.66051527  0.01903743  0.45196353  1
  O  O542  1  0.66221024  0.01812850  0.70251802  1
  O  O543  1  0.66147470  0.01889017  0.95225864  1
  O  O544  1  0.66391154  0.35304278  0.20166585  1
  O  O545  1  0.66209318  0.35081286  0.45290558  1
  O  O546  1  0.66205329  0.35054769  0.70292093  1
  O  O547  1  0.66489080  0.35212982  0.95279513  1
  O  O548  1  0.66182244  0.68337884  0.20341014  1
  O  O549  1  0.66084985  0.68499180  0.45201366  1
  O  O550  1  0.66222187  0.68608263  0.70171219  1
  O  O551  1  0.66218916  0.68344893  0.95260963  1
  O  O552  1  0.33467090  0.31501328  0.04756088  1
  O  O553  1  0.33515137  0.31530084  0.29741409  1
  O  O554  1  0.33733632  0.31651032  0.54765204  1
  O  O555  1  0.33786878  0.31480152  0.79764553  1
  O  O556  1  0.33807923  0.64755095  0.04789937  1
  O  O557  1  0.33653913  0.64939548  0.29728305  1
  O  O558  1  0.33678015  0.64748267  0.54734217  1
  O  O559  1  0.33576039  0.64919478  0.79780217  1
  O  O560  1  0.33583443  0.98296107  0.04726452  1
  O  O561  1  0.33625252  0.98041413  0.29723315  1
  O  O562  1  0.33874843  0.98165183  0.54809733  1
  O  O563  1  0.33945097  0.98139116  0.79665195  1
  O  O564  1  0.83802768  0.31593483  0.04707260  1
  O  O565  1  0.83857539  0.31639519  0.29621635  1
  O  O566  1  0.83508027  0.31468972  0.54802887  1
  O  O567  1  0.83741951  0.31375182  0.79811379  1
  O  O568  1  0.83715561  0.64800996  0.04856782  1
  O  O569  1  0.83720120  0.64763495  0.29807181  1
  O  O570  1  0.83836056  0.64867778  0.54803860  1
  O  O571  1  0.83818673  0.64961154  0.79640800  1
  O  O572  1  0.83818404  0.98110952  0.04820807  1
  O  O573  1  0.83789600  0.98140346  0.29744225  1
  O  O574  1  0.83762829  0.98166637  0.54797413  1
  O  O575  1  0.83666669  0.98158983  0.79714563  1
  O  O576  1  0.41036519  0.14783046  0.17178448  1
  O  O577  1  0.41486224  0.14887198  0.42323809  1
  O  O578  1  0.41388211  0.14751851  0.67402189  1
  O  O579  1  0.41357272  0.14844176  0.92319549  1
  O  O580  1  0.41166232  0.48243288  0.17115661  1
  O  O581  1  0.41137329  0.48303846  0.42240579  1
  O  O582  1  0.41419790  0.48181340  0.67289872  1
  O  O583  1  0.41164906  0.48139279  0.92308953  1
  O  O584  1  0.41039277  0.81492625  0.17233201  1
  O  O585  1  0.41261667  0.81373036  0.42194292  1
  O  O586  1  0.41373379  0.81540877  0.67319298  1
  O  O587  1  0.41328289  0.81466061  0.92219180  1
  O  O588  1  0.91281558  0.14837225  0.17186339  1
  O  O589  1  0.91504736  0.14809984  0.42303100  1
  O  O590  1  0.91054462  0.14750266  0.67344343  1
  O  O591  1  0.91323873  0.14918433  0.92212744  1
  O  O592  1  0.91246398  0.48215638  0.17252839  1
  O  O593  1  0.91234535  0.48185992  0.42183726  1
  O  O594  1  0.91478544  0.48296290  0.67232922  1
  O  O595  1  0.91303409  0.48089256  0.92352338  1
  O  O596  1  0.91462406  0.81517210  0.17239421  1
  O  O597  1  0.91480843  0.81483406  0.42247872  1
  O  O598  1  0.91133369  0.81507574  0.67317834  1
  O  O599  1  0.91393431  0.81491069  0.92264842  1
  O  O600  1  0.08732818  0.18600539  0.07656668  1
  O  O601  1  0.08828241  0.18396857  0.32723716  1
  O  O602  1  0.08729703  0.18567782  0.57833139  1
  O  O603  1  0.08665249  0.18490931  0.82798257  1
  O  O604  1  0.08662490  0.51811293  0.07801152  1
  O  O605  1  0.09024382  0.51966694  0.32702179  1
  O  O606  1  0.08740610  0.51749240  0.57759061  1
  O  O607  1  0.08871407  0.51817813  0.82783528  1
  O  O608  1  0.08776502  0.85063027  0.07732132  1
  O  O609  1  0.08949981  0.85155774  0.32742637  1
  O  O610  1  0.08538223  0.85183238  0.57812556  1
  O  O611  1  0.08894532  0.85202913  0.82831995  1
  O  O612  1  0.58856838  0.18542656  0.07667755  1
  O  O613  1  0.58749773  0.18424155  0.32815855  1
  O  O614  1  0.58997398  0.18457010  0.57863891  1
  O  O615  1  0.58920442  0.18375756  0.82829422  1
  O  O616  1  0.58668638  0.51842602  0.07636617  1
  O  O617  1  0.58649516  0.51874383  0.32577666  1
  O  O618  1  0.58700085  0.51841016  0.57743315  1
  O  O619  1  0.58918916  0.51877452  0.82823582  1
  O  O620  1  0.58468502  0.85135433  0.07720781  1
  O  O621  1  0.58690520  0.85132414  0.32735698  1
  O  O622  1  0.58714510  0.85123835  0.57857435  1
  O  O623  1  0.58904746  0.85152243  0.82732071  1
  O  O624  1  0.33527495  0.18482940  0.04687295  1
  O  O625  1  0.33462229  0.18528621  0.29810962  1
  O  O626  1  0.33828371  0.18621216  0.54765111  1
  O  O627  1  0.33754326  0.18455523  0.79760819  1
  O  O628  1  0.33764459  0.51744740  0.04760517  1
  O  O629  1  0.33740704  0.51937318  0.29749515  1
  O  O630  1  0.33642148  0.51737347  0.54726551  1
  O  O631  1  0.33598514  0.51907747  0.79772667  1
  O  O632  1  0.33620439  0.85280564  0.04796407  1
  O  O633  1  0.33587001  0.85029316  0.29671217  1
  O  O634  1  0.33889490  0.85166500  0.54809150  1
  O  O635  1  0.33884786  0.85095065  0.79691569  1
  O  O636  1  0.83820642  0.18588927  0.04780624  1
  O  O637  1  0.83841496  0.18600047  0.29745415  1
  O  O638  1  0.83517390  0.18460757  0.54772066  1
  O  O639  1  0.83640278  0.18375341  0.79807358  1
  O  O640  1  0.83749984  0.51807823  0.04771081  1
  O  O641  1  0.83711351  0.51746706  0.29689550  1
  O  O642  1  0.83861161  0.51874686  0.54818059  1
  O  O643  1  0.83874671  0.51926629  0.79662114  1
  O  O644  1  0.83803919  0.85110520  0.04837610  1
  O  O645  1  0.83799100  0.85111760  0.29758906  1
  O  O646  1  0.83757908  0.85165119  0.54807615  1
  O  O647  1  0.83654654  0.85143356  0.79724764  1
  O  O648  1  0.16120225  0.14847937  0.20303883  1
  O  O649  1  0.16168124  0.14764587  0.45270672  1
  O  O650  1  0.16427740  0.14852163  0.70255194  1
  O  O651  1  0.16249653  0.14815270  0.95151639  1
  O  O652  1  0.16121792  0.48222855  0.20185810  1
  O  O653  1  0.16293439  0.48259785  0.45310253  1
  O  O654  1  0.16109177  0.48322866  0.70320641  1
  O  O655  1  0.16160411  0.48086690  0.95234820  1
  O  O656  1  0.16179547  0.81452154  0.20216407  1
  O  O657  1  0.16181061  0.81438341  0.45221856  1
  O  O658  1  0.16364398  0.81419251  0.70244163  1
  O  O659  1  0.16125407  0.81625531  0.95291022  1
  O  O660  1  0.66177500  0.14847360  0.20275437  1
  O  O661  1  0.66090313  0.14915772  0.45277637  1
  O  O662  1  0.66231245  0.14822536  0.70331717  1
  O  O663  1  0.66215162  0.14902346  0.95268783  1
  O  O664  1  0.66429568  0.48307875  0.20205729  1
  O  O665  1  0.66169629  0.48105008  0.45230426  1
  O  O666  1  0.66192716  0.48062541  0.70154147  1
  O  O667  1  0.66498896  0.48226273  0.95271809  1
  O  O668  1  0.66173498  0.81352363  0.20240806  1
  O  O669  1  0.66091983  0.81495309  0.45203916  1
  O  O670  1  0.66248160  0.81609810  0.70232701  1
  O  O671  1  0.66118527  0.81362781  0.95215993  1
