# generated using pymatgen
data_Na2MnFe(PO4)2
_symmetry_space_group_name_H-M   'P 1'
_cell_length_a   21.08518536
_cell_length_b   18.93732754
_cell_length_c   20.04388570
_cell_angle_alpha   90.00009868
_cell_angle_beta   89.99625116
_cell_angle_gamma   90.00345054
_symmetry_Int_Tables_number   1
_chemical_formula_structural   Na2MnFe(PO4)2
_chemical_formula_sum   'Na96 Mn48 Fe48 P96 O384'
_cell_volume   8003.46462663
_cell_formula_units_Z   48
loop_
 _symmetry_equiv_pos_site_id
 _symmetry_equiv_pos_as_xyz
  1  'x, y, z'
loop_
 _atom_site_type_symbol
 _atom_site_label
 _atom_site_symmetry_multiplicity
 _atom_site_fract_x
 _atom_site_fract_y
 _atom_site_fract_z
 _atom_site_occupancy
  Na  Na0  1  -0.00089451  0.00000047  0.00113487  1
  Na  Na1  1  0.00188156  0.00092555  0.24855475  1
  Na  Na2  1  0.00031086  0.00061544  0.50025531  1
  Na  Na3  1  -0.00223374  -0.00007680  0.75046119  1
  Na  Na4  1  0.00154479  0.33371774  -0.00022488  1
  Na  Na5  1  0.00056097  0.33345680  0.24961597  1
  Na  Na6  1  -0.00159035  0.33198185  0.49980586  1
  Na  Na7  1  0.00061034  0.33315203  0.75046758  1
  Na  Na8  1  0.00166113  0.66634804  0.00045845  1
  Na  Na9  1  0.00055635  0.66640942  0.25041885  1
  Na  Na10  1  0.00029304  0.66725389  0.49993244  1
  Na  Na11  1  0.00135558  0.66678809  0.74969296  1
  Na  Na12  1  0.49817053  0.00018829  -0.00058564  1
  Na  Na13  1  0.49909956  0.00052513  0.24940804  1
  Na  Na14  1  0.49985368  0.00007522  0.50062790  1
  Na  Na15  1  0.49968386  -0.00017580  0.74963320  1
  Na  Na16  1  0.50073252  0.33292952  -0.00067153  1
  Na  Na17  1  0.49910101  0.33280771  0.25113623  1
  Na  Na18  1  0.50047303  0.33344462  0.50066615  1
  Na  Na19  1  0.50252675  0.33372543  0.74976917  1
  Na  Na20  1  0.49956832  0.66645649  0.00096346  1
  Na  Na21  1  0.49788461  0.66626691  0.25005087  1
  Na  Na22  1  0.49909112  0.66711979  0.49920313  1
  Na  Na23  1  0.50013088  0.66663116  0.74945273  1
  Na  Na24  1  0.25221054  0.00098223  0.12432796  1
  Na  Na25  1  0.24917139  -0.00071945  0.37489723  1
  Na  Na26  1  0.25179490  0.00112348  0.62476454  1
  Na  Na27  1  0.25197218  0.00094650  0.87511445  1
  Na  Na28  1  0.25061990  0.33266230  0.12453010  1
  Na  Na29  1  0.25237106  0.33342665  0.37379512  1
  Na  Na30  1  0.25006133  0.33306449  0.62600476  1
  Na  Na31  1  0.24959589  0.33279157  0.87490911  1
  Na  Na32  1  0.24843960  0.66611147  0.12396274  1
  Na  Na33  1  0.25103229  0.66729001  0.37599020  1
  Na  Na34  1  0.24849329  0.66620719  0.62507642  1
  Na  Na35  1  0.24815983  0.66636669  0.87553853  1
  Na  Na36  1  0.74864540  0.00065503  0.12541233  1
  Na  Na37  1  0.74847706  -0.00030864  0.37442066  1
  Na  Na38  1  0.75129766  0.00079769  0.62541786  1
  Na  Na39  1  0.74921368  0.00040817  0.87534114  1
  Na  Na40  1  0.74803400  0.33282826  0.12495661  1
  Na  Na41  1  0.75032803  0.33380458  0.37522236  1
  Na  Na42  1  0.74868966  0.33274277  0.62627909  1
  Na  Na43  1  0.74776951  0.33293698  0.87438459  1
  Na  Na44  1  0.75083214  0.66590471  0.12375323  1
  Na  Na45  1  0.75096399  0.66702401  0.37493604  1
  Na  Na46  1  0.74991863  0.66686722  0.62520272  1
  Na  Na47  1  0.75165297  0.66709308  0.87558328  1
  Na  Na48  1  0.00068077  0.16590551  -0.00035750  1
  Na  Na49  1  0.00067174  0.16681199  0.24917453  1
  Na  Na50  1  0.00141984  0.16616153  0.49975999  1
  Na  Na51  1  -0.00155173  0.16726344  0.75117718  1
  Na  Na52  1  -0.00096945  0.50071448  0.00102315  1
  Na  Na53  1  0.00084745  0.49968957  0.24906980  1
  Na  Na54  1  -0.00116995  0.50023925  0.50096766  1
  Na  Na55  1  0.00022243  0.49929051  0.74963444  1
  Na  Na56  1  0.00300599  0.83236719  0.00070644  1
  Na  Na57  1  0.00127275  0.83270100  0.25037608  1
  Na  Na58  1  -0.00200563  0.83437772  0.49891289  1
  Na  Na59  1  0.00183400  0.83258352  0.74997889  1
  Na  Na60  1  0.50051132  0.16585989  -0.00073835  1
  Na  Na61  1  0.49795564  0.16742680  0.25022260  1
  Na  Na62  1  0.50142598  0.16632484  0.50036726  1
  Na  Na63  1  0.50022512  0.16715696  0.75037900  1
  Na  Na64  1  0.50126691  0.49969343  0.00070602  1
  Na  Na65  1  0.50118129  0.49967362  0.24962363  1
  Na  Na66  1  0.49835699  0.50104830  0.49990546  1
  Na  Na67  1  0.50169212  0.49924763  0.74915990  1
  Na  Na68  1  0.49697931  0.83455442  -0.00011861  1
  Na  Na69  1  0.49630845  0.83395445  0.25073763  1
  Na  Na70  1  0.49799991  0.83360041  0.49981802  1
  Na  Na71  1  0.50113954  0.83264810  0.74942797  1
  Na  Na72  1  0.25246467  0.16636219  0.12518951  1
  Na  Na73  1  0.25043787  0.16723730  0.37430899  1
  Na  Na74  1  0.25076765  0.16687147  0.62518862  1
  Na  Na75  1  0.25176279  0.16655198  0.87475570  1
  Na  Na76  1  0.24832184  0.50100538  0.12411836  1
  Na  Na77  1  0.25070950  0.50011142  0.37525171  1
  Na  Na78  1  0.25007151  0.49987827  0.62521923  1
  Na  Na79  1  0.24763474  0.50071132  0.87492397  1
  Na  Na80  1  0.25006341  0.83406660  0.12383037  1
  Na  Na81  1  0.25217140  0.83234507  0.37500304  1
  Na  Na82  1  0.24917815  0.83357934  0.62549351  1
  Na  Na83  1  0.24994279  0.83308940  0.87567565  1
  Na  Na84  1  0.74777636  0.16596442  0.12524570  1
  Na  Na85  1  0.74734990  0.16729632  0.37430508  1
  Na  Na86  1  0.74994069  0.16619223  0.62563777  1
  Na  Na87  1  0.74775376  0.16690298  0.87516355  1
  Na  Na88  1  0.75036168  0.49997050  0.12381152  1
  Na  Na89  1  0.74993864  0.49987672  0.37464814  1
  Na  Na90  1  0.75045987  0.49930031  0.62618620  1
  Na  Na91  1  0.75099148  0.49952654  0.87604989  1
  Na  Na92  1  0.75093831  0.83292895  0.12469105  1
  Na  Na93  1  0.75262954  0.83198945  0.37568254  1
  Na  Na94  1  0.74933821  0.83389767  0.62486422  1
  Na  Na95  1  0.74867907  0.83431646  0.87438772  1
  Mn  Mn96  1  0.89282520  0.91742285  0.37628867  1
  Mn  Mn97  1  0.10818464  0.41681043  0.12235886  1
  Mn  Mn98  1  0.64113587  0.91673533  0.99819472  1
  Mn  Mn99  1  0.60830472  0.08303222  0.62280815  1
  Mn  Mn100  1  0.60720755  0.75064978  0.12329143  1
  Mn  Mn101  1  0.60739085  0.74998120  0.87300530  1
  Mn  Mn102  1  0.10739586  0.08306267  0.62379624  1
  Mn  Mn103  1  0.14307517  0.91787078  0.99729800  1
  Mn  Mn104  1  0.89203439  0.58285506  0.37673886  1
  Mn  Mn105  1  0.85793662  0.75053892  0.75240112  1
  Mn  Mn106  1  0.14256230  0.24987954  0.74797375  1
  Mn  Mn107  1  0.89180293  0.25019780  0.12643490  1
  Mn  Mn108  1  0.14242438  0.91689345  0.74782577  1
  Mn  Mn109  1  0.10819562  0.75051809  0.37260018  1
  Mn  Mn110  1  0.89187103  0.25034059  0.87822904  1
  Mn  Mn111  1  0.14362478  0.24994844  0.24741653  1
  Mn  Mn112  1  0.64107440  0.91519473  0.24791494  1
  Mn  Mn113  1  0.89235418  0.58341716  0.62763322  1
  Mn  Mn114  1  0.89210876  0.24946514  0.37707364  1
  Mn  Mn115  1  0.85722879  0.41605580  0.75289082  1
  Mn  Mn116  1  0.85727956  0.41674060  0.25194890  1
  Mn  Mn117  1  0.35790562  0.41655280  0.00147704  1
  Mn  Mn118  1  0.35732001  0.74992912  0.75233937  1
  Mn  Mn119  1  0.85907562  0.75043852  0.00254036  1
  Mn  Mn120  1  0.14270151  0.58236336  0.49750395  1
  Mn  Mn121  1  0.64245971  0.58311037  0.49739664  1
  Mn  Mn122  1  0.64059163  0.25060666  0.24748232  1
  Mn  Mn123  1  0.10829051  0.41623378  0.37319186  1
  Mn  Mn124  1  0.39303109  0.25024465  0.62690914  1
  Mn  Mn125  1  0.60733788  0.41697095  0.37332529  1
  Mn  Mn126  1  0.39180330  0.58289175  0.12740762  1
  Mn  Mn127  1  0.89263956  0.91596330  0.12756369  1
  Mn  Mn128  1  0.39234669  0.58323148  0.62766972  1
  Mn  Mn129  1  0.64222882  0.58390884  0.74850200  1
  Mn  Mn130  1  0.39241992  0.91658844  0.62758281  1
  Mn  Mn131  1  0.89222823  0.91597260  0.87757238  1
  Mn  Mn132  1  0.85786188  0.08365014  0.50153447  1
  Mn  Mn133  1  0.10890374  0.08337745  0.12234204  1
  Mn  Mn134  1  0.35700842  0.74985183  0.00188904  1
  Mn  Mn135  1  0.35839748  0.41747879  0.25197621  1
  Mn  Mn136  1  0.14200504  0.91733234  0.49780359  1
  Mn  Mn137  1  0.35817041  0.41691574  0.75283581  1
  Mn  Mn138  1  0.10754089  0.41601125  0.62210538  1
  Mn  Mn139  1  0.85695562  0.08291801  0.25233124  1
  Mn  Mn140  1  0.64259183  0.91691707  0.49718300  1
  Mn  Mn141  1  0.64286045  0.58330167  0.99742422  1
  Mn  Mn142  1  0.35761865  0.08376902  0.50186194  1
  Mn  Mn143  1  0.60706821  0.75036544  0.37251555  1
  Fe  Fe144  1  0.10676285  0.75063780  0.62290401  1
  Fe  Fe145  1  0.89393014  0.58325766  0.87648408  1
  Fe  Fe146  1  0.35710268  0.74949533  0.50240481  1
  Fe  Fe147  1  0.14263466  0.25012987  0.49834711  1
  Fe  Fe148  1  0.89226066  0.91714725  0.62688068  1
  Fe  Fe149  1  0.64310883  0.25006462  0.49863010  1
  Fe  Fe150  1  0.89355997  0.58363995  0.12710443  1
  Fe  Fe151  1  0.85752411  0.74967054  0.50249958  1
  Fe  Fe152  1  0.64160742  0.24985086  0.99859031  1
  Fe  Fe153  1  0.64237510  0.58394739  0.24824002  1
  Fe  Fe154  1  0.10804343  0.74987036  0.12438760  1
  Fe  Fe155  1  0.14180439  0.58240659  0.99730868  1
  Fe  Fe156  1  0.35819894  0.08351511  0.75240048  1
  Fe  Fe157  1  0.39294395  0.91647107  0.87583689  1
  Fe  Fe158  1  0.89194080  0.24915546  0.62656670  1
  Fe  Fe159  1  0.10700923  0.41633507  0.87359246  1
  Fe  Fe160  1  0.39327955  0.25013631  0.12559499  1
  Fe  Fe161  1  0.10756009  0.08338948  0.87325121  1
  Fe  Fe162  1  0.85787825  0.74968616  0.25107106  1
  Fe  Fe163  1  0.35658995  0.75007324  0.25119080  1
  Fe  Fe164  1  0.60746443  0.41640143  0.12306771  1
  Fe  Fe165  1  0.39197504  0.58323118  0.37633347  1
  Fe  Fe166  1  0.39186823  0.91708586  0.12721575  1
  Fe  Fe167  1  0.14357383  0.24982860  0.99815871  1
  Fe  Fe168  1  0.60752868  0.74951688  0.62283271  1
  Fe  Fe169  1  0.64257984  0.24929457  0.74825414  1
  Fe  Fe170  1  0.14298048  0.58383212  0.24884451  1
  Fe  Fe171  1  0.60738658  0.41689540  0.87379937  1
  Fe  Fe172  1  0.85662408  0.08338304  0.75241049  1
  Fe  Fe173  1  0.39289483  0.25024702  0.37785022  1
  Fe  Fe174  1  0.35809163  0.08408056  0.00116758  1
  Fe  Fe175  1  0.10764959  0.75014471  0.87287457  1
  Fe  Fe176  1  0.39386208  0.25043778  0.87674335  1
  Fe  Fe177  1  0.85700461  0.41550156  0.00147895  1
  Fe  Fe178  1  0.35769179  0.41665245  0.50181334  1
  Fe  Fe179  1  0.60659149  0.08306618  0.87318677  1
  Fe  Fe180  1  0.35784152  0.08262587  0.25243585  1
  Fe  Fe181  1  0.85611942  0.08400777  0.00149944  1
  Fe  Fe182  1  0.64232683  0.91685337  0.74829153  1
  Fe  Fe183  1  0.10837333  0.08363999  0.37280711  1
  Fe  Fe184  1  0.60559908  0.08345647  0.12317404  1
  Fe  Fe185  1  0.39190185  0.91677369  0.37704161  1
  Fe  Fe186  1  0.39200846  0.58301252  0.87630358  1
  Fe  Fe187  1  0.14217115  0.58304721  0.74858748  1
  Fe  Fe188  1  0.85718022  0.41622772  0.50189308  1
  Fe  Fe189  1  0.60617494  0.08296166  0.37351787  1
  Fe  Fe190  1  0.60773894  0.41749325  0.62247986  1
  Fe  Fe191  1  0.14406307  0.91629484  0.24841104  1
  P  P192  1  0.05453476  0.24985668  0.10881894  1
  P  P193  1  0.05491989  0.24943361  0.36057363  1
  P  P194  1  0.05247082  0.24941335  0.60968691  1
  P  P195  1  0.05479903  0.24960146  0.86163315  1
  P  P196  1  0.05500601  0.58428983  0.11098151  1
  P  P197  1  0.05407819  0.58301492  0.35937040  1
  P  P198  1  0.05472018  0.58398000  0.61108189  1
  P  P199  1  0.05415561  0.58255497  0.86067494  1
  P  P200  1  0.05564120  0.91582203  0.11142023  1
  P  P201  1  0.05473823  0.91779645  0.35888245  1
  P  P202  1  0.05194300  0.91645923  0.61020462  1
  P  P203  1  0.05366748  0.91760090  0.86033512  1
  P  P204  1  0.55245423  0.24988243  0.10957559  1
  P  P205  1  0.55310483  0.24953729  0.36183612  1
  P  P206  1  0.55589376  0.25059257  0.61061658  1
  P  P207  1  0.55456133  0.24971415  0.86093992  1
  P  P208  1  0.55462670  0.58310612  0.11125981  1
  P  P209  1  0.55221023  0.58372479  0.35949359  1
  P  P210  1  0.55384529  0.58364966  0.60971242  1
  P  P211  1  0.55176819  0.58283892  0.86025641  1
  P  P212  1  0.55085849  0.91717618  0.11022160  1
  P  P213  1  0.55122780  0.91698648  0.36022948  1
  P  P214  1  0.55481555  0.91574515  0.61074695  1
  P  P215  1  0.55258359  0.91753622  0.85956997  1
  P  P216  1  0.44520982  0.08393080  0.13889321  1
  P  P217  1  0.44613932  0.08318285  0.38907550  1
  P  P218  1  0.44624696  0.08374251  0.64075504  1
  P  P219  1  0.44600790  0.08355780  0.88881582  1
  P  P220  1  0.44810373  0.41569351  0.13954381  1
  P  P221  1  0.44578576  0.41706226  0.39061402  1
  P  P222  1  0.44713107  0.41646271  0.63908554  1
  P  P223  1  0.44815953  0.41671316  0.88964557  1
  P  P224  1  0.44515237  0.75053836  0.14056100  1
  P  P225  1  0.44373746  0.74979257  0.38913141  1
  P  P226  1  0.44665037  0.74983319  0.63904501  1
  P  P227  1  0.44626297  0.74960710  0.88976374  1
  P  P228  1  0.94547154  0.08377185  0.13878892  1
  P  P229  1  0.94858926  0.08332321  0.38956583  1
  P  P230  1  0.94531013  0.08375312  0.64077799  1
  P  P231  1  0.94572970  0.08329356  0.88999426  1
  P  P232  1  0.94546071  0.41700069  0.13853289  1
  P  P233  1  0.94611635  0.41655579  0.39065488  1
  P  P234  1  0.94496670  0.41507293  0.63916837  1
  P  P235  1  0.94720903  0.41712560  0.89061307  1
  P  P236  1  0.94799709  0.74902799  0.14066380  1
  P  P237  1  0.94500020  0.74984244  0.38933182  1
  P  P238  1  0.94642978  0.75094707  0.63902606  1
  P  P239  1  0.94871850  0.74932184  0.88992571  1
  P  P240  1  0.19775388  0.08255736  0.23585675  1
  P  P241  1  0.19598474  0.08454947  0.48457444  1
  P  P242  1  0.19756133  0.08342344  0.73619229  1
  P  P243  1  0.19810341  0.08455790  0.98424124  1
  P  P244  1  0.19734736  0.41736483  0.23475174  1
  P  P245  1  0.19838757  0.41536614  0.48499315  1
  P  P246  1  0.19530457  0.41725549  0.73621433  1
  P  P247  1  0.19604019  0.41615500  0.98428134  1
  P  P248  1  0.19760581  0.75025492  0.23473377  1
  P  P249  1  0.19655836  0.75027783  0.48624662  1
  P  P250  1  0.19428394  0.74922772  0.73555903  1
  P  P251  1  0.19422884  0.74935942  0.98570696  1
  P  P252  1  0.69325975  0.08289515  0.23539534  1
  P  P253  1  0.69599607  0.08416309  0.48420149  1
  P  P254  1  0.69587288  0.08307562  0.73665692  1
  P  P255  1  0.69442927  0.08391024  0.98574065  1
  P  P256  1  0.69531303  0.41781165  0.23426542  1
  P  P257  1  0.69689370  0.41593880  0.48632523  1
  P  P258  1  0.69408678  0.41623143  0.73617835  1
  P  P259  1  0.69574834  0.41570789  0.98560867  1
  P  P260  1  0.69793345  0.74914569  0.23475103  1
  P  P261  1  0.69691107  0.74991099  0.48577611  1
  P  P262  1  0.69588411  0.75081747  0.73453808  1
  P  P263  1  0.69720888  0.75019077  0.98491091  1
  P  P264  1  0.30481522  0.24962856  0.01381470  1
  P  P265  1  0.30667705  0.24921064  0.26394246  1
  P  P266  1  0.30354459  0.25077951  0.51414283  1
  P  P267  1  0.30489443  0.24974358  0.76571512  1
  P  P268  1  0.30287254  0.58288985  0.01346931  1
  P  P269  1  0.30244223  0.58436506  0.26519230  1
  P  P270  1  0.30490411  0.58306319  0.51417614  1
  P  P271  1  0.30219656  0.58350799  0.76585913  1
  P  P272  1  0.30586490  0.91782934  0.01383671  1
  P  P273  1  0.30434439  0.91670037  0.26406902  1
  P  P274  1  0.30447711  0.91614393  0.51419403  1
  P  P275  1  0.30400613  0.91712534  0.76572171  1
  P  P276  1  0.80118886  0.24973367  0.01471959  1
  P  P277  1  0.80230150  0.24987587  0.26488360  1
  P  P278  1  0.80261403  0.25025593  0.51566186  1
  P  P279  1  0.80303664  0.24899196  0.76436241  1
  P  P280  1  0.80649936  0.58219106  0.01402651  1
  P  P281  1  0.80328623  0.58395369  0.26340559  1
  P  P282  1  0.80367642  0.58294299  0.51517696  1
  P  P283  1  0.80417912  0.58342313  0.76633688  1
  P  P284  1  0.80312538  0.91805729  0.01513521  1
  P  P285  1  0.80292628  0.91575583  0.26487694  1
  P  P286  1  0.80437877  0.91646226  0.51537882  1
  P  P287  1  0.80316284  0.91750778  0.76408373  1
  O  O288  1  0.05802618  0.24981667  0.18563329  1
  O  O289  1  0.05898846  0.25021395  0.43732123  1
  O  O290  1  0.05665266  0.24986776  0.68642662  1
  O  O291  1  0.05931391  0.24933369  0.93828949  1
  O  O292  1  0.05986944  0.58344656  0.18767191  1
  O  O293  1  0.05711114  0.58308136  0.43620019  1
  O  O294  1  0.05847743  0.58296580  0.68785238  1
  O  O295  1  0.05800785  0.58244001  0.93749603  1
  O  O296  1  0.06021286  0.91671463  0.18811966  1
  O  O297  1  0.05704644  0.91695842  0.43573039  1
  O  O298  1  0.05599520  0.91698358  0.68687276  1
  O  O299  1  0.05667180  0.91798492  0.93711951  1
  O  O300  1  0.55504036  0.25003920  0.18628389  1
  O  O301  1  0.55828454  0.25011418  0.43847331  1
  O  O302  1  0.55953026  0.24957933  0.68744149  1
  O  O303  1  0.55857882  0.24961474  0.93769856  1
  O  O304  1  0.55863617  0.58401698  0.18799695  1
  O  O305  1  0.55638900  0.58393187  0.43620218  1
  O  O306  1  0.55681700  0.58367699  0.68645226  1
  O  O307  1  0.55571959  0.58340350  0.93695831  1
  O  O308  1  0.55467081  0.91619859  0.18687761  1
  O  O309  1  0.55551812  0.91628011  0.43690411  1
  O  O310  1  0.55897798  0.91648170  0.68751967  1
  O  O311  1  0.55566555  0.91720776  0.93631818  1
  O  O312  1  0.44136376  0.08382007  0.06211696  1
  O  O313  1  0.44206873  0.08303726  0.31234675  1
  O  O314  1  0.44281853  0.08384758  0.56396321  1
  O  O315  1  0.44200517  0.08363785  0.81209708  1
  O  O316  1  0.44428135  0.41647383  0.06285872  1
  O  O317  1  0.44337733  0.41712226  0.31382799  1
  O  O318  1  0.44175069  0.41642830  0.56246993  1
  O  O319  1  0.44482925  0.41671881  0.81294529  1
  O  O320  1  0.44236944  0.74960205  0.06375529  1
  O  O321  1  0.43962320  0.74967461  0.31235544  1
  O  O322  1  0.44146213  0.74991389  0.56238602  1
  O  O323  1  0.44380805  0.74947824  0.81298013  1
  O  O324  1  0.94034766  0.08393459  0.06210808  1
  O  O325  1  0.94425939  0.08349049  0.31289184  1
  O  O326  1  0.94295423  0.08396513  0.56398663  1
  O  O327  1  0.94041339  0.08362670  0.81330252  1
  O  O328  1  0.94109780  0.41574945  0.06183649  1
  O  O329  1  0.94306402  0.41666654  0.31380471  1
  O  O330  1  0.94061716  0.41571085  0.56242594  1
  O  O331  1  0.94338695  0.41597471  0.81387107  1
  O  O332  1  0.94467802  0.74983381  0.06391349  1
  O  O333  1  0.94080997  0.74951838  0.31255083  1
  O  O334  1  0.94171691  0.75028248  0.56231624  1
  O  O335  1  0.94458488  0.75005913  0.81325710  1
  O  O336  1  0.19463659  0.08388466  0.06098659  1
  O  O337  1  0.19293574  0.08329092  0.31248028  1
  O  O338  1  0.19309186  0.08386355  0.56140798  1
  O  O339  1  0.19225748  0.08332973  0.81276969  1
  O  O340  1  0.19368784  0.41632423  0.06107244  1
  O  O341  1  0.19447946  0.41656532  0.31150273  1
  O  O342  1  0.19441131  0.41580742  0.56172739  1
  O  O343  1  0.19079281  0.41650542  0.81290120  1
  O  O344  1  0.19089176  0.75007333  0.06246942  1
  O  O345  1  0.19454345  0.75025927  0.31149513  1
  O  O346  1  0.19127944  0.75073779  0.56290052  1
  O  O347  1  0.19028513  0.75017292  0.81244419  1
  O  O348  1  0.68934581  0.08304857  0.06244666  1
  O  O349  1  0.68868188  0.08292392  0.31218235  1
  O  O350  1  0.69350776  0.08300903  0.56101801  1
  O  O351  1  0.69106550  0.08292202  0.81332288  1
  O  O352  1  0.69098906  0.41637592  0.06229674  1
  O  O353  1  0.69239776  0.41705822  0.31111639  1
  O  O354  1  0.69232350  0.41691244  0.56301709  1
  O  O355  1  0.68990283  0.41728436  0.81302839  1
  O  O356  1  0.69337583  0.75003113  0.06162540  1
  O  O357  1  0.69390707  0.74992005  0.31147671  1
  O  O358  1  0.69162128  0.74992800  0.56238151  1
  O  O359  1  0.69281015  0.75006705  0.81137133  1
  O  O360  1  0.31056515  0.25015751  0.18712914  1
  O  O361  1  0.30849268  0.25009938  0.43742603  1
  O  O362  1  0.30785997  0.25050322  0.68891775  1
  O  O363  1  0.30987834  0.25048320  0.93717270  1
  O  O364  1  0.30574527  0.58335965  0.18840373  1
  O  O365  1  0.30859251  0.58320577  0.43742321  1
  O  O366  1  0.30647431  0.58338406  0.68913653  1
  O  O367  1  0.30834279  0.58276082  0.93686946  1
  O  O368  1  0.30832120  0.91723959  0.18726479  1
  O  O369  1  0.30831063  0.91673512  0.43738081  1
  O  O370  1  0.30670210  0.91652742  0.68888428  1
  O  O371  1  0.30998015  0.91679913  0.93710595  1
  O  O372  1  0.80574662  0.24946388  0.18812242  1
  O  O373  1  0.80615151  0.24972390  0.43891391  1
  O  O374  1  0.80779656  0.24951801  0.68776320  1
  O  O375  1  0.80485799  0.25003866  0.93801394  1
  O  O376  1  0.80831206  0.58341608  0.18675900  1
  O  O377  1  0.80622442  0.58297561  0.43838054  1
  O  O378  1  0.80721372  0.58336513  0.68953972  1
  O  O379  1  0.81095411  0.58329938  0.93726542  1
  O  O380  1  0.80625760  0.91689319  0.18811765  1
  O  O381  1  0.80738598  0.91719202  0.43859166  1
  O  O382  1  0.80820724  0.91676430  0.68745467  1
  O  O383  1  0.80623414  0.91716741  0.93832025  1
  O  O384  1  0.23443333  0.24983942  0.03742134  1
  O  O385  1  0.23654906  0.24991140  0.28787733  1
  O  O386  1  0.23339313  0.25005949  0.53833854  1
  O  O387  1  0.23505212  0.24990061  0.79036816  1
  O  O388  1  0.23235013  0.58281659  0.03646268  1
  O  O389  1  0.23247532  0.58393424  0.29013741  1
  O  O390  1  0.23501234  0.58296325  0.53884814  1
  O  O391  1  0.23199206  0.58362043  0.78970078  1
  O  O392  1  0.23573550  0.91760786  0.03777630  1
  O  O393  1  0.23413030  0.91620060  0.28837753  1
  O  O394  1  0.23461274  0.91717920  0.53888340  1
  O  O395  1  0.23439351  0.91678915  0.79105672  1
  O  O396  1  0.73115889  0.24952870  0.03946968  1
  O  O397  1  0.73250074  0.25057571  0.28956906  1
  O  O398  1  0.73261302  0.24957120  0.54040910  1
  O  O399  1  0.73262250  0.24970825  0.78797668  1
  O  O400  1  0.73618406  0.58281026  0.03743564  1
  O  O401  1  0.73307877  0.58356319  0.28764238  1
  O  O402  1  0.73415815  0.58305405  0.54090297  1
  O  O403  1  0.73438950  0.58347974  0.79119775  1
  O  O404  1  0.73345307  0.91724915  0.04034234  1
  O  O405  1  0.73327842  0.91555790  0.29016521  1
  O  O406  1  0.73456577  0.91722755  0.54024972  1
  O  O407  1  0.73279920  0.91719105  0.78779246  1
  O  O408  1  0.26811588  0.08311394  0.21211621  1
  O  O409  1  0.26571053  0.08358716  0.45946950  1
  O  O410  1  0.26794916  0.08375620  0.71269043  1
  O  O411  1  0.26832822  0.08401328  0.96011328  1
  O  O412  1  0.26695456  0.41714599  0.20920087  1
  O  O413  1  0.26831113  0.41636818  0.46026186  1
  O  O414  1  0.26540057  0.41674885  0.71220030  1
  O  O415  1  0.26566308  0.41662947  0.95878600  1
  O  O416  1  0.26752293  0.75026517  0.20953685  1
  O  O417  1  0.26691651  0.74971614  0.46281233  1
  O  O418  1  0.26437241  0.74997027  0.71150989  1
  O  O419  1  0.26425834  0.74977040  0.96125765  1
  O  O420  1  0.76347444  0.08314514  0.21183894  1
  O  O421  1  0.76561441  0.08359797  0.45877403  1
  O  O422  1  0.76609440  0.08339067  0.71260357  1
  O  O423  1  0.76482951  0.08380228  0.96213917  1
  O  O424  1  0.76499633  0.41665309  0.20914569  1
  O  O425  1  0.76705092  0.41630552  0.46209932  1
  O  O426  1  0.76431142  0.41641530  0.71260257  1
  O  O427  1  0.76616607  0.41612048  0.96194547  1
  O  O428  1  0.76790275  0.74957530  0.20994318  1
  O  O429  1  0.76739369  0.74969491  0.46263763  1
  O  O430  1  0.76569810  0.75027003  0.70972360  1
  O  O431  1  0.76707427  0.75055495  0.96030676  1
  O  O432  1  0.01579710  0.08389632  0.16203544  1
  O  O433  1  0.01857936  0.08312678  0.41403989  1
  O  O434  1  0.01496294  0.08370704  0.66636986  1
  O  O435  1  0.01627126  0.08337257  0.91310853  1
  O  O436  1  0.01551403  0.41681192  0.16265923  1
  O  O437  1  0.01582519  0.41647561  0.41573681  1
  O  O438  1  0.01501090  0.41583107  0.66327210  1
  O  O439  1  0.01737706  0.41670576  0.91481402  1
  O  O440  1  0.01803131  0.74941675  0.16530299  1
  O  O441  1  0.01519129  0.75042890  0.41310746  1
  O  O442  1  0.01669262  0.75017729  0.66292516  1
  O  O443  1  0.01888111  0.74957822  0.91417624  1
  O  O444  1  0.51549229  0.08396431  0.16308949  1
  O  O445  1  0.51623099  0.08314256  0.41372117  1
  O  O446  1  0.51612162  0.08352508  0.66513674  1
  O  O447  1  0.51633575  0.08350301  0.91284388  1
  O  O448  1  0.51802403  0.41595607  0.16441260  1
  O  O449  1  0.51547018  0.41711124  0.41598003  1
  O  O450  1  0.51754363  0.41655574  0.66228696  1
  O  O451  1  0.51815074  0.41631228  0.91459298  1
  O  O452  1  0.51476498  0.75013808  0.16595509  1
  O  O453  1  0.51388504  0.75026076  0.41323964  1
  O  O454  1  0.51696109  0.74953134  0.66254307  1
  O  O455  1  0.51570816  0.75028692  0.91580767  1
  O  O456  1  0.48257327  0.24955762  0.08423578  1
  O  O457  1  0.48271507  0.25027912  0.33827934  1
  O  O458  1  0.48588712  0.24994069  0.58632116  1
  O  O459  1  0.48420004  0.24990480  0.83693522  1
  O  O460  1  0.48456861  0.58330478  0.08702573  1
  O  O461  1  0.48193546  0.58304370  0.33558546  1
  O  O462  1  0.48416489  0.58376186  0.58458736  1
  O  O463  1  0.48186403  0.58288265  0.83518238  1
  O  O464  1  0.48078267  0.91730194  0.08576200  1
  O  O465  1  0.48107252  0.91668595  0.33607217  1
  O  O466  1  0.48478285  0.91665183  0.58662892  1
  O  O467  1  0.48251507  0.91671205  0.83486868  1
  O  O468  1  0.98468193  0.24980576  0.08421313  1
  O  O469  1  0.98500135  0.24994757  0.33597273  1
  O  O470  1  0.98228487  0.24882507  0.58565728  1
  O  O471  1  0.98465423  0.24998815  0.83764717  1
  O  O472  1  0.98458218  0.58377116  0.08752390  1
  O  O473  1  0.98438636  0.58284427  0.33439663  1
  O  O474  1  0.98478746  0.58391731  0.58664337  1
  O  O475  1  0.98392733  0.58278171  0.83622127  1
  O  O476  1  0.98559565  0.91602214  0.08730613  1
  O  O477  1  0.98516073  0.91720136  0.33335580  1
  O  O478  1  0.98195885  0.91738917  0.58559802  1
  O  O479  1  0.98403333  0.91686632  0.83499746  1
  O  O480  1  0.08876413  0.31484098  0.07642796  1
  O  O481  1  0.08879223  0.31435458  0.32740581  1
  O  O482  1  0.08608406  0.31439493  0.57633961  1
  O  O483  1  0.08821284  0.31481913  0.82859812  1
  O  O484  1  0.08815030  0.64949656  0.07794053  1
  O  O485  1  0.08825445  0.64815795  0.32701114  1
  O  O486  1  0.08841742  0.64915565  0.57853411  1
  O  O487  1  0.08792465  0.64755201  0.82775528  1
  O  O488  1  0.08914762  0.98073431  0.07776982  1
  O  O489  1  0.08912756  0.98289885  0.32694165  1
  O  O490  1  0.08620922  0.98144378  0.57768303  1
  O  O491  1  0.08733535  0.98293149  0.82770372  1
  O  O492  1  0.58668471  0.31483634  0.07700941  1
  O  O493  1  0.58644915  0.31453548  0.32831183  1
  O  O494  1  0.58936743  0.31587530  0.57794964  1
  O  O495  1  0.58819383  0.31468150  0.82797306  1
  O  O496  1  0.58826431  0.64796461  0.07782934  1
  O  O497  1  0.58560668  0.64888288  0.32643222  1
  O  O498  1  0.58790255  0.64870514  0.57717392  1
  O  O499  1  0.58565635  0.64792995  0.82752082  1
  O  O500  1  0.58454117  0.98233217  0.07767252  1
  O  O501  1  0.58481153  0.98202485  0.32759453  1
  O  O502  1  0.58852991  0.98076764  0.57768380  1
  O  O503  1  0.58622565  0.98278764  0.82697261  1
  O  O504  1  0.41162380  0.01893674  0.17226543  1
  O  O505  1  0.41253667  0.01816089  0.42206258  1
  O  O506  1  0.41195253  0.01887121  0.67331315  1
  O  O507  1  0.41246540  0.01855100  0.92188291  1
  O  O508  1  0.41433815  0.35055158  0.17182089  1
  O  O509  1  0.41156946  0.35200426  0.42311339  1
  O  O510  1  0.41411319  0.35144419  0.67265613  1
  O  O511  1  0.41425786  0.35156789  0.92216584  1
  O  O512  1  0.41050217  0.68574350  0.17309873  1
  O  O513  1  0.41053880  0.68443012  0.42218816  1
  O  O514  1  0.41307543  0.68499965  0.67246245  1
  O  O515  1  0.41227990  0.68434041  0.92208027  1
  O  O516  1  0.91243425  0.01855650  0.17217180  1
  O  O517  1  0.91469744  0.01834215  0.42232174  1
  O  O518  1  0.91092418  0.01860558  0.67294989  1
  O  O519  1  0.91238198  0.01828457  0.92329722  1
  O  O520  1  0.91192849  0.35216116  0.17205491  1
  O  O521  1  0.91162262  0.35160129  0.42297204  1
  O  O522  1  0.91191077  0.34961423  0.67210126  1
  O  O523  1  0.91298718  0.35237377  0.92387135  1
  O  O524  1  0.91402010  0.68384007  0.17301989  1
  O  O525  1  0.91178210  0.68471529  0.42270503  1
  O  O526  1  0.91282676  0.68614472  0.67257336  1
  O  O527  1  0.91527256  0.68418757  0.92256479  1
  O  O528  1  0.16480666  0.01731745  0.20261103  1
  O  O529  1  0.16131990  0.01983680  0.45195652  1
  O  O530  1  0.16452712  0.01834620  0.70253122  1
  O  O531  1  0.16399805  0.01973212  0.95122810  1
  O  O532  1  0.16318211  0.35239989  0.20212401  1
  O  O533  1  0.16491501  0.35016570  0.45229462  1
  O  O534  1  0.16171319  0.35228564  0.70282570  1
  O  O535  1  0.16204913  0.35090273  0.95207203  1
  O  O536  1  0.16341964  0.68521305  0.20231756  1
  O  O537  1  0.16310619  0.68532778  0.45294598  1
  O  O538  1  0.16099106  0.68388083  0.70300864  1
  O  O539  1  0.16065125  0.68412479  0.95304420  1
  O  O540  1  0.65980986  0.01784803  0.20213491  1
  O  O541  1  0.66114888  0.01953547  0.45150451  1
  O  O542  1  0.66272938  0.01805894  0.70310530  1
  O  O543  1  0.66101930  0.01901871  0.95196328  1
  O  O544  1  0.66036534  0.35311215  0.20175383  1
  O  O545  1  0.66357105  0.35062442  0.45349160  1
  O  O546  1  0.66071726  0.35100404  0.70346847  1
  O  O547  1  0.66234991  0.35058448  0.95263762  1
  O  O548  1  0.66418826  0.68404947  0.20222167  1
  O  O549  1  0.66360013  0.68502263  0.45215950  1
  O  O550  1  0.66152499  0.68587685  0.70191033  1
  O  O551  1  0.66357746  0.68501370  0.95215052  1
  O  O552  1  0.33826906  0.31448707  0.04758007  1
  O  O553  1  0.34057101  0.31396182  0.29731291  1
  O  O554  1  0.33682274  0.31596882  0.54725575  1
  O  O555  1  0.33907299  0.31464482  0.79859892  1
  O  O556  1  0.33585686  0.64793756  0.04704988  1
  O  O557  1  0.33621776  0.64955859  0.29750423  1
  O  O558  1  0.33831642  0.64829570  0.54722710  1
  O  O559  1  0.33599394  0.64846248  0.79876666  1
  O  O560  1  0.33923799  0.98315302  0.04653968  1
  O  O561  1  0.33775540  0.98173546  0.29754180  1
  O  O562  1  0.33867202  0.98102984  0.54693444  1
  O  O563  1  0.33841427  0.98217395  0.79773180  1
  O  O564  1  0.83506624  0.31482613  0.04737954  1
  O  O565  1  0.83662469  0.31483467  0.29714208  1
  O  O566  1  0.83634897  0.31531166  0.54845678  1
  O  O567  1  0.83646227  0.31389566  0.79799602  1
  O  O568  1  0.84033891  0.64688601  0.04774873  1
  O  O569  1  0.83672268  0.64902251  0.29650106  1
  O  O570  1  0.83799853  0.64808765  0.54738289  1
  O  O571  1  0.83859327  0.64842367  0.79857645  1
  O  O572  1  0.83674052  0.98349845  0.04716619  1
  O  O573  1  0.83675509  0.98089716  0.29775234  1
  O  O574  1  0.83881805  0.98132200  0.54800358  1
  O  O575  1  0.83632574  0.98262633  0.79731037  1
  O  O576  1  0.41185504  0.14903259  0.17188839  1
  O  O577  1  0.41281197  0.14840215  0.42216088  1
  O  O578  1  0.41239809  0.14877261  0.67340056  1
  O  O579  1  0.41273762  0.14868629  0.92221719  1
  O  O580  1  0.41408360  0.48065957  0.17246789  1
  O  O581  1  0.41145340  0.48218386  0.42269420  1
  O  O582  1  0.41389266  0.48144441  0.67264930  1
  O  O583  1  0.41432937  0.48173943  0.92239089  1
  O  O584  1  0.41097481  0.81580151  0.17246391  1
  O  O585  1  0.40987063  0.81474498  0.42219520  1
  O  O586  1  0.41350695  0.81487689  0.67250956  1
  O  O587  1  0.41162004  0.81472195  0.92150558  1
  O  O588  1  0.91214836  0.14874519  0.17223919  1
  O  O589  1  0.91478602  0.14826583  0.42260941  1
  O  O590  1  0.91096200  0.14879065  0.67324245  1
  O  O591  1  0.91222267  0.14821907  0.92356107  1
  O  O592  1  0.91226607  0.48254014  0.17115572  1
  O  O593  1  0.91188095  0.48154725  0.42310880  1
  O  O594  1  0.91120002  0.47997900  0.67242350  1
  O  O595  1  0.91356059  0.48230411  0.92289845  1
  O  O596  1  0.91369487  0.81375673  0.17357805  1
  O  O597  1  0.91110944  0.81480607  0.42215393  1
  O  O598  1  0.91353507  0.81633354  0.67219552  1
  O  O599  1  0.91509224  0.81433985  0.92310971  1
  O  O600  1  0.08892069  0.18503536  0.07618077  1
  O  O601  1  0.08846813  0.18411804  0.32781505  1
  O  O602  1  0.08680809  0.18453067  0.57726357  1
  O  O603  1  0.08794563  0.18435348  0.82822669  1
  O  O604  1  0.08847311  0.51951382  0.07699837  1
  O  O605  1  0.08851463  0.51818448  0.32693512  1
  O  O606  1  0.08820749  0.51889056  0.57779055  1
  O  O607  1  0.08749587  0.51734542  0.82762804  1
  O  O608  1  0.08905979  0.85052941  0.07890889  1
  O  O609  1  0.08943023  0.85283947  0.32664209  1
  O  O610  1  0.08543004  0.85130650  0.57728676  1
  O  O611  1  0.08807721  0.85250247  0.82834877  1
  O  O612  1  0.58662319  0.18485314  0.07709613  1
  O  O613  1  0.58577099  0.18436604  0.32829392  1
  O  O614  1  0.58987218  0.18583409  0.57738138  1
  O  O615  1  0.58783347  0.18451966  0.82768792  1
  O  O616  1  0.58805353  0.51773943  0.07861150  1
  O  O617  1  0.58653418  0.51886300  0.32704130  1
  O  O618  1  0.58769897  0.51828310  0.57734541  1
  O  O619  1  0.58591242  0.51786549  0.82789146  1
  O  O620  1  0.58455294  0.85220110  0.07711668  1
  O  O621  1  0.58482720  0.85190850  0.32702834  1
  O  O622  1  0.58783226  0.85041276  0.57772316  1
  O  O623  1  0.58712175  0.85281680  0.82696270  1
  O  O624  1  0.33815614  0.18447674  0.04689621  1
  O  O625  1  0.33981138  0.18385017  0.29689535  1
  O  O626  1  0.33731929  0.18583044  0.54732771  1
  O  O627  1  0.33909069  0.18471203  0.79796986  1
  O  O628  1  0.33606085  0.51796152  0.04717721  1
  O  O629  1  0.33689506  0.51961592  0.29797374  1
  O  O630  1  0.33847985  0.51779446  0.54698245  1
  O  O631  1  0.33600595  0.51852563  0.79887844  1
  O  O632  1  0.33933057  0.85296694  0.04748487  1
  O  O633  1  0.33795955  0.85159903  0.29680618  1
  O  O634  1  0.33768967  0.85077992  0.54700817  1
  O  O635  1  0.33837150  0.85216157  0.79818919  1
  O  O636  1  0.83508206  0.18463689  0.04725155  1
  O  O637  1  0.83586973  0.18474059  0.29780529  1
  O  O638  1  0.83685866  0.18529912  0.54838310  1
  O  O639  1  0.83593384  0.18387474  0.79783698  1
  O  O640  1  0.83942683  0.51672733  0.04686171  1
  O  O641  1  0.83669052  0.51892067  0.29688107  1
  O  O642  1  0.83780032  0.51780434  0.54743159  1
  O  O643  1  0.83839148  0.51842298  0.79873708  1
  O  O644  1  0.83788412  0.85320834  0.04744164  1
  O  O645  1  0.83741461  0.85063629  0.29648909  1
  O  O646  1  0.83815542  0.85120337  0.54783421  1
  O  O647  1  0.83649878  0.85248660  0.79770307  1
  O  O648  1  0.16435189  0.14745031  0.20220280  1
  O  O649  1  0.16237533  0.14991327  0.45223337  1
  O  O650  1  0.16414118  0.14833499  0.70275928  1
  O  O651  1  0.16437126  0.14958466  0.95154940  1
  O  O652  1  0.16320475  0.48262239  0.20288662  1
  O  O653  1  0.16411546  0.48026470  0.45236433  1
  O  O654  1  0.16206925  0.48255158  0.70332265  1
  O  O655  1  0.16119511  0.48098495  0.95212744  1
  O  O656  1  0.16357633  0.81526422  0.20212198  1
  O  O657  1  0.16375989  0.81539659  0.45252693  1
  O  O658  1  0.16025986  0.81403387  0.70223170  1
  O  O659  1  0.16051666  0.81428580  0.95242055  1
  O  O660  1  0.65961911  0.14788975  0.20219921  1
  O  O661  1  0.66187883  0.14958616  0.45255126  1
  O  O662  1  0.66247818  0.14819497  0.70351337  1
  O  O663  1  0.66107548  0.14903523  0.95264787  1
  O  O664  1  0.66172872  0.48316108  0.20201453  1
  O  O665  1  0.66329869  0.48071145  0.45266832  1
  O  O666  1  0.66064119  0.48116458  0.70259690  1
  O  O667  1  0.66225859  0.48062793  0.95197032  1
  O  O668  1  0.66377074  0.81412118  0.20191012  1
  O  O669  1  0.66393215  0.81501964  0.45209672  1
  O  O670  1  0.66193322  0.81600274  0.70230454  1
  O  O671  1  0.66296034  0.81518744  0.95260515  1
