# generated using pymatgen
data_Na2MnFe(PO4)2
_symmetry_space_group_name_H-M   'P 1'
_cell_length_a   21.08041978
_cell_length_b   18.93208463
_cell_length_c   20.03961659
_cell_angle_alpha   90.00019129
_cell_angle_beta   90.00165296
_cell_angle_gamma   89.99837817
_symmetry_Int_Tables_number   1
_chemical_formula_structural   Na2MnFe(PO4)2
_chemical_formula_sum   'Na96 Mn48 Fe48 P96 O384'
_cell_volume   7997.73665299
_cell_formula_units_Z   48
loop_
 _symmetry_equiv_pos_site_id
 _symmetry_equiv_pos_as_xyz
  1  'x, y, z'
loop_
 _atom_site_type_symbol
 _atom_site_label
 _atom_site_symmetry_multiplicity
 _atom_site_fract_x
 _atom_site_fract_y
 _atom_site_fract_z
 _atom_site_occupancy
  Na  Na0  1  0.00061604  0.00063954  0.00033138  1
  Na  Na1  1  0.00030996  0.00097777  0.24986728  1
  Na  Na2  1  0.00065645  0.00056308  0.49898226  1
  Na  Na3  1  0.00138648  0.00072046  0.74971218  1
  Na  Na4  1  -0.00209882  0.33299399  0.00081981  1
  Na  Na5  1  -0.00221360  0.33272135  0.25046190  1
  Na  Na6  1  0.00213252  0.33438439  0.49878514  1
  Na  Na7  1  0.00094346  0.33380073  0.74969351  1
  Na  Na8  1  -0.00228893  0.66574352  0.00042771  1
  Na  Na9  1  -0.00302535  0.66585257  0.25081900  1
  Na  Na10  1  -0.00125019  0.66582932  0.49990091  1
  Na  Na11  1  -0.00077088  0.66560627  0.74974424  1
  Na  Na12  1  0.49926387  -0.00009842  0.00162007  1
  Na  Na13  1  0.50125772  0.00073810  0.25025667  1
  Na  Na14  1  0.49873830  0.00009406  0.49910045  1
  Na  Na15  1  0.49720239  -0.00074103  0.75037891  1
  Na  Na16  1  0.50084630  0.33410161  0.00089711  1
  Na  Na17  1  0.50164074  0.33387903  0.24995873  1
  Na  Na18  1  0.50007340  0.33391705  0.49930827  1
  Na  Na19  1  0.49767817  0.33315670  0.74957780  1
  Na  Na20  1  0.50022552  0.66672080  0.00018643  1
  Na  Na21  1  0.49912514  0.66574322  0.24976235  1
  Na  Na22  1  0.50075738  0.66658368  0.49928195  1
  Na  Na23  1  0.50083942  0.66676270  0.75070058  1
  Na  Na24  1  0.24976886  0.00048657  0.12427902  1
  Na  Na25  1  0.25107292  0.00101155  0.37461062  1
  Na  Na26  1  0.25230596  0.00085332  0.62630089  1
  Na  Na27  1  0.25048041  0.00010643  0.87476855  1
  Na  Na28  1  0.25155284  0.33480862  0.12560726  1
  Na  Na29  1  0.24954726  0.33347455  0.37516179  1
  Na  Na30  1  0.24980838  0.33394374  0.62553593  1
  Na  Na31  1  0.24955600  0.33397094  0.87413522  1
  Na  Na32  1  0.25280942  0.66713052  0.12518672  1
  Na  Na33  1  0.25296063  0.66720230  0.37542219  1
  Na  Na34  1  0.25159287  0.66607412  0.62374110  1
  Na  Na35  1  0.25112937  0.66615190  0.87443330  1
  Na  Na36  1  0.74876577  -0.00017066  0.12508825  1
  Na  Na37  1  0.74781226  -0.00021200  0.37511483  1
  Na  Na38  1  0.74796070  -0.00041390  0.62520223  1
  Na  Na39  1  0.75050493  0.00096143  0.87528684  1
  Na  Na40  1  0.75158201  0.33388636  0.12459257  1
  Na  Na41  1  0.74788658  0.33257950  0.37430996  1
  Na  Na42  1  0.74868548  0.33335129  0.62478610  1
  Na  Na43  1  0.75121711  0.33392650  0.87552515  1
  Na  Na44  1  0.75244508  0.66714766  0.12485437  1
  Na  Na45  1  0.75047517  0.66630264  0.37580813  1
  Na  Na46  1  0.74886566  0.66613554  0.62531619  1
  Na  Na47  1  0.74998121  0.66628731  0.87426447  1
  Na  Na48  1  -0.00229975  0.16698700  0.00086645  1
  Na  Na49  1  -0.00131302  0.16672653  0.25087189  1
  Na  Na50  1  0.00137633  0.16638814  0.49904922  1
  Na  Na51  1  -0.00053926  0.16708802  0.74977187  1
  Na  Na52  1  -0.00182485  0.50070121  0.00049597  1
  Na  Na53  1  -0.00257797  0.50037746  0.24956596  1
  Na  Na54  1  0.00018184  0.49991961  0.49946249  1
  Na  Na55  1  0.00158279  0.49973044  0.74953356  1
  Na  Na56  1  0.00034013  0.83294119  0.00024035  1
  Na  Na57  1  -0.00140608  0.83375263  0.25060423  1
  Na  Na58  1  0.00035149  0.83253173  0.49915337  1
  Na  Na59  1  -0.00012247  0.83355408  0.74967663  1
  Na  Na60  1  0.49979411  0.16726858  0.00142467  1
  Na  Na61  1  0.50092376  0.16674512  0.25044689  1
  Na  Na62  1  0.49910386  0.16730500  0.49879564  1
  Na  Na63  1  0.49948636  0.16680156  0.74987056  1
  Na  Na64  1  0.49987525  0.49883350  0.00016162  1
  Na  Na65  1  0.50005912  0.49906689  0.25030865  1
  Na  Na66  1  0.49832279  0.49997089  0.50002113  1
  Na  Na67  1  0.49816250  0.49958149  0.74967652  1
  Na  Na68  1  0.50076645  0.83334719  0.00098230  1
  Na  Na69  1  0.50163568  0.83315317  0.24938496  1
  Na  Na70  1  0.50189070  0.83216334  0.49884321  1
  Na  Na71  1  0.49877634  0.83362571  0.75129053  1
  Na  Na72  1  0.25007251  0.16608030  0.12513607  1
  Na  Na73  1  0.25031761  0.16649466  0.37429725  1
  Na  Na74  1  0.25040252  0.16639391  0.62590607  1
  Na  Na75  1  0.24958844  0.16675079  0.87473602  1
  Na  Na76  1  0.25117787  0.49921830  0.12586630  1
  Na  Na77  1  0.25196923  0.49897714  0.37596843  1
  Na  Na78  1  0.25152659  0.49919658  0.62453016  1
  Na  Na79  1  0.24900471  0.49988895  0.87382045  1
  Na  Na80  1  0.25246485  0.83279200  0.12414567  1
  Na  Na81  1  0.25085126  0.83368131  0.37491721  1
  Na  Na82  1  0.25245378  0.83296030  0.62517598  1
  Na  Na83  1  0.25301253  0.83247138  0.87454812  1
  Na  Na84  1  0.75182486  0.16675213  0.12414809  1
  Na  Na85  1  0.75033224  0.16721471  0.37465530  1
  Na  Na86  1  0.74926130  0.16772464  0.62473183  1
  Na  Na87  1  0.75223839  0.16631878  0.87597474  1
  Na  Na88  1  0.75172473  0.49911173  0.12491409  1
  Na  Na89  1  0.74998116  0.49987951  0.37443731  1
  Na  Na90  1  0.74933575  0.50038105  0.62530276  1
  Na  Na91  1  0.75160645  0.49942170  0.87484899  1
  Na  Na92  1  0.74911495  0.83309326  0.12542187  1
  Na  Na93  1  0.74647694  0.83356951  0.37600374  1
  Na  Na94  1  0.74679779  0.83292466  0.62530907  1
  Na  Na95  1  0.74736165  0.83385458  0.87444631  1
  Mn  Mn96  1  0.35923268  0.75042623  0.50281468  1
  Mn  Mn97  1  0.60780501  0.08382922  0.37230188  1
  Mn  Mn98  1  0.85717519  0.75051559  0.75200468  1
  Mn  Mn99  1  0.14211090  0.25019038  0.24755742  1
  Mn  Mn100  1  0.14301719  0.91727979  0.49786175  1
  Mn  Mn101  1  0.64190686  0.58276898  0.74805050  1
  Mn  Mn102  1  0.60650272  0.41676376  0.62275138  1
  Mn  Mn103  1  0.10840924  0.74975664  0.62278857  1
  Mn  Mn104  1  0.39321945  0.91724375  0.12752384  1
  Mn  Mn105  1  0.64198848  0.25010421  0.74831675  1
  Mn  Mn106  1  0.39240362  0.25065840  0.37715531  1
  Mn  Mn107  1  0.85875967  0.41640338  0.75190488  1
  Mn  Mn108  1  0.10696287  0.41649887  0.12323404  1
  Mn  Mn109  1  0.14311082  0.58332076  0.49725334  1
  Mn  Mn110  1  0.10768642  0.74963211  0.37223598  1
  Mn  Mn111  1  0.60651661  0.08331164  0.62259828  1
  Mn  Mn112  1  0.85811508  0.08311387  0.75176150  1
  Mn  Mn113  1  0.89119963  0.91681193  0.37771868  1
  Mn  Mn114  1  0.64051268  0.91734712  0.74790208  1
  Mn  Mn115  1  0.89151725  0.91660807  0.12751471  1
  Mn  Mn116  1  0.39235825  0.58271640  0.12732803  1
  Mn  Mn117  1  0.85698051  0.08297720  0.50211232  1
  Mn  Mn118  1  0.89127481  0.91620420  0.62685850  1
  Mn  Mn119  1  0.39196405  0.58327110  0.87764047  1
  Mn  Mn120  1  0.60839669  0.74942168  0.12276214  1
  Mn  Mn121  1  0.14281797  0.58384729  0.24844818  1
  Mn  Mn122  1  0.64298685  0.58278730  0.24757150  1
  Mn  Mn123  1  0.14164328  0.25051140  0.99827436  1
  Mn  Mn124  1  0.64321687  0.58338162  0.99759163  1
  Mn  Mn125  1  0.10789958  0.75006005  0.12337327  1
  Mn  Mn126  1  0.14164702  0.25056820  0.74783640  1
  Mn  Mn127  1  0.35803946  0.08355029  0.75327994  1
  Mn  Mn128  1  0.64357305  0.24988729  0.99763381  1
  Mn  Mn129  1  0.85707527  0.41666644  0.50193843  1
  Mn  Mn130  1  0.39169761  0.24980299  0.87819594  1
  Mn  Mn131  1  0.89208860  0.91656199  0.87744870  1
  Mn  Mn132  1  0.14321895  0.91535661  0.74781467  1
  Mn  Mn133  1  0.60762120  0.08395946  0.87334524  1
  Mn  Mn134  1  0.14298233  0.91614510  0.99773720  1
  Mn  Mn135  1  0.10872227  0.74974846  0.87243670  1
  Mn  Mn136  1  0.39283761  0.25000903  0.12730886  1
  Mn  Mn137  1  0.14205050  0.58351649  0.99848388  1
  Mn  Mn138  1  0.39295445  0.91615448  0.37688804  1
  Mn  Mn139  1  0.85604871  0.75024723  0.50251082  1
  Mn  Mn140  1  0.10847408  0.08347175  0.62213620  1
  Mn  Mn141  1  0.14256457  0.91606892  0.24778295  1
  Mn  Mn142  1  0.85766359  0.75058352  0.00159303  1
  Mn  Mn143  1  0.89239153  0.25064242  0.62618565  1
  Fe  Fe144  1  0.89268155  0.58314238  0.62645363  1
  Fe  Fe145  1  0.35839163  0.74961857  0.00177444  1
  Fe  Fe146  1  0.85687035  0.08306486  0.25173761  1
  Fe  Fe147  1  0.35703185  0.08406982  0.00235669  1
  Fe  Fe148  1  0.35632680  0.41705027  0.75214738  1
  Fe  Fe149  1  0.10762243  0.08376009  0.37287264  1
  Fe  Fe150  1  0.60751304  0.41676632  0.87348982  1
  Fe  Fe151  1  0.39301313  0.91683658  0.87777383  1
  Fe  Fe152  1  0.89201458  0.58334727  0.12726896  1
  Fe  Fe153  1  0.35737768  0.08355259  0.25121651  1
  Fe  Fe154  1  0.89330473  0.58295388  0.87601466  1
  Fe  Fe155  1  0.85674876  0.41632603  0.25238432  1
  Fe  Fe156  1  0.64316727  0.91732357  0.24817986  1
  Fe  Fe157  1  0.35847225  0.75014268  0.25203637  1
  Fe  Fe158  1  0.60655244  0.74949540  0.87368427  1
  Fe  Fe159  1  0.35856219  0.74896478  0.75172646  1
  Fe  Fe160  1  0.85796682  0.08279581  0.00214945  1
  Fe  Fe161  1  0.89215531  0.58273097  0.37728271  1
  Fe  Fe162  1  0.39353100  0.58307045  0.37643631  1
  Fe  Fe163  1  0.64270706  0.91708006  0.99811085  1
  Fe  Fe164  1  0.64385382  0.24963353  0.24802872  1
  Fe  Fe165  1  0.60800635  0.41649759  0.12305851  1
  Fe  Fe166  1  0.39302350  0.91636340  0.62646258  1
  Fe  Fe167  1  0.10671575  0.08351922  0.12329857  1
  Fe  Fe168  1  0.14324964  0.24973438  0.49834301  1
  Fe  Fe169  1  0.10700943  0.08375522  0.87444983  1
  Fe  Fe170  1  0.85687512  0.75045349  0.25233295  1
  Fe  Fe171  1  0.64131209  0.25045174  0.49805169  1
  Fe  Fe172  1  0.10714730  0.41678382  0.37306932  1
  Fe  Fe173  1  0.35716269  0.41533326  0.50179523  1
  Fe  Fe174  1  0.89276033  0.25041737  0.37724292  1
  Fe  Fe175  1  0.39299160  0.58356901  0.62697603  1
  Fe  Fe176  1  0.60698164  0.41730324  0.37317460  1
  Fe  Fe177  1  0.35729404  0.08421178  0.50140262  1
  Fe  Fe178  1  0.60729074  0.74882966  0.37265857  1
  Fe  Fe179  1  0.64162332  0.58265433  0.49816711  1
  Fe  Fe180  1  0.60624421  0.74965713  0.62376827  1
  Fe  Fe181  1  0.85807477  0.41649313  0.00160226  1
  Fe  Fe182  1  0.60818589  0.08422740  0.12324121  1
  Fe  Fe183  1  0.10707285  0.41651601  0.87416380  1
  Fe  Fe184  1  0.14283679  0.58370601  0.74805170  1
  Fe  Fe185  1  0.10793419  0.41708581  0.62277155  1
  Fe  Fe186  1  0.64070145  0.91691740  0.49843812  1
  Fe  Fe187  1  0.35817975  0.41661606  0.25243963  1
  Fe  Fe188  1  0.89303604  0.25043689  0.87622391  1
  Fe  Fe189  1  0.89225607  0.25003250  0.12753950  1
  Fe  Fe190  1  0.35746365  0.41636171  0.00137178  1
  Fe  Fe191  1  0.39186390  0.25021176  0.62616431  1
  P  P192  1  0.05162071  0.24931335  0.11072848  1
  P  P193  1  0.05399193  0.25024093  0.36113935  1
  P  P194  1  0.05433923  0.25107408  0.60875023  1
  P  P195  1  0.05219522  0.25007331  0.86079858  1
  P  P196  1  0.05166504  0.58339445  0.11069563  1
  P  P197  1  0.05211702  0.58232123  0.35993650  1
  P  P198  1  0.05389616  0.58279708  0.61058454  1
  P  P199  1  0.05338542  0.58248922  0.85975010  1
  P  P200  1  0.05332023  0.91736394  0.11021621  1
  P  P201  1  0.05321239  0.91753363  0.35986185  1
  P  P202  1  0.05314609  0.91632205  0.60935554  1
  P  P203  1  0.05369628  0.91743288  0.86005070  1
  P  P204  1  0.55579665  0.25021244  0.11160764  1
  P  P205  1  0.55535113  0.25121848  0.36002283  1
  P  P206  1  0.55176624  0.25018168  0.60935543  1
  P  P207  1  0.55308421  0.25111875  0.86046060  1
  P  P208  1  0.55385431  0.58199759  0.10999365  1
  P  P209  1  0.55364076  0.58267181  0.36088379  1
  P  P210  1  0.55221170  0.58342806  0.60973243  1
  P  P211  1  0.55335713  0.58250839  0.86053611  1
  P  P212  1  0.55635629  0.91784431  0.11097603  1
  P  P213  1  0.55553130  0.91599807  0.36000525  1
  P  P214  1  0.55166017  0.91599780  0.60962790  1
  P  P215  1  0.55302908  0.91658854  0.86196487  1
  P  P216  1  0.44689123  0.08383231  0.13997751  1
  P  P217  1  0.44491737  0.08366300  0.38905166  1
  P  P218  1  0.44469945  0.08388922  0.63851611  1
  P  P219  1  0.44612651  0.08301387  0.89171050  1
  P  P220  1  0.44648037  0.41617633  0.13978823  1
  P  P221  1  0.44602129  0.41712965  0.38942624  1
  P  P222  1  0.44379848  0.41632414  0.63900113  1
  P  P223  1  0.44606221  0.41662283  0.88977866  1
  P  P224  1  0.44559541  0.74997560  0.13965260  1
  P  P225  1  0.44715119  0.74919641  0.38846594  1
  P  P226  1  0.44751042  0.74965616  0.64046936  1
  P  P227  1  0.44624964  0.75035042  0.88985206  1
  P  P228  1  0.94540445  0.08373141  0.13991896  1
  P  P229  1  0.94595634  0.08427221  0.38867690  1
  P  P230  1  0.94692408  0.08357773  0.63944714  1
  P  P231  1  0.94707766  0.08392723  0.89050957  1
  P  P232  1  0.94417449  0.41649141  0.13973640  1
  P  P233  1  0.94593007  0.41641217  0.38866033  1
  P  P234  1  0.94811510  0.41733016  0.63917684  1
  P  P235  1  0.94749662  0.41694696  0.89015598  1
  P  P236  1  0.94551450  0.74970040  0.14102192  1
  P  P237  1  0.94460802  0.74925840  0.38932406  1
  P  P238  1  0.94638336  0.74902843  0.63971295  1
  P  P239  1  0.94718609  0.74910921  0.88971215  1
  P  P240  1  0.19598141  0.08336306  0.23516612  1
  P  P241  1  0.19766606  0.08432945  0.48444778  1
  P  P242  1  0.19539290  0.08327878  0.73660009  1
  P  P243  1  0.19608249  0.08364655  0.98561717  1
  P  P244  1  0.19685532  0.41709826  0.23642374  1
  P  P245  1  0.19608639  0.41586335  0.48561034  1
  P  P246  1  0.19510546  0.41782244  0.73556326  1
  P  P247  1  0.19723986  0.41678682  0.98467677  1
  P  P248  1  0.19899084  0.74972272  0.23492697  1
  P  P249  1  0.19770131  0.75011684  0.48462371  1
  P  P250  1  0.19905264  0.74874698  0.73469563  1
  P  P251  1  0.19889488  0.74969496  0.98493363  1
  P  P252  1  0.69738262  0.08412928  0.23465647  1
  P  P253  1  0.69552861  0.08389551  0.48496384  1
  P  P254  1  0.69632667  0.08399149  0.73483160  1
  P  P255  1  0.69728275  0.08303520  0.98632944  1
  P  P256  1  0.69623513  0.41585174  0.23557945  1
  P  P257  1  0.69509316  0.41717768  0.48434017  1
  P  P258  1  0.69578186  0.41659310  0.73579422  1
  P  P259  1  0.69702121  0.41667394  0.98545728  1
  P  P260  1  0.69670338  0.74976874  0.23646792  1
  P  P261  1  0.69299104  0.74903492  0.48609911  1
  P  P262  1  0.69373771  0.74970017  0.73547504  1
  P  P263  1  0.69597057  0.75051524  0.98420715  1
  P  P264  1  0.30306622  0.25034505  0.01525196  1
  P  P265  1  0.30378007  0.25003792  0.26482634  1
  P  P266  1  0.30270950  0.25006514  0.51513915  1
  P  P267  1  0.30421500  0.25113401  0.76399321  1
  P  P268  1  0.30359930  0.58241449  0.01493760  1
  P  P269  1  0.30489244  0.58300487  0.26601083  1
  P  P270  1  0.30621783  0.58210007  0.51414074  1
  P  P271  1  0.30402383  0.58300168  0.76330583  1
  P  P272  1  0.30554919  0.91717574  0.01377081  1
  P  P273  1  0.30415905  0.91720013  0.26458541  1
  P  P274  1  0.30459861  0.91795102  0.51551927  1
  P  P275  1  0.30641701  0.91542850  0.76466075  1
  P  P276  1  0.80649412  0.25028825  0.01416597  1
  P  P277  1  0.80447027  0.24999549  0.26429843  1
  P  P278  1  0.80236632  0.25054960  0.51357668  1
  P  P279  1  0.80405351  0.25024234  0.76571298  1
  P  P280  1  0.80571956  0.58254360  0.01406905  1
  P  P281  1  0.80521056  0.58306361  0.26462925  1
  P  P282  1  0.80292281  0.58295950  0.51467004  1
  P  P283  1  0.80520546  0.58315696  0.76444780  1
  P  P284  1  0.80188202  0.91697352  0.01508207  1
  P  P285  1  0.80180862  0.91685618  0.26525226  1
  P  P286  1  0.80021609  0.91641756  0.51516791  1
  P  P287  1  0.80218674  0.91661412  0.76531769  1
  O  O288  1  0.05556677  0.24992544  0.18741748  1
  O  O289  1  0.05909625  0.25010963  0.43774653  1
  O  O290  1  0.05681525  0.25028007  0.68563492  1
  O  O291  1  0.05522481  0.25007782  0.93751539  1
  O  O292  1  0.05600767  0.58349052  0.18733471  1
  O  O293  1  0.05654487  0.58289943  0.43663031  1
  O  O294  1  0.05886972  0.58367014  0.68726189  1
  O  O295  1  0.05666598  0.58338161  0.93652520  1
  O  O296  1  0.05650005  0.91666326  0.18698663  1
  O  O297  1  0.05676669  0.91680782  0.43661218  1
  O  O298  1  0.05701045  0.91623307  0.68614649  1
  O  O299  1  0.05698420  0.91647048  0.93686886  1
  O  O300  1  0.55979455  0.24987042  0.18836181  1
  O  O301  1  0.55882004  0.25028078  0.43684828  1
  O  O302  1  0.55575100  0.25020761  0.68606440  1
  O  O303  1  0.55687798  0.25060439  0.93724925  1
  O  O304  1  0.55693538  0.58253994  0.18679887  1
  O  O305  1  0.55748871  0.58254685  0.43757181  1
  O  O306  1  0.55591814  0.58237733  0.68643042  1
  O  O307  1  0.55653361  0.58242782  0.93727369  1
  O  O308  1  0.56056722  0.91729330  0.18785322  1
  O  O309  1  0.55865818  0.91708755  0.43688848  1
  O  O310  1  0.55457235  0.91705943  0.68642811  1
  O  O311  1  0.55799289  0.91733140  0.93865502  1
  O  O312  1  0.44154820  0.08407600  0.06336551  1
  O  O313  1  0.44081096  0.08382207  0.31226111  1
  O  O314  1  0.44138216  0.08425511  0.56171011  1
  O  O315  1  0.44329095  0.08393437  0.81479316  1
  O  O316  1  0.44133704  0.41611381  0.06313060  1
  O  O317  1  0.44172281  0.41597836  0.31266586  1
  O  O318  1  0.44051546  0.41587740  0.56214734  1
  O  O319  1  0.44080394  0.41669776  0.81311871  1
  O  O320  1  0.44139144  0.74990326  0.06284394  1
  O  O321  1  0.44248619  0.75010633  0.31176902  1
  O  O322  1  0.44479230  0.74956980  0.56365216  1
  O  O323  1  0.44193698  0.74926932  0.81312198  1
  O  O324  1  0.94081894  0.08252923  0.06317338  1
  O  O325  1  0.94061683  0.08328652  0.31201088  1
  O  O326  1  0.94331604  0.08336207  0.56262488  1
  O  O327  1  0.94380879  0.08313154  0.81376462  1
  O  O328  1  0.94102141  0.41656422  0.06291516  1
  O  O329  1  0.94104332  0.41619421  0.31200598  1
  O  O330  1  0.94407059  0.41680726  0.56249428  1
  O  O331  1  0.94465115  0.41675474  0.81339700  1
  O  O332  1  0.94271979  0.75080455  0.06421065  1
  O  O333  1  0.94007719  0.75057678  0.31256695  1
  O  O334  1  0.94273904  0.74972788  0.56292373  1
  O  O335  1  0.94383265  0.75008766  0.81299216  1
  O  O336  1  0.19089888  0.08381319  0.06232158  1
  O  O337  1  0.19099863  0.08365133  0.31189118  1
  O  O338  1  0.19435652  0.08356122  0.56123970  1
  O  O339  1  0.19060268  0.08360185  0.81333182  1
  O  O340  1  0.19318376  0.41662685  0.06143570  1
  O  O341  1  0.19128440  0.41697756  0.31307135  1
  O  O342  1  0.19170491  0.41698680  0.56234509  1
  O  O343  1  0.19014770  0.41689777  0.81225677  1
  O  O344  1  0.19449745  0.74978535  0.06160172  1
  O  O345  1  0.19444382  0.74963999  0.31160676  1
  O  O346  1  0.19429251  0.74970263  0.56139573  1
  O  O347  1  0.19514136  0.74933982  0.81143106  1
  O  O348  1  0.69247713  0.08395411  0.06297832  1
  O  O349  1  0.69374514  0.08434612  0.31129897  1
  O  O350  1  0.69260840  0.08413033  0.56176576  1
  O  O351  1  0.69339245  0.08412346  0.81165081  1
  O  O352  1  0.69223220  0.41677576  0.06216663  1
  O  O353  1  0.69115389  0.41698790  0.31220206  1
  O  O354  1  0.69225418  0.41727830  0.56117817  1
  O  O355  1  0.69153321  0.41680717  0.81255071  1
  O  O356  1  0.69361610  0.74924169  0.06109983  1
  O  O357  1  0.69183288  0.74858200  0.31314546  1
  O  O358  1  0.68910089  0.74891830  0.56296092  1
  O  O359  1  0.68936613  0.74952065  0.81224961  1
  O  O360  1  0.30689223  0.25024643  0.18809850  1
  O  O361  1  0.30625189  0.25041006  0.43839522  1
  O  O362  1  0.30806131  0.25029913  0.68728949  1
  O  O363  1  0.30541610  0.25020105  0.93843736  1
  O  O364  1  0.30733818  0.58267189  0.18917785  1
  O  O365  1  0.31041701  0.58313475  0.43739755  1
  O  O366  1  0.30866690  0.58334970  0.68663401  1
  O  O367  1  0.30595548  0.58226555  0.93810214  1
  O  O368  1  0.30691274  0.91722628  0.18780058  1
  O  O369  1  0.30735435  0.91677151  0.43870811  1
  O  O370  1  0.31042661  0.91625337  0.68783680  1
  O  O371  1  0.30894905  0.91713111  0.93692708  1
  O  O372  1  0.80867772  0.25011214  0.18750734  1
  O  O373  1  0.80786587  0.25076336  0.43693540  1
  O  O374  1  0.80686723  0.25074638  0.68885595  1
  O  O375  1  0.81041462  0.25042724  0.93737152  1
  O  O376  1  0.80867318  0.58309485  0.18775847  1
  O  O377  1  0.80812610  0.58262584  0.43794797  1
  O  O378  1  0.80937654  0.58290064  0.68763648  1
  O  O379  1  0.80960277  0.58300475  0.93727424  1
  O  O380  1  0.80534622  0.91665637  0.18854898  1
  O  O381  1  0.80457649  0.91637071  0.43847889  1
  O  O382  1  0.80541488  0.91609712  0.68852024  1
  O  O383  1  0.80565492  0.91670980  0.93838868  1
  O  O384  1  0.23365654  0.25050759  0.04128735  1
  O  O385  1  0.23410407  0.25006950  0.29000391  1
  O  O386  1  0.23271939  0.25020888  0.53999601  1
  O  O387  1  0.23426021  0.25077181  0.78853471  1
  O  O388  1  0.23423901  0.58288300  0.04115048  1
  O  O389  1  0.23531370  0.58296903  0.29172611  1
  O  O390  1  0.23604812  0.58259567  0.53799641  1
  O  O391  1  0.23384029  0.58308243  0.78749961  1
  O  O392  1  0.23573266  0.91698922  0.03869999  1
  O  O393  1  0.23465172  0.91717572  0.29030036  1
  O  O394  1  0.23505939  0.91714730  0.54114779  1
  O  O395  1  0.23635283  0.91617771  0.78881842  1
  O  O396  1  0.73639701  0.25040139  0.03832096  1
  O  O397  1  0.73400078  0.24991450  0.28790168  1
  O  O398  1  0.73191206  0.25093856  0.53691270  1
  O  O399  1  0.73448342  0.25017997  0.79120142  1
  O  O400  1  0.73571609  0.58330265  0.03858823  1
  O  O401  1  0.73516310  0.58292371  0.28898794  1
  O  O402  1  0.73240321  0.58306170  0.53785377  1
  O  O403  1  0.73509189  0.58296872  0.78835091  1
  O  O404  1  0.73191655  0.91650347  0.03985800  1
  O  O405  1  0.73166396  0.91711598  0.28983032  1
  O  O406  1  0.72999296  0.91623002  0.53921141  1
  O  O407  1  0.73246477  0.91726094  0.79027137  1
  O  O408  1  0.26652780  0.08348935  0.21189899  1
  O  O409  1  0.26776225  0.08406454  0.45990748  1
  O  O410  1  0.26566177  0.08340734  0.71315275  1
  O  O411  1  0.26654923  0.08359219  0.96226819  1
  O  O412  1  0.26744587  0.41704250  0.21351789  1
  O  O413  1  0.26661244  0.41600358  0.46218216  1
  O  O414  1  0.26554227  0.41708581  0.71212089  1
  O  O415  1  0.26731931  0.41659560  0.96021165  1
  O  O416  1  0.26923236  0.74978158  0.21103039  1
  O  O417  1  0.26768299  0.75036979  0.46024604  1
  O  O418  1  0.26911713  0.74900275  0.71017046  1
  O  O419  1  0.26910418  0.74957342  0.96079415  1
  O  O420  1  0.76759855  0.08392294  0.21027168  1
  O  O421  1  0.76509698  0.08359947  0.45932460  1
  O  O422  1  0.76583673  0.08363062  0.70931520  1
  O  O423  1  0.76767600  0.08346754  0.96270952  1
  O  O424  1  0.76682804  0.41634032  0.21252091  1
  O  O425  1  0.76477881  0.41656262  0.45905229  1
  O  O426  1  0.76574089  0.41672840  0.71143050  1
  O  O427  1  0.76753204  0.41635041  0.96216099  1
  O  O428  1  0.76700869  0.74972938  0.21263485  1
  O  O429  1  0.76307476  0.74954356  0.46189357  1
  O  O430  1  0.76381466  0.74959341  0.71150873  1
  O  O431  1  0.76553665  0.75016043  0.95870735  1
  O  O432  1  0.01578922  0.08367269  0.16359155  1
  O  O433  1  0.01648397  0.08407274  0.41191254  1
  O  O434  1  0.01665954  0.08408548  0.66428531  1
  O  O435  1  0.01713102  0.08374119  0.91538258  1
  O  O436  1  0.01411295  0.41625399  0.16457357  1
  O  O437  1  0.01631570  0.41669530  0.41234243  1
  O  O438  1  0.01812225  0.41685968  0.66378493  1
  O  O439  1  0.01745252  0.41703430  0.91546738  1
  O  O440  1  0.01522190  0.74990306  0.16636567  1
  O  O441  1  0.01472082  0.74907104  0.41325763  1
  O  O442  1  0.01610556  0.74934853  0.66476621  1
  O  O443  1  0.01684900  0.74906128  0.91508887  1
  O  O444  1  0.51739710  0.08384403  0.16320171  1
  O  O445  1  0.51505687  0.08376838  0.41275244  1
  O  O446  1  0.51441594  0.08338379  0.66389635  1
  O  O447  1  0.51579386  0.08369627  0.91686918  1
  O  O448  1  0.51696818  0.41622174  0.16307278  1
  O  O449  1  0.51634864  0.41669835  0.41316910  1
  O  O450  1  0.51378982  0.41649993  0.66357449  1
  O  O451  1  0.51645505  0.41670358  0.91327470  1
  O  O452  1  0.51576148  0.74966935  0.16343726  1
  O  O453  1  0.51740502  0.74929011  0.41227647  1
  O  O454  1  0.51742898  0.74977478  0.66565779  1
  O  O455  1  0.51658437  0.74986094  0.91381352  1
  O  O456  1  0.48582693  0.25054947  0.08720059  1
  O  O457  1  0.48528146  0.25063078  0.33586667  1
  O  O458  1  0.48162757  0.25076103  0.58501387  1
  O  O459  1  0.48333132  0.25040856  0.83566223  1
  O  O460  1  0.48421957  0.58244563  0.08482417  1
  O  O461  1  0.48354645  0.58259520  0.33628789  1
  O  O462  1  0.48203896  0.58309875  0.58540587  1
  O  O463  1  0.48368296  0.58270233  0.83527871  1
  O  O464  1  0.48615445  0.91683784  0.08739203  1
  O  O465  1  0.48562376  0.91675482  0.33534923  1
  O  O466  1  0.48176379  0.91604177  0.58441945  1
  O  O467  1  0.48270474  0.91662143  0.83816412  1
  O  O468  1  0.98150640  0.24984008  0.08650950  1
  O  O469  1  0.98357421  0.25020584  0.33748569  1
  O  O470  1  0.98474415  0.25050848  0.58323398  1
  O  O471  1  0.98233564  0.25043810  0.83537636  1
  O  O472  1  0.98145706  0.58323836  0.08670615  1
  O  O473  1  0.98186634  0.58262236  0.33609015  1
  O  O474  1  0.98354946  0.58285993  0.58674012  1
  O  O475  1  0.98329499  0.58259900  0.83512593  1
  O  O476  1  0.98360587  0.91698381  0.08514136  1
  O  O477  1  0.98334805  0.91754950  0.33511373  1
  O  O478  1  0.98340656  0.91626533  0.58432910  1
  O  O479  1  0.98398983  0.91712848  0.83490286  1
  O  O480  1  0.08547947  0.31429688  0.07779755  1
  O  O481  1  0.08705301  0.31547755  0.32768317  1
  O  O482  1  0.08851267  0.31640259  0.57694594  1
  O  O483  1  0.08638367  0.31517120  0.82841739  1
  O  O484  1  0.08524384  0.64842462  0.07758729  1
  O  O485  1  0.08578387  0.64739705  0.32687117  1
  O  O486  1  0.08730951  0.64766489  0.57687832  1
  O  O487  1  0.08757012  0.64725039  0.82649915  1
  O  O488  1  0.08723560  0.98277697  0.07823026  1
  O  O489  1  0.08724736  0.98275841  0.32771824  1
  O  O490  1  0.08712304  0.98158380  0.57697466  1
  O  O491  1  0.08763045  0.98279744  0.82822481  1
  O  O492  1  0.58955279  0.31532621  0.07876675  1
  O  O493  1  0.58891645  0.31646274  0.32745528  1
  O  O494  1  0.58608016  0.31498543  0.57653664  1
  O  O495  1  0.58668404  0.31643615  0.82795495  1
  O  O496  1  0.58808815  0.64707159  0.07765310  1
  O  O497  1  0.58720528  0.64766530  0.32763269  1
  O  O498  1  0.58588938  0.64859824  0.57727431  1
  O  O499  1  0.58735443  0.64774186  0.82831025  1
  O  O500  1  0.58925467  0.98329848  0.07799565  1
  O  O501  1  0.58973815  0.98083232  0.32694452  1
  O  O502  1  0.58573827  0.98088044  0.57660418  1
  O  O503  1  0.58596040  0.98171223  0.82821534  1
  O  O504  1  0.41360589  0.01877446  0.17339822  1
  O  O505  1  0.41140300  0.01871258  0.42219987  1
  O  O506  1  0.41081470  0.01869791  0.67104552  1
  O  O507  1  0.41211528  0.01778015  0.92369016  1
  O  O508  1  0.41317274  0.35127837  0.17349564  1
  O  O509  1  0.41227991  0.35233575  0.42309679  1
  O  O510  1  0.40999961  0.35139894  0.67204831  1
  O  O511  1  0.41269038  0.35176928  0.92354189  1
  O  O512  1  0.41183007  0.68507275  0.17269365  1
  O  O513  1  0.41387260  0.68413629  0.42158118  1
  O  O514  1  0.41355265  0.68447333  0.67304828  1
  O  O515  1  0.41262120  0.68541773  0.92327778  1
  O  O516  1  0.91184942  0.01888279  0.17361702  1
  O  O517  1  0.91265778  0.01937863  0.42249274  1
  O  O518  1  0.91315151  0.01842304  0.67208752  1
  O  O519  1  0.91293399  0.01905477  0.92365338  1
  O  O520  1  0.91023326  0.35143590  0.17262453  1
  O  O521  1  0.91287237  0.35122998  0.42215780  1
  O  O522  1  0.91419964  0.35230865  0.67201246  1
  O  O523  1  0.91329033  0.35200777  0.92275076  1
  O  O524  1  0.91114032  0.68449287  0.17281658  1
  O  O525  1  0.91100363  0.68387895  0.42175109  1
  O  O526  1  0.91248612  0.68368526  0.67178361  1
  O  O527  1  0.91299544  0.68381644  0.92156134  1
  O  O528  1  0.16271821  0.01836655  0.20175836  1
  O  O529  1  0.16354425  0.01951900  0.45143614  1
  O  O530  1  0.16249538  0.01810900  0.70317210  1
  O  O531  1  0.16273150  0.01868648  0.95213366  1
  O  O532  1  0.16378139  0.35206906  0.20267860  1
  O  O533  1  0.16276174  0.35066905  0.45266130  1
  O  O534  1  0.16141301  0.35304125  0.70192439  1
  O  O535  1  0.16315505  0.35182163  0.95179934  1
  O  O536  1  0.16542701  0.68461482  0.20196159  1
  O  O537  1  0.16405620  0.68493380  0.45183939  1
  O  O538  1  0.16518028  0.68364790  0.70213452  1
  O  O539  1  0.16521064  0.68457653  0.95216223  1
  O  O540  1  0.66329497  0.01912821  0.20210488  1
  O  O541  1  0.66117459  0.01870368  0.45300009  1
  O  O542  1  0.66163204  0.01901252  0.70279424  1
  O  O543  1  0.66401626  0.01784871  0.95327129  1
  O  O544  1  0.66340396  0.35055935  0.20227396  1
  O  O545  1  0.66034262  0.35244705  0.45199884  1
  O  O546  1  0.66213029  0.35155586  0.70278278  1
  O  O547  1  0.66343754  0.35181712  0.95202467  1
  O  O548  1  0.66357013  0.68486899  0.20250263  1
  O  O549  1  0.65989227  0.68364762  0.45280609  1
  O  O550  1  0.66011036  0.68475709  0.70215126  1
  O  O551  1  0.66139888  0.68572352  0.95157674  1
  O  O552  1  0.33764492  0.31549312  0.04709740  1
  O  O553  1  0.33788808  0.31506432  0.29750566  1
  O  O554  1  0.33680898  0.31500610  0.54795441  1
  O  O555  1  0.33752819  0.31654384  0.79666125  1
  O  O556  1  0.33847622  0.64739428  0.04667405  1
  O  O557  1  0.33943345  0.64816999  0.29793901  1
  O  O558  1  0.34013936  0.64691890  0.54764466  1
  O  O559  1  0.33779130  0.64780521  0.79671186  1
  O  O560  1  0.33911705  0.98246105  0.04663270  1
  O  O561  1  0.33835950  0.98238551  0.29666050  1
  O  O562  1  0.33839930  0.98344422  0.54730038  1
  O  O563  1  0.34046500  0.98018916  0.79809049  1
  O  O564  1  0.84003120  0.31536060  0.04732501  1
  O  O565  1  0.83768808  0.31509309  0.29780858  1
  O  O566  1  0.83567672  0.31547001  0.54724039  1
  O  O567  1  0.83853380  0.31517465  0.79820930  1
  O  O568  1  0.83972509  0.64738095  0.04726167  1
  O  O569  1  0.83880609  0.64804101  0.29770457  1
  O  O570  1  0.83627657  0.64793048  0.54806749  1
  O  O571  1  0.83870386  0.64817346  0.79762550  1
  O  O572  1  0.83569088  0.98200369  0.04785597  1
  O  O573  1  0.83545475  0.98214218  0.29778330  1
  O  O574  1  0.83390066  0.98155037  0.54779970  1
  O  O575  1  0.83668557  0.98158439  0.79744216  1
  O  O576  1  0.41344387  0.14870127  0.17358124  1
  O  O577  1  0.41128425  0.14861946  0.42235646  1
  O  O578  1  0.41116721  0.14914067  0.67145482  1
  O  O579  1  0.41142320  0.14778505  0.92428823  1
  O  O580  1  0.41308076  0.48113272  0.17327530  1
  O  O581  1  0.41260426  0.48220212  0.42223655  1
  O  O582  1  0.41012530  0.48160900  0.67171065  1
  O  O583  1  0.41255704  0.48155656  0.92326560  1
  O  O584  1  0.41230369  0.81510166  0.17286706  1
  O  O585  1  0.41400923  0.81420479  0.42217446  1
  O  O586  1  0.41331922  0.81461599  0.67281537  1
  O  O587  1  0.41300603  0.81545391  0.92295676  1
  O  O588  1  0.91195940  0.14895135  0.17276666  1
  O  O589  1  0.91291308  0.14963407  0.42174627  1
  O  O590  1  0.91279092  0.14875961  0.67160623  1
  O  O591  1  0.91313711  0.14911179  0.92275215  1
  O  O592  1  0.91030439  0.48159302  0.17245797  1
  O  O593  1  0.91247222  0.48145007  0.42196473  1
  O  O594  1  0.91440250  0.48239376  0.67192507  1
  O  O595  1  0.91320290  0.48201445  0.92247901  1
  O  O596  1  0.91101092  0.81458098  0.17380155  1
  O  O597  1  0.91119677  0.81430029  0.42282126  1
  O  O598  1  0.91211137  0.81397412  0.67239595  1
  O  O599  1  0.91309199  0.81409463  0.92262601  1
  O  O600  1  0.08518582  0.18414260  0.07805776  1
  O  O601  1  0.08719052  0.18513246  0.32765670  1
  O  O602  1  0.08920171  0.18636224  0.57623763  1
  O  O603  1  0.08608223  0.18499034  0.82819747  1
  O  O604  1  0.08519923  0.51822193  0.07781957  1
  O  O605  1  0.08561968  0.51715110  0.32714403  1
  O  O606  1  0.08718707  0.51752908  0.57755985  1
  O  O607  1  0.08732076  0.51727425  0.82748760  1
  O  O608  1  0.08766546  0.85239345  0.07767068  1
  O  O609  1  0.08704058  0.85231708  0.32711381  1
  O  O610  1  0.08735244  0.85130573  0.57692843  1
  O  O611  1  0.08795942  0.85236557  0.82739108  1
  O  O612  1  0.58915975  0.18503846  0.07836978  1
  O  O613  1  0.58940371  0.18642715  0.32672268  1
  O  O614  1  0.58537165  0.18510534  0.57633947  1
  O  O615  1  0.58712193  0.18598766  0.82791430  1
  O  O616  1  0.58786804  0.51679024  0.07784303  1
  O  O617  1  0.58716151  0.51752577  0.32777839  1
  O  O618  1  0.58616266  0.51864814  0.57636179  1
  O  O619  1  0.58727235  0.51735239  0.82789209  1
  O  O620  1  0.59024528  0.85302069  0.07774883  1
  O  O621  1  0.58906560  0.85059797  0.32770404  1
  O  O622  1  0.58581805  0.85085233  0.57766655  1
  O  O623  1  0.58619089  0.85140464  0.82886270  1
  O  O624  1  0.33749779  0.18521231  0.04741405  1
  O  O625  1  0.33783393  0.18482023  0.29701530  1
  O  O626  1  0.33669510  0.18495789  0.54768022  1
  O  O627  1  0.33806258  0.18634146  0.79736883  1
  O  O628  1  0.33768441  0.51706816  0.04704748  1
  O  O629  1  0.33943879  0.51799793  0.29827055  1
  O  O630  1  0.33934955  0.51671753  0.54685392  1
  O  O631  1  0.33720428  0.51768214  0.79650024  1
  O  O632  1  0.33958498  0.85211950  0.04630422  1
  O  O633  1  0.33847000  0.85207281  0.29691067  1
  O  O634  1  0.33954563  0.85320709  0.54809561  1
  O  O635  1  0.33975131  0.84995852  0.79714628  1
  O  O636  1  0.83996983  0.18512712  0.04724652  1
  O  O637  1  0.83788203  0.18494696  0.29745572  1
  O  O638  1  0.83540753  0.18541810  0.54691595  1
  O  O639  1  0.83857019  0.18523517  0.79783634  1
  O  O640  1  0.83900874  0.51721858  0.04695921  1
  O  O641  1  0.83879899  0.51779772  0.29752662  1
  O  O642  1  0.83629256  0.51792786  0.54810161  1
  O  O643  1  0.83910000  0.51829584  0.79765551  1
  O  O644  1  0.83575224  0.85188398  0.04780144  1
  O  O645  1  0.83526190  0.85177250  0.29825785  1
  O  O646  1  0.83380453  0.85139177  0.54814555  1
  O  O647  1  0.83584231  0.85144597  0.79811067  1
  O  O648  1  0.16254053  0.14832803  0.20164026  1
  O  O649  1  0.16380051  0.14955052  0.45197179  1
  O  O650  1  0.16220544  0.14840757  0.70323290  1
  O  O651  1  0.16270905  0.14873915  0.95223409  1
  O  O652  1  0.16381087  0.48208187  0.20278747  1
  O  O653  1  0.16270240  0.48068324  0.45172867  1
  O  O654  1  0.16233646  0.48316489  0.70215456  1
  O  O655  1  0.16330632  0.48180698  0.95195228  1
  O  O656  1  0.16541233  0.81478706  0.20193650  1
  O  O657  1  0.16366697  0.81513842  0.45223175  1
  O  O658  1  0.16523060  0.81383326  0.70192415  1
  O  O659  1  0.16544445  0.81477451  0.95181428  1
  O  O660  1  0.66375025  0.14920228  0.20153499  1
  O  O661  1  0.66157638  0.14904307  0.45242614  1
  O  O662  1  0.66222406  0.14905881  0.70242306  1
  O  O663  1  0.66401654  0.14796088  0.95261329  1
  O  O664  1  0.66285968  0.48059322  0.20150813  1
  O  O665  1  0.66128810  0.48255741  0.45182998  1
  O  O666  1  0.66198266  0.48148347  0.70258623  1
  O  O667  1  0.66381965  0.48165453  0.95185091  1
  O  O668  1  0.66330307  0.81498317  0.20373716  1
  O  O669  1  0.65899014  0.81394584  0.45324263  1
  O  O670  1  0.65994455  0.81473877  0.70251872  1
  O  O671  1  0.66155759  0.81582373  0.95268463  1
