# generated using pymatgen
data_Na2MnFe(PO4)2
_symmetry_space_group_name_H-M   'P 1'
_cell_length_a   21.09240371
_cell_length_b   18.94661059
_cell_length_c   20.05097783
_cell_angle_alpha   89.99947327
_cell_angle_beta   89.99980701
_cell_angle_gamma   90.00302239
_symmetry_Int_Tables_number   1
_chemical_formula_structural   Na2MnFe(PO4)2
_chemical_formula_sum   'Na96 Mn48 Fe48 P96 O384'
_cell_volume   8012.96342326
_cell_formula_units_Z   48
loop_
 _symmetry_equiv_pos_site_id
 _symmetry_equiv_pos_as_xyz
  1  'x, y, z'
loop_
 _atom_site_type_symbol
 _atom_site_label
 _atom_site_symmetry_multiplicity
 _atom_site_fract_x
 _atom_site_fract_y
 _atom_site_fract_z
 _atom_site_occupancy
  Na  Na0  1  -0.00295010  -0.00050315  -0.00121861  1
  Na  Na1  1  0.00027890  0.00054821  0.24925228  1
  Na  Na2  1  0.00012928  0.00030975  0.50003361  1
  Na  Na3  1  -0.00207207  -0.00018209  0.75065794  1
  Na  Na4  1  0.00098973  0.33415072  -0.00093541  1
  Na  Na5  1  0.00135866  0.33347771  0.24934396  1
  Na  Na6  1  0.00100819  0.33372738  0.50015166  1
  Na  Na7  1  -0.00107322  0.33302155  0.75099626  1
  Na  Na8  1  -0.00018749  0.66627394  0.00129993  1
  Na  Na9  1  0.00138054  0.66701101  0.24890291  1
  Na  Na10  1  -0.00104923  0.66542182  0.50066930  1
  Na  Na11  1  -0.00128451  0.66552703  0.75032932  1
  Na  Na12  1  0.50194456  0.00052361  -0.00024291  1
  Na  Na13  1  0.50154856  0.00092383  0.24956735  1
  Na  Na14  1  0.49928196  -0.00027780  0.50054517  1
  Na  Na15  1  0.50142426  0.00080988  0.75061125  1
  Na  Na16  1  0.49936131  0.33360836  -0.00068374  1
  Na  Na17  1  0.49872122  0.33387400  0.24919815  1
  Na  Na18  1  0.50015416  0.33329140  0.50054204  1
  Na  Na19  1  0.50027901  0.33297766  0.75097276  1
  Na  Na20  1  0.49882422  0.66667808  -0.00038671  1
  Na  Na21  1  0.49946290  0.66651531  0.25061985  1
  Na  Na22  1  0.50086527  0.66690832  0.50089253  1
  Na  Na23  1  0.49974588  0.66637618  0.74890497  1
  Na  Na24  1  0.25048107  0.00006574  0.12443219  1
  Na  Na25  1  0.25003292  -0.00032181  0.37557629  1
  Na  Na26  1  0.25205416  0.00115536  0.62499244  1
  Na  Na27  1  0.25019266  -0.00025418  0.87446276  1
  Na  Na28  1  0.25061851  0.33337434  0.12500305  1
  Na  Na29  1  0.24973199  0.33325886  0.37527761  1
  Na  Na30  1  0.24860534  0.33308519  0.62591509  1
  Na  Na31  1  0.25116226  0.33374217  0.87437636  1
  Na  Na32  1  0.25196993  0.66632979  0.12363485  1
  Na  Na33  1  0.25129036  0.66635722  0.37450028  1
  Na  Na34  1  0.25209049  0.66739077  0.62614837  1
  Na  Na35  1  0.25112870  0.66660597  0.87519618  1
  Na  Na36  1  0.75099089  0.00056130  0.12478781  1
  Na  Na37  1  0.74805622  -0.00063601  0.37534707  1
  Na  Na38  1  0.74863659  0.00056935  0.62517433  1
  Na  Na39  1  0.74958591  0.00050068  0.87504120  1
  Na  Na40  1  0.74860340  0.33311232  0.12500933  1
  Na  Na41  1  0.74978438  0.33410660  0.37554138  1
  Na  Na42  1  0.75092325  0.33385284  0.62414604  1
  Na  Na43  1  0.75008563  0.33337836  0.87486674  1
  Na  Na44  1  0.74988846  0.66679913  0.12461109  1
  Na  Na45  1  0.74805980  0.66588278  0.37446946  1
  Na  Na46  1  0.74877770  0.66587789  0.62608561  1
  Na  Na47  1  0.75046127  0.66650685  0.87508010  1
  Na  Na48  1  -0.00016839  0.16632304  -0.00078980  1
  Na  Na49  1  -0.00040672  0.16734533  0.24910712  1
  Na  Na50  1  -0.00106393  0.16767781  0.50040148  1
  Na  Na51  1  -0.00344594  0.16834142  0.75151878  1
  Na  Na52  1  -0.00051945  0.50028727  0.00000800  1
  Na  Na53  1  0.00348771  0.49851029  0.24886610  1
  Na  Na54  1  0.00124089  0.49965875  0.50024338  1
  Na  Na55  1  0.00042212  0.49926291  0.75062156  1
  Na  Na56  1  -0.00141122  0.83303618  -0.00006718  1
  Na  Na57  1  -0.00113755  0.83358556  0.24954208  1
  Na  Na58  1  -0.00034486  0.83318092  0.50014355  1
  Na  Na59  1  0.00073093  0.83195964  0.74986783  1
  Na  Na60  1  0.50118818  0.16746026  -0.00104677  1
  Na  Na61  1  0.49809059  0.16874832  0.24958300  1
  Na  Na62  1  0.50004602  0.16724975  0.50128371  1
  Na  Na63  1  0.50022669  0.16784671  0.75076093  1
  Na  Na64  1  0.49716801  0.50096390  -0.00038639  1
  Na  Na65  1  0.49949948  0.49946425  0.25042145  1
  Na  Na66  1  0.50230145  0.49889931  0.50016629  1
  Na  Na67  1  0.50137205  0.49949334  0.74982987  1
  Na  Na68  1  0.50036615  0.83252787  -0.00010026  1
  Na  Na69  1  0.50085501  0.83198724  0.24934090  1
  Na  Na70  1  0.49863273  0.83364218  0.50081027  1
  Na  Na71  1  0.49993694  0.83268025  0.74998854  1
  Na  Na72  1  0.25088945  0.16776188  0.12448130  1
  Na  Na73  1  0.25150651  0.16748745  0.37454723  1
  Na  Na74  1  0.25171160  0.16738568  0.62534928  1
  Na  Na75  1  0.25167461  0.16730066  0.87451174  1
  Na  Na76  1  0.25095942  0.49925967  0.12402328  1
  Na  Na77  1  0.24781091  0.49989208  0.37512830  1
  Na  Na78  1  0.24711915  0.50018768  0.62568219  1
  Na  Na79  1  0.24967642  0.49966398  0.87561723  1
  Na  Na80  1  0.25199497  0.83215392  0.12463187  1
  Na  Na81  1  0.25234077  0.83253898  0.37541832  1
  Na  Na82  1  0.25242199  0.83252381  0.62663310  1
  Na  Na83  1  0.25110572  0.83265912  0.87374525  1
  Na  Na84  1  0.75044575  0.16746428  0.12490109  1
  Na  Na85  1  0.75188345  0.16645976  0.37635910  1
  Na  Na86  1  0.75021988  0.16740051  0.62491579  1
  Na  Na87  1  0.75084152  0.16701330  0.87382759  1
  Na  Na88  1  0.74946471  0.49972251  0.12451127  1
  Na  Na89  1  0.74744818  0.50036745  0.37507464  1
  Na  Na90  1  0.74889102  0.50024657  0.62494985  1
  Na  Na91  1  0.75161576  0.49913257  0.87550338  1
  Na  Na92  1  0.74883396  0.83290619  0.12517789  1
  Na  Na93  1  0.74701235  0.83337625  0.37392606  1
  Na  Na94  1  0.74896365  0.83228018  0.62570673  1
  Na  Na95  1  0.74792417  0.83341635  0.87544629  1
  Mn  Mn96  1  0.14275240  0.91678470  0.74758528  1
  Mn  Mn97  1  0.89137475  0.91667963  0.62762217  1
  Mn  Mn98  1  0.10880873  0.74980910  0.37283433  1
  Mn  Mn99  1  0.14335138  0.58316156  0.99719895  1
  Mn  Mn100  1  0.10775624  0.08335101  0.12209306  1
  Mn  Mn101  1  0.60754944  0.08389750  0.37250761  1
  Mn  Mn102  1  0.39256998  0.58235237  0.62759653  1
  Mn  Mn103  1  0.35859465  0.08331777  0.00189868  1
  Mn  Mn104  1  0.85705761  0.75011247  0.75272123  1
  Mn  Mn105  1  0.89280296  0.58320498  0.12746722  1
  Mn  Mn106  1  0.64086349  0.91583221  0.49784157  1
  Mn  Mn107  1  0.60702041  0.74995757  0.62273714  1
  Mn  Mn108  1  0.35843339  0.08318934  0.25215599  1
  Mn  Mn109  1  0.60790355  0.41746225  0.87274081  1
  Mn  Mn110  1  0.10810668  0.08354687  0.37270823  1
  Mn  Mn111  1  0.89124458  0.91565250  0.87705762  1
  Mn  Mn112  1  0.60817914  0.08427155  0.12220978  1
  Mn  Mn113  1  0.89271076  0.58268878  0.37659328  1
  Mn  Mn114  1  0.85789022  0.41763423  0.50185499  1
  Mn  Mn115  1  0.64279505  0.91718436  0.99783210  1
  Mn  Mn116  1  0.35832572  0.08334545  0.50289480  1
  Mn  Mn117  1  0.89242425  0.25002546  0.12667208  1
  Mn  Mn118  1  0.35760378  0.41704055  0.75191152  1
  Mn  Mn119  1  0.10761348  0.08394198  0.62369400  1
  Mn  Mn120  1  0.14198307  0.91683051  0.99752598  1
  Mn  Mn121  1  0.85676870  0.74963975  0.25250960  1
  Mn  Mn122  1  0.14299893  0.91691520  0.49823907  1
  Mn  Mn123  1  0.35728115  0.41709348  0.50271222  1
  Mn  Mn124  1  0.14169551  0.58363039  0.49808211  1
  Mn  Mn125  1  0.10795392  0.74967056  0.62272466  1
  Mn  Mn126  1  0.85694637  0.74956533  0.50139268  1
  Mn  Mn127  1  0.14234078  0.91584960  0.24734155  1
  Mn  Mn128  1  0.64086056  0.58336591  0.24705388  1
  Mn  Mn129  1  0.85782243  0.41680088  0.25196434  1
  Mn  Mn130  1  0.85787177  0.08267722  0.50267060  1
  Mn  Mn131  1  0.39223952  0.58270375  0.37790859  1
  Mn  Mn132  1  0.10832550  0.75042488  0.12253346  1
  Mn  Mn133  1  0.64176902  0.24965861  0.24812004  1
  Mn  Mn134  1  0.64218698  0.25064386  0.49776555  1
  Mn  Mn135  1  0.85773492  0.08340655  0.25256601  1
  Mn  Mn136  1  0.14289892  0.25010839  0.24757499  1
  Mn  Mn137  1  0.14234160  0.24978873  0.74815912  1
  Mn  Mn138  1  0.10695602  0.08322855  0.87229661  1
  Mn  Mn139  1  0.39268623  0.91738865  0.37695366  1
  Mn  Mn140  1  0.39334675  0.91682286  0.87743952  1
  Mn  Mn141  1  0.64196969  0.58275321  0.99754903  1
  Mn  Mn142  1  0.39274229  0.91678483  0.12737586  1
  Mn  Mn143  1  0.89140461  0.91668839  0.37735208  1
  Fe  Fe144  1  0.14242022  0.24960483  0.49872398  1
  Fe  Fe145  1  0.60713929  0.74976128  0.87348782  1
  Fe  Fe146  1  0.10742305  0.74932699  0.87392005  1
  Fe  Fe147  1  0.89255771  0.25064652  0.62672126  1
  Fe  Fe148  1  0.39253147  0.25047673  0.37730305  1
  Fe  Fe149  1  0.39300686  0.25075322  0.12591570  1
  Fe  Fe150  1  0.35742269  0.74962387  0.75269607  1
  Fe  Fe151  1  0.60632162  0.74879442  0.12284038  1
  Fe  Fe152  1  0.64205446  0.91681548  0.24769439  1
  Fe  Fe153  1  0.10767759  0.41638056  0.37291711  1
  Fe  Fe154  1  0.89190488  0.58262172  0.62716405  1
  Fe  Fe155  1  0.39296039  0.91768987  0.62751577  1
  Fe  Fe156  1  0.64241689  0.58340219  0.49859442  1
  Fe  Fe157  1  0.60690177  0.08400065  0.62420495  1
  Fe  Fe158  1  0.10617289  0.41621585  0.62406078  1
  Fe  Fe159  1  0.64206349  0.91690129  0.74837109  1
  Fe  Fe160  1  0.60649452  0.74961755  0.37307220  1
  Fe  Fe161  1  0.85601249  0.08370460  0.75128778  1
  Fe  Fe162  1  0.60663924  0.41643200  0.37278807  1
  Fe  Fe163  1  0.35827151  0.74964953  0.50166716  1
  Fe  Fe164  1  0.89196786  0.91643479  0.12694328  1
  Fe  Fe165  1  0.85739213  0.41663648  0.75140366  1
  Fe  Fe166  1  0.39269515  0.58272008  0.12714782  1
  Fe  Fe167  1  0.14359997  0.24975003  0.99789908  1
  Fe  Fe168  1  0.60836672  0.08355519  0.87271163  1
  Fe  Fe169  1  0.39249083  0.58278088  0.87569764  1
  Fe  Fe170  1  0.35796629  0.74953188  0.25185725  1
  Fe  Fe171  1  0.85653721  0.08347750  0.00142424  1
  Fe  Fe172  1  0.35718349  0.41660059  0.00170495  1
  Fe  Fe173  1  0.60819537  0.41584148  0.62392395  1
  Fe  Fe174  1  0.10669931  0.41705191  0.87368440  1
  Fe  Fe175  1  0.10848914  0.41613140  0.12236924  1
  Fe  Fe176  1  0.85735893  0.41645466  0.00219918  1
  Fe  Fe177  1  0.89337404  0.25061832  0.37641294  1
  Fe  Fe178  1  0.35879517  0.08331238  0.75210755  1
  Fe  Fe179  1  0.39383862  0.25047866  0.87694112  1
  Fe  Fe180  1  0.64273651  0.25042702  0.99833414  1
  Fe  Fe181  1  0.14394829  0.58350678  0.24831464  1
  Fe  Fe182  1  0.35796935  0.74978682  0.00130105  1
  Fe  Fe183  1  0.64286049  0.58266280  0.74880550  1
  Fe  Fe184  1  0.14221389  0.58376959  0.74918517  1
  Fe  Fe185  1  0.60604029  0.41709718  0.12307128  1
  Fe  Fe186  1  0.39301477  0.25007123  0.62679845  1
  Fe  Fe187  1  0.35707448  0.41702345  0.25195452  1
  Fe  Fe188  1  0.89187687  0.25100278  0.87737961  1
  Fe  Fe189  1  0.89266934  0.58307266  0.87655053  1
  Fe  Fe190  1  0.85701799  0.75000721  0.00163502  1
  Fe  Fe191  1  0.64339244  0.25065605  0.74803525  1
  P  P192  1  0.05459135  0.25065747  0.10860641  1
  P  P193  1  0.05380467  0.25059409  0.36093748  1
  P  P194  1  0.05256208  0.25062428  0.61050492  1
  P  P195  1  0.05321904  0.25088821  0.86161638  1
  P  P196  1  0.05589740  0.58252253  0.11094903  1
  P  P197  1  0.05463822  0.58251939  0.35897949  1
  P  P198  1  0.05299474  0.58234145  0.61199230  1
  P  P199  1  0.05292124  0.58316748  0.86032089  1
  P  P200  1  0.05164929  0.91669120  0.10923795  1
  P  P201  1  0.05316183  0.91661177  0.35967463  1
  P  P202  1  0.05298408  0.91693477  0.61019259  1
  P  P203  1  0.05288685  0.91551763  0.85981180  1
  P  P204  1  0.55282382  0.25166037  0.10918914  1
  P  P205  1  0.55181105  0.25112877  0.36009095  1
  P  P206  1  0.55408796  0.25021215  0.61195550  1
  P  P207  1  0.55523628  0.25009755  0.86071005  1
  P  P208  1  0.55162145  0.58290541  0.10983821  1
  P  P209  1  0.55417274  0.58310618  0.36154372  1
  P  P210  1  0.55546685  0.58204368  0.61105421  1
  P  P211  1  0.55254695  0.58410563  0.85952687  1
  P  P212  1  0.55461444  0.91569171  0.11079939  1
  P  P213  1  0.55374674  0.91575510  0.35922923  1
  P  P214  1  0.55311349  0.91768544  0.61190640  1
  P  P215  1  0.55476939  0.91643629  0.85979063  1
  P  P216  1  0.44726204  0.08467948  0.13938878  1
  P  P217  1  0.44688653  0.08461016  0.39026698  1
  P  P218  1  0.44737988  0.08399522  0.64097904  1
  P  P219  1  0.44789660  0.08428727  0.88870877  1
  P  P220  1  0.44527555  0.41686053  0.13882240  1
  P  P221  1  0.44628547  0.41608482  0.38925149  1
  P  P222  1  0.44826886  0.41581737  0.64012733  1
  P  P223  1  0.44594964  0.41688822  0.88995067  1
  P  P224  1  0.44573786  0.74877605  0.13912071  1
  P  P225  1  0.44621662  0.74984375  0.38968828  1
  P  P226  1  0.44434139  0.75033918  0.63965521  1
  P  P227  1  0.44619463  0.74896840  0.88898000  1
  P  P228  1  0.94488954  0.08280245  0.13829165  1
  P  P229  1  0.94659658  0.08442008  0.38999380  1
  P  P230  1  0.94566329  0.08451089  0.64118917  1
  P  P231  1  0.94335559  0.08420030  0.88897488  1
  P  P232  1  0.94730326  0.41630045  0.13868015  1
  P  P233  1  0.94828614  0.41621271  0.38958038  1
  P  P234  1  0.94658632  0.41656823  0.64056003  1
  P  P235  1  0.94517733  0.41702257  0.88916143  1
  P  P236  1  0.94506334  0.75061613  0.13887317  1
  P  P237  1  0.94716469  0.74935771  0.38996181  1
  P  P238  1  0.94596948  0.74880497  0.64009876  1
  P  P239  1  0.94692941  0.74845296  0.89048834  1
  P  P240  1  0.19729784  0.08353903  0.23446939  1
  P  P241  1  0.19706446  0.08479345  0.48540002  1
  P  P242  1  0.19871563  0.08373952  0.73517666  1
  P  P243  1  0.19705310  0.08437717  0.98431722  1
  P  P244  1  0.19633241  0.41728635  0.23528733  1
  P  P245  1  0.19415858  0.41544235  0.48616475  1
  P  P246  1  0.19417798  0.41748949  0.73633157  1
  P  P247  1  0.19631388  0.41548586  0.98527311  1
  P  P248  1  0.19867454  0.74880637  0.23468290  1
  P  P249  1  0.19880961  0.74995570  0.48544084  1
  P  P250  1  0.19640290  0.74877878  0.73680126  1
  P  P251  1  0.19793456  0.74994168  0.98415338  1
  P  P252  1  0.69654048  0.08321815  0.23493239  1
  P  P253  1  0.69499926  0.08372155  0.48643981  1
  P  P254  1  0.69548283  0.08412980  0.73577733  1
  P  P255  1  0.69713025  0.08469454  0.98428423  1
  P  P256  1  0.69441883  0.41648394  0.23489149  1
  P  P257  1  0.69461888  0.41748686  0.48557230  1
  P  P258  1  0.69745441  0.41650922  0.73493113  1
  P  P259  1  0.69642502  0.41617609  0.98617941  1
  P  P260  1  0.69374321  0.75031118  0.23501308  1
  P  P261  1  0.69516284  0.74873280  0.48439718  1
  P  P262  1  0.69444937  0.74942163  0.73682749  1
  P  P263  1  0.69576790  0.74930661  0.98569166  1
  P  P264  1  0.30476295  0.25103422  0.01378260  1
  P  P265  1  0.30582976  0.25144826  0.26421400  1
  P  P266  1  0.30392875  0.25073551  0.51506168  1
  P  P267  1  0.30607062  0.24972002  0.76452651  1
  P  P268  1  0.30613871  0.58291156  0.01361945  1
  P  P269  1  0.30422886  0.58258726  0.26354825  1
  P  P270  1  0.30309571  0.58319520  0.51558304  1
  P  P271  1  0.30273364  0.58323068  0.76567177  1
  P  P272  1  0.30387063  0.91582695  0.01454427  1
  P  P273  1  0.30367317  0.91574379  0.26499495  1
  P  P274  1  0.30483135  0.91590621  0.51617623  1
  P  P275  1  0.30562894  0.91709530  0.76396218  1
  P  P276  1  0.80333033  0.25050727  0.01356302  1
  P  P277  1  0.80381899  0.25065379  0.26600751  1
  P  P278  1  0.80538198  0.25069648  0.51451005  1
  P  P279  1  0.80425321  0.25079312  0.76380179  1
  P  P280  1  0.80487765  0.58314764  0.01370930  1
  P  P281  1  0.80250738  0.58287549  0.26494673  1
  P  P282  1  0.80237898  0.58327890  0.51549761  1
  P  P283  1  0.80387019  0.58213588  0.76455907  1
  P  P284  1  0.80380413  0.91644755  0.01529364  1
  P  P285  1  0.80234852  0.91643981  0.26403195  1
  P  P286  1  0.80194963  0.91595752  0.51543897  1
  P  P287  1  0.80110904  0.91727918  0.76492012  1
  O  O288  1  0.05762346  0.25009848  0.18542024  1
  O  O289  1  0.05811701  0.24979028  0.43757044  1
  O  O290  1  0.05613427  0.24974402  0.68722162  1
  O  O291  1  0.05872246  0.25009075  0.93810747  1
  O  O292  1  0.06043111  0.58323062  0.18761350  1
  O  O293  1  0.05688189  0.58354924  0.43586147  1
  O  O294  1  0.05788620  0.58349896  0.68856719  1
  O  O295  1  0.05678804  0.58336570  0.93701002  1
  O  O296  1  0.05606529  0.91649995  0.18591474  1
  O  O297  1  0.05693209  0.91641280  0.43643139  1
  O  O298  1  0.05657370  0.91681686  0.68698031  1
  O  O299  1  0.05593612  0.91638090  0.93655115  1
  O  O300  1  0.55610729  0.25086346  0.18584569  1
  O  O301  1  0.55578190  0.25047175  0.43676603  1
  O  O302  1  0.55890626  0.25063824  0.68859585  1
  O  O303  1  0.55993695  0.25066010  0.93737931  1
  O  O304  1  0.55499567  0.58289239  0.18651952  1
  O  O305  1  0.55795576  0.58330127  0.43824458  1
  O  O306  1  0.55959749  0.58263530  0.68781122  1
  O  O307  1  0.55603350  0.58345149  0.93621930  1
  O  O308  1  0.55822546  0.91661744  0.18753835  1
  O  O309  1  0.55578897  0.91634356  0.43612480  1
  O  O310  1  0.55814878  0.91688892  0.68853033  1
  O  O311  1  0.55753360  0.91647393  0.93659798  1
  O  O312  1  0.44458774  0.08373385  0.06259557  1
  O  O313  1  0.44404737  0.08393513  0.31350436  1
  O  O314  1  0.44396723  0.08376570  0.56425476  1
  O  O315  1  0.44307291  0.08370863  0.81212105  1
  O  O316  1  0.44105571  0.41677787  0.06213570  1
  O  O317  1  0.44148788  0.41710433  0.31261573  1
  O  O318  1  0.44424557  0.41657906  0.56349219  1
  O  O319  1  0.44334167  0.41696674  0.81321750  1
  O  O320  1  0.44138278  0.74979598  0.06240242  1
  O  O321  1  0.44146592  0.74941942  0.31296105  1
  O  O322  1  0.44085728  0.74943449  0.56283514  1
  O  O323  1  0.44148094  0.74941190  0.81227089  1
  O  O324  1  0.94037913  0.08354234  0.06154384  1
  O  O325  1  0.94370035  0.08373319  0.31317184  1
  O  O326  1  0.94323512  0.08348759  0.56439341  1
  O  O327  1  0.93878393  0.08356753  0.81225092  1
  O  O328  1  0.94177005  0.41647623  0.06205371  1
  O  O329  1  0.94460634  0.41668557  0.31291308  1
  O  O330  1  0.94357859  0.41714755  0.56386453  1
  O  O331  1  0.94065157  0.41656883  0.81250451  1
  O  O332  1  0.94055928  0.74979208  0.06215438  1
  O  O333  1  0.94354783  0.74940897  0.31318380  1
  O  O334  1  0.94268382  0.74931715  0.56339620  1
  O  O335  1  0.94291567  0.74927644  0.81379590  1
  O  O336  1  0.19383773  0.08389934  0.06107287  1
  O  O337  1  0.19413849  0.08378953  0.31125299  1
  O  O338  1  0.19393321  0.08465004  0.56214329  1
  O  O339  1  0.19392743  0.08386672  0.81180098  1
  O  O340  1  0.19214703  0.41606717  0.06198764  1
  O  O341  1  0.19170046  0.41627645  0.31200476  1
  O  O342  1  0.18981933  0.41606189  0.56293131  1
  O  O343  1  0.19018869  0.41651059  0.81309118  1
  O  O344  1  0.19396605  0.74979285  0.06083463  1
  O  O345  1  0.19492740  0.74942612  0.31136698  1
  O  O346  1  0.19471180  0.74978123  0.56214905  1
  O  O347  1  0.19113657  0.74914923  0.81339487  1
  O  O348  1  0.69361735  0.08437941  0.06100084  1
  O  O349  1  0.69346755  0.08399570  0.31172545  1
  O  O350  1  0.69037473  0.08424765  0.56318677  1
  O  O351  1  0.69142205  0.08398936  0.81253154  1
  O  O352  1  0.69081696  0.41692236  0.06272150  1
  O  O353  1  0.68995027  0.41654087  0.31166472  1
  O  O354  1  0.69090875  0.41608336  0.56234286  1
  O  O355  1  0.69397048  0.41652022  0.81163477  1
  O  O356  1  0.69056784  0.74867078  0.06231899  1
  O  O357  1  0.68963564  0.74925662  0.31175529  1
  O  O358  1  0.69251643  0.74961815  0.56125377  1
  O  O359  1  0.69077716  0.74926312  0.81359722  1
  O  O360  1  0.30987195  0.25084546  0.18745058  1
  O  O361  1  0.30878613  0.25090894  0.43835974  1
  O  O362  1  0.31021291  0.25062257  0.68775427  1
  O  O363  1  0.30967071  0.25042460  0.93710697  1
  O  O364  1  0.30846072  0.58240219  0.18684306  1
  O  O365  1  0.30633664  0.58199352  0.43880000  1
  O  O366  1  0.30649097  0.58225736  0.68900817  1
  O  O367  1  0.30979158  0.58283802  0.93687883  1
  O  O368  1  0.30682868  0.91651492  0.18822554  1
  O  O369  1  0.30763614  0.91686941  0.43937961  1
  O  O370  1  0.30958776  0.91761365  0.68723655  1
  O  O371  1  0.30723359  0.91648979  0.93778276  1
  O  O372  1  0.80703207  0.25095524  0.18919341  1
  O  O373  1  0.80992328  0.25093878  0.43782654  1
  O  O374  1  0.80858364  0.25097182  0.68712330  1
  O  O375  1  0.80768277  0.25102665  0.93685413  1
  O  O376  1  0.80657258  0.58276818  0.18820535  1
  O  O377  1  0.80646564  0.58284608  0.43883195  1
  O  O378  1  0.80839702  0.58268701  0.68787609  1
  O  O379  1  0.80881165  0.58317900  0.93695000  1
  O  O380  1  0.80751338  0.91640479  0.18740486  1
  O  O381  1  0.80517640  0.91618593  0.43863687  1
  O  O382  1  0.80483088  0.91647728  0.68827296  1
  O  O383  1  0.80601441  0.91599680  0.93843868  1
  O  O384  1  0.23443842  0.25064591  0.03744880  1
  O  O385  1  0.23573585  0.25070855  0.28820821  1
  O  O386  1  0.23361836  0.25044513  0.53871890  1
  O  O387  1  0.23587849  0.25044504  0.78831090  1
  O  O388  1  0.23606638  0.58278387  0.03777670  1
  O  O389  1  0.23416382  0.58287540  0.28804205  1
  O  O390  1  0.23346469  0.58345252  0.54071934  1
  O  O391  1  0.23274248  0.58306556  0.79032896  1
  O  O392  1  0.23425242  0.91602678  0.03975300  1
  O  O393  1  0.23419113  0.91584478  0.29055987  1
  O  O394  1  0.23524110  0.91675113  0.54165599  1
  O  O395  1  0.23567835  0.91645243  0.78838061  1
  O  O396  1  0.73311151  0.25045065  0.03779305  1
  O  O397  1  0.73409371  0.25031167  0.29096145  1
  O  O398  1  0.73517415  0.25078372  0.53810147  1
  O  O399  1  0.73381003  0.25049449  0.78754958  1
  O  O400  1  0.73489307  0.58301834  0.03818308  1
  O  O401  1  0.73259739  0.58295345  0.28902398  1
  O  O402  1  0.73224026  0.58308355  0.53966979  1
  O  O403  1  0.73343542  0.58268251  0.78824979  1
  O  O404  1  0.73412520  0.91668093  0.04063892  1
  O  O405  1  0.73200264  0.91641475  0.28754124  1
  O  O406  1  0.73228684  0.91604130  0.54052527  1
  O  O407  1  0.73109648  0.91718425  0.78957165  1
  O  O408  1  0.26698354  0.08381104  0.20939911  1
  O  O409  1  0.26674563  0.08419980  0.46022216  1
  O  O410  1  0.26891580  0.08407188  0.71134289  1
  O  O411  1  0.26681445  0.08387000  0.95937298  1
  O  O412  1  0.26670081  0.41662926  0.21160322  1
  O  O413  1  0.26423035  0.41646006  0.46206363  1
  O  O414  1  0.26427278  0.41671089  0.71214631  1
  O  O415  1  0.26672559  0.41652364  0.96166998  1
  O  O416  1  0.26872636  0.74898003  0.21012461  1
  O  O417  1  0.26885439  0.74955043  0.46097680  1
  O  O418  1  0.26697204  0.74941756  0.71376561  1
  O  O419  1  0.26817596  0.74956435  0.96020459  1
  O  O420  1  0.76611356  0.08369315  0.20965284  1
  O  O421  1  0.76502465  0.08332280  0.46253190  1
  O  O422  1  0.76584827  0.08434869  0.71187397  1
  O  O423  1  0.76719202  0.08378324  0.95986580  1
  O  O424  1  0.76453092  0.41667678  0.21106262  1
  O  O425  1  0.76466437  0.41719076  0.46132932  1
  O  O426  1  0.76750029  0.41666618  0.71028729  1
  O  O427  1  0.76682298  0.41641772  0.96278578  1
  O  O428  1  0.76382036  0.74950696  0.21103211  1
  O  O429  1  0.76462027  0.74950814  0.45874277  1
  O  O430  1  0.76434582  0.74917088  0.71221145  1
  O  O431  1  0.76627980  0.74990109  0.96247326  1
  O  O432  1  0.01487344  0.08383306  0.16248969  1
  O  O433  1  0.01610767  0.08405131  0.41549741  1
  O  O434  1  0.01517622  0.08425938  0.66697670  1
  O  O435  1  0.01359063  0.08346322  0.91256688  1
  O  O436  1  0.01777661  0.41601045  0.16170623  1
  O  O437  1  0.01821212  0.41679109  0.41438766  1
  O  O438  1  0.01655137  0.41610955  0.66553426  1
  O  O439  1  0.01570224  0.41731454  0.91269104  1
  O  O440  1  0.01519375  0.75025236  0.16271601  1
  O  O441  1  0.01682630  0.74918713  0.41506407  1
  O  O442  1  0.01572427  0.74885644  0.66509284  1
  O  O443  1  0.01707718  0.74915145  0.91483886  1
  O  O444  1  0.51679096  0.08508249  0.16490601  1
  O  O445  1  0.51635329  0.08388594  0.41592804  1
  O  O446  1  0.51744789  0.08438904  0.66561553  1
  O  O447  1  0.51830136  0.08404632  0.91230468  1
  O  O448  1  0.51554310  0.41698196  0.16291527  1
  O  O449  1  0.51654479  0.41629209  0.41307060  1
  O  O450  1  0.51828254  0.41601794  0.66473658  1
  O  O451  1  0.51569814  0.41717891  0.91505282  1
  O  O452  1  0.51605432  0.74886733  0.16290032  1
  O  O453  1  0.51650504  0.74989577  0.41340314  1
  O  O454  1  0.51447736  0.74946089  0.66365032  1
  O  O455  1  0.51660243  0.74983783  0.91261493  1
  O  O456  1  0.48278440  0.25093517  0.08454371  1
  O  O457  1  0.48189261  0.25124982  0.33541944  1
  O  O458  1  0.48377038  0.25011166  0.58805673  1
  O  O459  1  0.48469783  0.25074089  0.83756760  1
  O  O460  1  0.48166934  0.58304730  0.08514612  1
  O  O461  1  0.48433199  0.58288742  0.33676736  1
  O  O462  1  0.48539810  0.58283481  0.58696829  1
  O  O463  1  0.48250046  0.58283953  0.83489013  1
  O  O464  1  0.48486465  0.91623180  0.08582011  1
  O  O465  1  0.48428584  0.91655445  0.33344567  1
  O  O466  1  0.48280695  0.91717155  0.58816591  1
  O  O467  1  0.48507489  0.91652594  0.83472774  1
  O  O468  1  0.98480627  0.25041374  0.08375548  1
  O  O469  1  0.98374351  0.25063114  0.33632162  1
  O  O470  1  0.98246472  0.25075907  0.58609843  1
  O  O471  1  0.98258571  0.25095842  0.83871782  1
  O  O472  1  0.98579138  0.58283787  0.08711599  1
  O  O473  1  0.98517899  0.58258323  0.33312995  1
  O  O474  1  0.98269819  0.58218268  0.58806910  1
  O  O475  1  0.98273210  0.58246193  0.83608751  1
  O  O476  1  0.98158854  0.91636299  0.08500185  1
  O  O477  1  0.98340129  0.91699284  0.33484539  1
  O  O478  1  0.98322735  0.91686826  0.58541412  1
  O  O479  1  0.98305074  0.91561492  0.83488376  1
  O  O480  1  0.08883412  0.31574662  0.07646050  1
  O  O481  1  0.08744315  0.31582173  0.32817001  1
  O  O482  1  0.08657910  0.31570048  0.57818574  1
  O  O483  1  0.08623971  0.31602878  0.82836331  1
  O  O484  1  0.08934452  0.64747560  0.07753611  1
  O  O485  1  0.08941663  0.64727757  0.32653601  1
  O  O486  1  0.08631854  0.64709002  0.57794193  1
  O  O487  1  0.08640570  0.64829353  0.82726495  1
  O  O488  1  0.08515198  0.98185336  0.07638081  1
  O  O489  1  0.08730869  0.98161101  0.32722200  1
  O  O490  1  0.08690629  0.98218720  0.57804693  1
  O  O491  1  0.08687983  0.98058247  0.82717462  1
  O  O492  1  0.58633811  0.31700452  0.07666261  1
  O  O493  1  0.58575718  0.31605289  0.32746654  1
  O  O494  1  0.58734974  0.31515175  0.57840717  1
  O  O495  1  0.58865027  0.31500290  0.82712542  1
  O  O496  1  0.58562124  0.64783281  0.07715712  1
  O  O497  1  0.58749865  0.64826514  0.32840161  1
  O  O498  1  0.58930188  0.64691333  0.57779898  1
  O  O499  1  0.58602818  0.64926730  0.82697946  1
  O  O500  1  0.58867291  0.98059733  0.07786449  1
  O  O501  1  0.58873582  0.98050385  0.32707042  1
  O  O502  1  0.58606796  0.98291121  0.57892901  1
  O  O503  1  0.58901427  0.98152612  0.82753640  1
  O  O504  1  0.41345465  0.01955097  0.17204242  1
  O  O505  1  0.41247479  0.01964451  0.42256442  1
  O  O506  1  0.41369092  0.01896752  0.67386346  1
  O  O507  1  0.41471384  0.01932461  0.92229448  1
  O  O508  1  0.41191478  0.35179134  0.17196533  1
  O  O509  1  0.41296482  0.35098978  0.42232104  1
  O  O510  1  0.41437134  0.35090486  0.67269333  1
  O  O511  1  0.41199503  0.35168994  0.92236913  1
  O  O512  1  0.41241789  0.68352482  0.17204392  1
  O  O513  1  0.41278096  0.68496866  0.42323702  1
  O  O514  1  0.41033995  0.68557926  0.67293052  1
  O  O515  1  0.41316881  0.68369646  0.92191644  1
  O  O516  1  0.91187232  0.01734844  0.17117263  1
  O  O517  1  0.91211641  0.01950477  0.42243936  1
  O  O518  1  0.91071299  0.01982447  0.67362697  1
  O  O519  1  0.90951230  0.01932186  0.92213614  1
  O  O520  1  0.91404127  0.35133127  0.17203442  1
  O  O521  1  0.91453666  0.35122523  0.42228873  1
  O  O522  1  0.91243017  0.35151407  0.67295937  1
  O  O523  1  0.91188346  0.35207578  0.92285126  1
  O  O524  1  0.91164817  0.68563518  0.17229367  1
  O  O525  1  0.91308828  0.68419644  0.42222688  1
  O  O526  1  0.91187845  0.68371942  0.67241470  1
  O  O527  1  0.91339147  0.68318400  0.92296446  1
  O  O528  1  0.16329085  0.01839810  0.20216781  1
  O  O529  1  0.16287163  0.01970735  0.45315466  1
  O  O530  1  0.16520716  0.01870869  0.70225087  1
  O  O531  1  0.16274995  0.01939056  0.95193221  1
  O  O532  1  0.16260394  0.35256122  0.20163035  1
  O  O533  1  0.16120445  0.35000422  0.45314158  1
  O  O534  1  0.16018957  0.35282732  0.70289647  1
  O  O535  1  0.16318445  0.35043446  0.95198274  1
  O  O536  1  0.16503008  0.68372410  0.20204073  1
  O  O537  1  0.16487228  0.68503420  0.45267003  1
  O  O538  1  0.16373985  0.68342834  0.70338402  1
  O  O539  1  0.16402232  0.68493874  0.95133476  1
  O  O540  1  0.66250447  0.01811927  0.20276565  1
  O  O541  1  0.66127041  0.01870451  0.45372850  1
  O  O542  1  0.66193620  0.01917920  0.70262406  1
  O  O543  1  0.66281586  0.01979395  0.95169377  1
  O  O544  1  0.66089209  0.35144173  0.20185403  1
  O  O545  1  0.66070293  0.35283114  0.45198524  1
  O  O546  1  0.66364324  0.35145241  0.70203018  1
  O  O547  1  0.66333345  0.35122414  0.95270620  1
  O  O548  1  0.65973652  0.68560450  0.20140081  1
  O  O549  1  0.66122960  0.68330975  0.45256974  1
  O  O550  1  0.66080927  0.68431989  0.70405945  1
  O  O551  1  0.66272211  0.68439177  0.95182497  1
  O  O552  1  0.33786114  0.31630913  0.04699632  1
  O  O553  1  0.33878741  0.31688198  0.29726654  1
  O  O554  1  0.33722550  0.31568005  0.54864760  1
  O  O555  1  0.33986890  0.31455364  0.79784006  1
  O  O556  1  0.33967611  0.64804803  0.04651340  1
  O  O557  1  0.33805822  0.64755114  0.29640885  1
  O  O558  1  0.33765169  0.64815057  0.54725453  1
  O  O559  1  0.33703540  0.64817829  0.79803696  1
  O  O560  1  0.33806250  0.98084861  0.04701319  1
  O  O561  1  0.33783203  0.98081336  0.29748711  1
  O  O562  1  0.33965919  0.98071952  0.54866198  1
  O  O563  1  0.33891675  0.98227489  0.79713448  1
  O  O564  1  0.83680743  0.31535018  0.04708944  1
  O  O565  1  0.83787929  0.31570326  0.29857494  1
  O  O566  1  0.83885603  0.31572737  0.54776280  1
  O  O567  1  0.83740837  0.31588150  0.79735212  1
  O  O568  1  0.83827337  0.64838682  0.04650462  1
  O  O569  1  0.83621850  0.64787232  0.29767477  1
  O  O570  1  0.83603009  0.64826268  0.54840295  1
  O  O571  1  0.83759258  0.64686222  0.79814793  1
  O  O572  1  0.83795488  0.98174397  0.04709036  1
  O  O573  1  0.83551700  0.98148147  0.29747581  1
  O  O574  1  0.83606984  0.98096276  0.54790660  1
  O  O575  1  0.83497511  0.98230675  0.79719824  1
  O  O576  1  0.41280041  0.14980263  0.17094208  1
  O  O577  1  0.41302824  0.14991427  0.42236005  1
  O  O578  1  0.41330507  0.14898190  0.67343883  1
  O  O579  1  0.41462392  0.14943235  0.92168833  1
  O  O580  1  0.41180647  0.48186542  0.17223238  1
  O  O581  1  0.41302175  0.48094918  0.42305662  1
  O  O582  1  0.41440520  0.48078301  0.67308884  1
  O  O583  1  0.41150016  0.48172467  0.92224136  1
  O  O584  1  0.41237589  0.81359897  0.17285036  1
  O  O585  1  0.41281695  0.81491320  0.42270430  1
  O  O586  1  0.41128762  0.81562437  0.67243400  1
  O  O587  1  0.41259788  0.81372637  0.92261602  1
  O  O588  1  0.91107327  0.14770401  0.17140167  1
  O  O589  1  0.91258098  0.14970362  0.42187873  1
  O  O590  1  0.91135669  0.14988537  0.67274004  1
  O  O591  1  0.91029208  0.14951311  0.92204388  1
  O  O592  1  0.91435107  0.48126394  0.17245669  1
  O  O593  1  0.91427349  0.48114895  0.42250895  1
  O  O594  1  0.91258436  0.48139579  0.67357297  1
  O  O595  1  0.91184875  0.48206515  0.92236244  1
  O  O596  1  0.91164630  0.81585442  0.17164576  1
  O  O597  1  0.91298847  0.81438733  0.42230370  1
  O  O598  1  0.91197746  0.81386701  0.67289832  1
  O  O599  1  0.91240370  0.81319949  0.92320399  1
  O  O600  1  0.08885889  0.18580595  0.07590990  1
  O  O601  1  0.08731023  0.18581144  0.32727891  1
  O  O602  1  0.08643663  0.18580083  0.57731267  1
  O  O603  1  0.08602054  0.18595866  0.82742476  1
  O  O604  1  0.08914477  0.51730227  0.07792387  1
  O  O605  1  0.08921883  0.51725878  0.32750712  1
  O  O606  1  0.08638752  0.51705087  0.57930722  1
  O  O607  1  0.08712225  0.51828211  0.82774534  1
  O  O608  1  0.08572990  0.85176624  0.07653942  1
  O  O609  1  0.08691386  0.85136217  0.32704730  1
  O  O610  1  0.08705451  0.85186665  0.57776842  1
  O  O611  1  0.08688221  0.85024171  0.82796250  1
  O  O612  1  0.58741142  0.18711157  0.07619575  1
  O  O613  1  0.58540880  0.18602569  0.32712501  1
  O  O614  1  0.58726604  0.18507123  0.57880344  1
  O  O615  1  0.58834433  0.18511207  0.82732765  1
  O  O616  1  0.58540590  0.51782319  0.07709013  1
  O  O617  1  0.58783152  0.51800790  0.32864430  1
  O  O618  1  0.58877539  0.51681302  0.57833964  1
  O  O619  1  0.58730126  0.51944291  0.82689324  1
  O  O620  1  0.58795596  0.85026164  0.07840464  1
  O  O621  1  0.58771298  0.85042304  0.32742979  1
  O  O622  1  0.58625416  0.85260497  0.57834943  1
  O  O623  1  0.58874939  0.85133090  0.82743639  1
  O  O624  1  0.33846133  0.18633292  0.04734572  1
  O  O625  1  0.33991052  0.18682059  0.29757322  1
  O  O626  1  0.33788598  0.18591977  0.54819011  1
  O  O627  1  0.33953156  0.18458288  0.79741817  1
  O  O628  1  0.33962036  0.51781954  0.04679105  1
  O  O629  1  0.33732165  0.51737427  0.29692081  1
  O  O630  1  0.33681339  0.51812924  0.54860203  1
  O  O631  1  0.33681135  0.51836188  0.79862246  1
  O  O632  1  0.33799935  0.85061248  0.04648705  1
  O  O633  1  0.33792621  0.85050453  0.29677987  1
  O  O634  1  0.33877796  0.85061340  0.54801826  1
  O  O635  1  0.33944234  0.85190119  0.79648408  1
  O  O636  1  0.83659561  0.18520756  0.04628475  1
  O  O637  1  0.83832492  0.18580766  0.29827870  1
  O  O638  1  0.83878625  0.18581468  0.54794264  1
  O  O639  1  0.83768602  0.18586679  0.79708757  1
  O  O640  1  0.83851901  0.51799685  0.04661774  1
  O  O641  1  0.83616274  0.51780053  0.29775070  1
  O  O642  1  0.83631683  0.51835655  0.54858423  1
  O  O643  1  0.83705332  0.51692683  0.79757982  1
  O  O644  1  0.83786883  0.85140321  0.04766589  1
  O  O645  1  0.83543992  0.85139033  0.29750646  1
  O  O646  1  0.83590403  0.85082421  0.54768783  1
  O  O647  1  0.83481417  0.85221773  0.79795988  1
  O  O648  1  0.16318874  0.14857949  0.20208839  1
  O  O649  1  0.16334287  0.15007283  0.45296589  1
  O  O650  1  0.16493664  0.14876479  0.70234823  1
  O  O651  1  0.16332033  0.14965689  0.95195866  1
  O  O652  1  0.16335567  0.48254194  0.20219707  1
  O  O653  1  0.16006857  0.48011273  0.45284781  1
  O  O654  1  0.16092478  0.48292410  0.70385697  1
  O  O655  1  0.16233672  0.48024402  0.95201253  1
  O  O656  1  0.16475703  0.81377105  0.20171668  1
  O  O657  1  0.16536005  0.81511693  0.45267708  1
  O  O658  1  0.16321724  0.81359623  0.70298737  1
  O  O659  1  0.16412713  0.81481972  0.95128845  1
  O  O660  1  0.66249733  0.14833083  0.20238747  1
  O  O661  1  0.66192004  0.14883317  0.45295267  1
  O  O662  1  0.66217970  0.14931316  0.70271658  1
  O  O663  1  0.66358465  0.14976780  0.95151849  1
  O  O664  1  0.66050830  0.48127965  0.20153073  1
  O  O665  1  0.66102505  0.48276617  0.45321706  1
  O  O666  1  0.66319978  0.48138732  0.70249476  1
  O  O667  1  0.66336766  0.48116451  0.95228621  1
  O  O668  1  0.66049183  0.81560389  0.20231899  1
  O  O669  1  0.66014554  0.81329281  0.45200187  1
  O  O670  1  0.66096095  0.81459349  0.70389077  1
  O  O671  1  0.66211793  0.81424885  0.95267400  1
