# generated using pymatgen
data_Na2MnFe(PO4)2
_symmetry_space_group_name_H-M   'P 1'
_cell_length_a   21.08763374
_cell_length_b   18.94004666
_cell_length_c   20.04611376
_cell_angle_alpha   90.00014955
_cell_angle_beta   89.99935461
_cell_angle_gamma   90.00100027
_symmetry_Int_Tables_number   1
_chemical_formula_structural   Na2MnFe(PO4)2
_chemical_formula_sum   'Na96 Mn48 Fe48 P96 O384'
_cell_volume   8006.43320991
_cell_formula_units_Z   48
loop_
 _symmetry_equiv_pos_site_id
 _symmetry_equiv_pos_as_xyz
  1  'x, y, z'
loop_
 _atom_site_type_symbol
 _atom_site_label
 _atom_site_symmetry_multiplicity
 _atom_site_fract_x
 _atom_site_fract_y
 _atom_site_fract_z
 _atom_site_occupancy
  Na  Na0  1  0.00069026  -0.00017905  0.00007836  1
  Na  Na1  1  0.00304666  0.00085243  0.24935050  1
  Na  Na2  1  0.00053214  0.00000294  0.49972472  1
  Na  Na3  1  -0.00075070  -0.00038489  0.75055055  1
  Na  Na4  1  -0.00052250  0.33319422  -0.00025246  1
  Na  Na5  1  -0.00009661  0.33382172  0.24888348  1
  Na  Na6  1  -0.00182357  0.33265850  0.50043407  1
  Na  Na7  1  -0.00072043  0.33302687  0.75026755  1
  Na  Na8  1  0.00081968  0.66605264  -0.00002123  1
  Na  Na9  1  0.00175025  0.66668141  0.25052332  1
  Na  Na10  1  0.00250925  0.66805657  0.50109399  1
  Na  Na11  1  0.00092410  0.66651694  0.74962652  1
  Na  Na12  1  0.49836059  -0.00041795  0.00108931  1
  Na  Na13  1  0.50055096  0.00067550  0.25089909  1
  Na  Na14  1  0.49914102  -0.00079407  0.49917825  1
  Na  Na15  1  0.49903118  -0.00038192  0.74891323  1
  Na  Na16  1  0.49874848  0.33294402  0.00005974  1
  Na  Na17  1  0.50076035  0.33400489  0.24931769  1
  Na  Na18  1  0.49937812  0.33299418  0.50045891  1
  Na  Na19  1  0.50097414  0.33432622  0.75039835  1
  Na  Na20  1  0.50072898  0.66712158  -0.00023707  1
  Na  Na21  1  0.50039435  0.66647592  0.24887477  1
  Na  Na22  1  0.50041070  0.66676116  0.49988765  1
  Na  Na23  1  0.49925500  0.66636787  0.75056744  1
  Na  Na24  1  0.25147562  0.00040511  0.12456087  1
  Na  Na25  1  0.24953243  -0.00019041  0.37414583  1
  Na  Na26  1  0.25244485  0.00063910  0.62548679  1
  Na  Na27  1  0.25326998  0.00075082  0.87511423  1
  Na  Na28  1  0.24782099  0.33292225  0.12601711  1
  Na  Na29  1  0.24962686  0.33350543  0.37444291  1
  Na  Na30  1  0.25043871  0.33347068  0.62397502  1
  Na  Na31  1  0.25065214  0.33420650  0.87612725  1
  Na  Na32  1  0.24765343  0.66572786  0.12522817  1
  Na  Na33  1  0.24632584  0.66639304  0.37495042  1
  Na  Na34  1  0.24710523  0.66578512  0.62463980  1
  Na  Na35  1  0.25152747  0.66760326  0.87556766  1
  Na  Na36  1  0.74741027  -0.00038904  0.12461097  1
  Na  Na37  1  0.74841244  -0.00079314  0.37492379  1
  Na  Na38  1  0.74942347  -0.00040766  0.62624708  1
  Na  Na39  1  0.74775961  -0.00040157  0.87498296  1
  Na  Na40  1  0.75058134  0.33332481  0.12390352  1
  Na  Na41  1  0.75245635  0.33372171  0.37599239  1
  Na  Na42  1  0.75045415  0.33288441  0.62446760  1
  Na  Na43  1  0.75061377  0.33377716  0.87511888  1
  Na  Na44  1  0.74973278  0.66587564  0.12441493  1
  Na  Na45  1  0.75192011  0.66735282  0.37477097  1
  Na  Na46  1  0.74945591  0.66687111  0.62608237  1
  Na  Na47  1  0.74878219  0.66620542  0.87465578  1
  Na  Na48  1  0.00120461  0.16675745  -0.00040660  1
  Na  Na49  1  0.00156009  0.16610384  0.24948231  1
  Na  Na50  1  -0.00085000  0.16705363  0.50088859  1
  Na  Na51  1  -0.00058891  0.16749891  0.75060968  1
  Na  Na52  1  -0.00052390  0.50070950  0.00004170  1
  Na  Na53  1  0.00092320  0.49943233  0.25021306  1
  Na  Na54  1  0.00081259  0.50008819  0.50025458  1
  Na  Na55  1  0.00013171  0.50025205  0.74981460  1
  Na  Na56  1  0.00065717  0.83333790  0.00014845  1
  Na  Na57  1  0.00339443  0.83217836  0.24949888  1
  Na  Na58  1  0.00014903  0.83384254  0.49975156  1
  Na  Na59  1  0.00047040  0.83280155  0.75013145  1
  Na  Na60  1  0.50198008  0.16568054  0.00121020  1
  Na  Na61  1  0.49945828  0.16691799  0.24954952  1
  Na  Na62  1  0.49891501  0.16752013  0.49994552  1
  Na  Na63  1  0.50195079  0.16577406  0.74853032  1
  Na  Na64  1  0.49943192  0.49949535  -0.00057005  1
  Na  Na65  1  0.50160862  0.49901498  0.24905783  1
  Na  Na66  1  0.50037561  0.49938091  0.49989800  1
  Na  Na67  1  0.49799316  0.50058750  0.75139439  1
  Na  Na68  1  0.49717836  0.83419866  0.00042251  1
  Na  Na69  1  0.50025251  0.83321779  0.25031367  1
  Na  Na70  1  0.50027036  0.83326090  0.49975679  1
  Na  Na71  1  0.49975944  0.83271732  0.75008849  1
  Na  Na72  1  0.25020526  0.16634927  0.12581647  1
  Na  Na73  1  0.25187547  0.16557191  0.37482357  1
  Na  Na74  1  0.24975156  0.16711332  0.62399253  1
  Na  Na75  1  0.24943677  0.16733175  0.87550285  1
  Na  Na76  1  0.24797406  0.50013196  0.12503182  1
  Na  Na77  1  0.24551944  0.50096183  0.37412671  1
  Na  Na78  1  0.24836677  0.50041561  0.62495363  1
  Na  Na79  1  0.25090079  0.49976624  0.87612990  1
  Na  Na80  1  0.25051955  0.83318436  0.12456281  1
  Na  Na81  1  0.24758884  0.83419213  0.37471148  1
  Na  Na82  1  0.25191437  0.83255575  0.62493398  1
  Na  Na83  1  0.25306355  0.83290431  0.87560046  1
  Na  Na84  1  0.74732564  0.16774195  0.12364882  1
  Na  Na85  1  0.75068138  0.16672839  0.37522332  1
  Na  Na86  1  0.75081025  0.16682540  0.62544640  1
  Na  Na87  1  0.74862845  0.16699467  0.87517749  1
  Na  Na88  1  0.75139151  0.49987670  0.12465367  1
  Na  Na89  1  0.75254229  0.49908870  0.37464784  1
  Na  Na90  1  0.75056560  0.49987031  0.62520796  1
  Na  Na91  1  0.75125034  0.49978248  0.87546068  1
  Na  Na92  1  0.74913147  0.83333948  0.12457803  1
  Na  Na93  1  0.74953548  0.83398880  0.37581740  1
  Na  Na94  1  0.74870980  0.83307843  0.62601500  1
  Na  Na95  1  0.74671643  0.83376338  0.87408469  1
  Mn  Mn96  1  0.10800501  0.41650895  0.62310039  1
  Mn  Mn97  1  0.39129492  0.58363346  0.62692526  1
  Mn  Mn98  1  0.64052942  0.91563361  0.99748595  1
  Mn  Mn99  1  0.39196906  0.24946229  0.87711188  1
  Mn  Mn100  1  0.60869418  0.74922168  0.37289782  1
  Mn  Mn101  1  0.35698951  0.41682133  0.25207677  1
  Mn  Mn102  1  0.39223389  0.25042496  0.62771164  1
  Mn  Mn103  1  0.60756871  0.74973999  0.12253326  1
  Mn  Mn104  1  0.85860189  0.08238087  0.50203546  1
  Mn  Mn105  1  0.85703552  0.75007615  0.75241165  1
  Mn  Mn106  1  0.60890066  0.41635910  0.37280557  1
  Mn  Mn107  1  0.35711700  0.41706864  0.50161606  1
  Mn  Mn108  1  0.14213178  0.91692473  0.49842684  1
  Mn  Mn109  1  0.14404029  0.91690508  0.99747430  1
  Mn  Mn110  1  0.89313872  0.58402671  0.62725465  1
  Mn  Mn111  1  0.89274620  0.91708275  0.37646957  1
  Mn  Mn112  1  0.14339490  0.91669930  0.74760364  1
  Mn  Mn113  1  0.89345411  0.58360451  0.37755128  1
  Mn  Mn114  1  0.64315593  0.24983283  0.49756256  1
  Mn  Mn115  1  0.10774269  0.08259390  0.62334229  1
  Mn  Mn116  1  0.14192086  0.24974781  0.24811334  1
  Mn  Mn117  1  0.85703872  0.08318440  0.00235293  1
  Mn  Mn118  1  0.85856679  0.75056592  0.25183957  1
  Mn  Mn119  1  0.35690691  0.74988387  0.50187778  1
  Mn  Mn120  1  0.10876597  0.75018664  0.87262037  1
  Mn  Mn121  1  0.64198127  0.25097251  0.99708382  1
  Mn  Mn122  1  0.39219518  0.58333679  0.12722031  1
  Mn  Mn123  1  0.39234378  0.25007768  0.12734445  1
  Mn  Mn124  1  0.14180768  0.24980456  0.49720713  1
  Mn  Mn125  1  0.35838675  0.08415960  0.75268250  1
  Mn  Mn126  1  0.85780327  0.08355717  0.25144112  1
  Mn  Mn127  1  0.85682758  0.08298146  0.75268024  1
  Mn  Mn128  1  0.89288449  0.91644221  0.12730992  1
  Mn  Mn129  1  0.60700608  0.41651480  0.87269493  1
  Mn  Mn130  1  0.10777418  0.41664178  0.87293219  1
  Mn  Mn131  1  0.64315534  0.58272151  0.24749728  1
  Mn  Mn132  1  0.89141960  0.91635669  0.87740869  1
  Mn  Mn133  1  0.60761704  0.08309502  0.62167013  1
  Mn  Mn134  1  0.60763728  0.08396468  0.37284342  1
  Mn  Mn135  1  0.10843207  0.08315639  0.87287698  1
  Mn  Mn136  1  0.35636225  0.74959868  0.25252827  1
  Mn  Mn137  1  0.39113398  0.58267888  0.37677695  1
  Mn  Mn138  1  0.89276355  0.24971346  0.12735912  1
  Mn  Mn139  1  0.85757007  0.41675459  0.75233278  1
  Mn  Mn140  1  0.64131789  0.58266913  0.74798379  1
  Mn  Mn141  1  0.39205769  0.91662289  0.37708032  1
  Mn  Mn142  1  0.64270650  0.58354395  0.49766601  1
  Mn  Mn143  1  0.85735245  0.74990072  0.00187086  1
  Fe  Fe144  1  0.60641402  0.08342925  0.12385627  1
  Fe  Fe145  1  0.14124486  0.58367231  0.24741231  1
  Fe  Fe146  1  0.10783367  0.75107522  0.62385962  1
  Fe  Fe147  1  0.85783447  0.41617480  0.25124052  1
  Fe  Fe148  1  0.85752158  0.41712054  0.00175244  1
  Fe  Fe149  1  0.39272068  0.91681798  0.12757458  1
  Fe  Fe150  1  0.60551057  0.75014012  0.87349547  1
  Fe  Fe151  1  0.10768324  0.75000488  0.12250128  1
  Fe  Fe152  1  0.89273821  0.24925240  0.62754574  1
  Fe  Fe153  1  0.39277884  0.25065456  0.37621277  1
  Fe  Fe154  1  0.60662342  0.08276294  0.87356058  1
  Fe  Fe155  1  0.89363606  0.58377449  0.12620305  1
  Fe  Fe156  1  0.10864474  0.08352509  0.12243869  1
  Fe  Fe157  1  0.64095667  0.91697744  0.74761997  1
  Fe  Fe158  1  0.35723358  0.08330952  0.50102279  1
  Fe  Fe159  1  0.14286753  0.91692540  0.24759013  1
  Fe  Fe160  1  0.14294516  0.58297684  0.99788288  1
  Fe  Fe161  1  0.35753659  0.74939713  0.00241846  1
  Fe  Fe162  1  0.89281905  0.24941973  0.37572756  1
  Fe  Fe163  1  0.39334072  0.91666509  0.87641773  1
  Fe  Fe164  1  0.85811597  0.75033858  0.50243888  1
  Fe  Fe165  1  0.10622077  0.41601630  0.37326407  1
  Fe  Fe166  1  0.89280613  0.58332348  0.87703370  1
  Fe  Fe167  1  0.10818644  0.08354546  0.37337945  1
  Fe  Fe168  1  0.89206035  0.91672478  0.62681773  1
  Fe  Fe169  1  0.60835451  0.41661389  0.12297393  1
  Fe  Fe170  1  0.10721887  0.75073783  0.37316434  1
  Fe  Fe171  1  0.14175321  0.58300676  0.49803704  1
  Fe  Fe172  1  0.89263592  0.25024777  0.87672139  1
  Fe  Fe173  1  0.35648013  0.41659538  0.00244805  1
  Fe  Fe174  1  0.60722394  0.41749135  0.62343768  1
  Fe  Fe175  1  0.60672760  0.74917456  0.62320299  1
  Fe  Fe176  1  0.39180400  0.58369475  0.87750486  1
  Fe  Fe177  1  0.85831191  0.41720324  0.50215618  1
  Fe  Fe178  1  0.10656426  0.41661870  0.12265654  1
  Fe  Fe179  1  0.39323919  0.91596504  0.62635478  1
  Fe  Fe180  1  0.64214861  0.91708310  0.24823819  1
  Fe  Fe181  1  0.35730360  0.41704135  0.75127422  1
  Fe  Fe182  1  0.64312526  0.58295632  0.99825311  1
  Fe  Fe183  1  0.64282227  0.24998764  0.24883864  1
  Fe  Fe184  1  0.64303184  0.91623279  0.49894797  1
  Fe  Fe185  1  0.35824505  0.08427643  0.00224174  1
  Fe  Fe186  1  0.14305999  0.25017378  0.99844699  1
  Fe  Fe187  1  0.14332987  0.58323265  0.74949424  1
  Fe  Fe188  1  0.35704658  0.08341936  0.25197022  1
  Fe  Fe189  1  0.35773927  0.74896660  0.75136862  1
  Fe  Fe190  1  0.14239889  0.25065082  0.74873764  1
  Fe  Fe191  1  0.64280187  0.25021927  0.74827457  1
  P  P192  1  0.05450095  0.25012168  0.10928820  1
  P  P193  1  0.05195042  0.25004130  0.36005337  1
  P  P194  1  0.05348591  0.24989782  0.61138013  1
  P  P195  1  0.05406656  0.25036158  0.86071058  1
  P  P196  1  0.05452062  0.58314934  0.11035214  1
  P  P197  1  0.05531604  0.58333609  0.36095356  1
  P  P198  1  0.05610832  0.58424439  0.61133023  1
  P  P199  1  0.05419916  0.58308354  0.86053448  1
  P  P200  1  0.05563865  0.91667990  0.11064545  1
  P  P201  1  0.05456503  0.91704712  0.35929878  1
  P  P202  1  0.05201627  0.91619227  0.61042340  1
  P  P203  1  0.05367362  0.91655098  0.85981828  1
  P  P204  1  0.55508008  0.25033613  0.11144313  1
  P  P205  1  0.55290233  0.25014077  0.35925743  1
  P  P206  1  0.55484202  0.25136101  0.61096376  1
  P  P207  1  0.55346409  0.24917316  0.85931520  1
  P  P208  1  0.55439499  0.58215132  0.10887981  1
  P  P209  1  0.55315991  0.58297860  0.35931739  1
  P  P210  1  0.55295104  0.58310208  0.61020905  1
  P  P211  1  0.55253444  0.58373668  0.86175215  1
  P  P212  1  0.55293046  0.91745448  0.11157164  1
  P  P213  1  0.55524776  0.91655270  0.36062286  1
  P  P214  1  0.55374173  0.91545469  0.61022649  1
  P  P215  1  0.55206744  0.91664860  0.85977559  1
  P  P216  1  0.44547748  0.08293952  0.13995255  1
  P  P217  1  0.44474943  0.08436807  0.38918002  1
  P  P218  1  0.44532000  0.08250535  0.63813091  1
  P  P219  1  0.44743493  0.08306015  0.89054757  1
  P  P220  1  0.44668013  0.41673766  0.13879564  1
  P  P221  1  0.44684951  0.41590674  0.38973127  1
  P  P222  1  0.44697597  0.41711790  0.64075870  1
  P  P223  1  0.44380579  0.41706903  0.88973075  1
  P  P224  1  0.44502068  0.75034957  0.13923230  1
  P  P225  1  0.44660591  0.74961637  0.38992782  1
  P  P226  1  0.44683165  0.75030623  0.64011758  1
  P  P227  1  0.44514300  0.74979686  0.88926165  1
  P  P228  1  0.94869733  0.08326336  0.13956050  1
  P  P229  1  0.94845325  0.08374529  0.38933656  1
  P  P230  1  0.94616699  0.08280910  0.64045933  1
  P  P231  1  0.94648979  0.08404621  0.89021770  1
  P  P232  1  0.94600879  0.41776420  0.13881120  1
  P  P233  1  0.94596671  0.41587737  0.38905197  1
  P  P234  1  0.94568579  0.41625647  0.63920874  1
  P  P235  1  0.94580904  0.41694616  0.89039807  1
  P  P236  1  0.94841935  0.74908471  0.13956282  1
  P  P237  1  0.94777985  0.75037509  0.39048736  1
  P  P238  1  0.94675114  0.75111478  0.63927706  1
  P  P239  1  0.94698522  0.74896868  0.89002529  1
  P  P240  1  0.19599148  0.08286460  0.23550303  1
  P  P241  1  0.19730520  0.08311493  0.48436280  1
  P  P242  1  0.19729125  0.08423350  0.73507577  1
  P  P243  1  0.19776696  0.08407700  0.98613637  1
  P  P244  1  0.19367200  0.41700937  0.23540652  1
  P  P245  1  0.19525164  0.41686978  0.48406221  1
  P  P246  1  0.19784074  0.41683416  0.73562301  1
  P  P247  1  0.19595220  0.41656245  0.98671559  1
  P  P248  1  0.19397557  0.75041515  0.23531961  1
  P  P249  1  0.19434747  0.74989083  0.48567365  1
  P  P250  1  0.19797096  0.74944942  0.73494143  1
  P  P251  1  0.19719542  0.74944633  0.98623883  1
  P  P252  1  0.69578906  0.08393336  0.23441138  1
  P  P253  1  0.69708335  0.08243701  0.48517521  1
  P  P254  1  0.69415387  0.08352842  0.73639976  1
  P  P255  1  0.69386917  0.08314436  0.98527896  1
  P  P256  1  0.69802499  0.41544080  0.23434047  1
  P  P257  1  0.69773553  0.41691504  0.48620613  1
  P  P258  1  0.69584249  0.41586158  0.73453903  1
  P  P259  1  0.69677027  0.41783879  0.98579193  1
  P  P260  1  0.69705238  0.75060278  0.23470698  1
  P  P261  1  0.69719335  0.75051862  0.48666424  1
  P  P262  1  0.69329981  0.75040101  0.73587908  1
  P  P263  1  0.69531667  0.74866405  0.98395543  1
  P  P264  1  0.30244900  0.25031064  0.01540728  1
  P  P265  1  0.30384079  0.24944277  0.26538472  1
  P  P266  1  0.30451689  0.24950235  0.51338392  1
  P  P267  1  0.30185953  0.25109237  0.76512208  1
  P  P268  1  0.30339670  0.58321693  0.01432035  1
  P  P269  1  0.30064490  0.58327065  0.26475689  1
  P  P270  1  0.30087557  0.58325598  0.51462509  1
  P  P271  1  0.30289977  0.58345637  0.76545020  1
  P  P272  1  0.30682924  0.91686978  0.01427144  1
  P  P273  1  0.30317103  0.91719442  0.26353289  1
  P  P274  1  0.30398906  0.91739168  0.51532970  1
  P  P275  1  0.30603841  0.91543471  0.76434580  1
  P  P276  1  0.80477122  0.25075203  0.01357303  1
  P  P277  1  0.80286708  0.25046397  0.26493438  1
  P  P278  1  0.80634591  0.25022823  0.51440960  1
  P  P279  1  0.80369063  0.24985944  0.76476841  1
  P  P280  1  0.80448767  0.58289763  0.01428282  1
  P  P281  1  0.80567612  0.58263397  0.26346773  1
  P  P282  1  0.80432874  0.58382420  0.51514235  1
  P  P283  1  0.80376231  0.58351177  0.76579404  1
  P  P284  1  0.80230674  0.91639633  0.01516397  1
  P  P285  1  0.80193610  0.91708844  0.26475386  1
  P  P286  1  0.80307612  0.91592261  0.51588847  1
  P  P287  1  0.80195603  0.91642790  0.76420204  1
  O  O288  1  0.05703199  0.24991787  0.18604374  1
  O  O289  1  0.05506222  0.25007288  0.43678960  1
  O  O290  1  0.05875106  0.25044081  0.68804672  1
  O  O291  1  0.05951013  0.25041113  0.93734213  1
  O  O292  1  0.05833131  0.58308840  0.18716685  1
  O  O293  1  0.05836640  0.58329411  0.43782197  1
  O  O294  1  0.06019497  0.58312376  0.68812332  1
  O  O295  1  0.05944656  0.58313770  0.93723598  1
  O  O296  1  0.05941899  0.91693021  0.18740599  1
  O  O297  1  0.05687039  0.91734347  0.43608955  1
  O  O298  1  0.05623185  0.91652735  0.68705047  1
  O  O299  1  0.05785074  0.91653868  0.93654894  1
  O  O300  1  0.55892540  0.25082207  0.18813913  1
  O  O301  1  0.55704726  0.25002016  0.43599033  1
  O  O302  1  0.55894457  0.25057380  0.68766800  1
  O  O303  1  0.55612595  0.25036384  0.93617741  1
  O  O304  1  0.55774679  0.58259071  0.18567338  1
  O  O305  1  0.55665977  0.58312915  0.43610122  1
  O  O306  1  0.55546955  0.58292494  0.68699394  1
  O  O307  1  0.55787028  0.58286734  0.93826219  1
  O  O308  1  0.55786858  0.91681814  0.18822533  1
  O  O309  1  0.55963601  0.91646053  0.43737131  1
  O  O310  1  0.55774055  0.91657051  0.68699825  1
  O  O311  1  0.55488197  0.91651206  0.93655346  1
  O  O312  1  0.44113066  0.08398940  0.06318917  1
  O  O313  1  0.44086647  0.08332707  0.31237059  1
  O  O314  1  0.44121414  0.08340198  0.56142691  1
  O  O315  1  0.44400468  0.08419611  0.81376813  1
  O  O316  1  0.44085309  0.41658523  0.06217491  1
  O  O317  1  0.44336900  0.41682966  0.31296630  1
  O  O318  1  0.44281939  0.41687000  0.56407276  1
  O  O319  1  0.43963589  0.41663203  0.81295605  1
  O  O320  1  0.44095702  0.74935884  0.06242268  1
  O  O321  1  0.44288044  0.74959625  0.31315181  1
  O  O322  1  0.44296652  0.74957609  0.56343687  1
  O  O323  1  0.44120469  0.74896986  0.81255456  1
  O  O324  1  0.94393083  0.08321296  0.06296435  1
  O  O325  1  0.94455816  0.08315112  0.31269989  1
  O  O326  1  0.94386500  0.08263058  0.56363938  1
  O  O327  1  0.94289575  0.08361375  0.81345731  1
  O  O328  1  0.94134443  0.41713927  0.06214698  1
  O  O329  1  0.94172286  0.41641304  0.31229489  1
  O  O330  1  0.94203147  0.41712246  0.56240041  1
  O  O331  1  0.94315185  0.41685191  0.81358071  1
  O  O332  1  0.94411584  0.74966122  0.06294176  1
  O  O333  1  0.94396692  0.75011039  0.31376147  1
  O  O334  1  0.94209123  0.75060795  0.56258256  1
  O  O335  1  0.94347622  0.74950978  0.81326390  1
  O  O336  1  0.19291030  0.08330553  0.06281510  1
  O  O337  1  0.19120641  0.08362890  0.31221071  1
  O  O338  1  0.19327051  0.08327212  0.56105254  1
  O  O339  1  0.19435364  0.08329253  0.81187756  1
  O  O340  1  0.19114630  0.41672395  0.06333723  1
  O  O341  1  0.18939826  0.41595436  0.31213384  1
  O  O342  1  0.19283035  0.41581558  0.56088735  1
  O  O343  1  0.19447362  0.41666434  0.81232336  1
  O  O344  1  0.19203049  0.74988790  0.06286147  1
  O  O345  1  0.19034481  0.75059510  0.31215012  1
  O  O346  1  0.19085905  0.75109118  0.56247224  1
  O  O347  1  0.19485331  0.75069963  0.81170659  1
  O  O348  1  0.68949427  0.08306359  0.06200765  1
  O  O349  1  0.69336891  0.08393123  0.31122519  1
  O  O350  1  0.69399038  0.08345049  0.56194903  1
  O  O351  1  0.69023579  0.08307497  0.81316404  1
  O  O352  1  0.69214890  0.41706822  0.06243114  1
  O  O353  1  0.69479444  0.41616511  0.31112099  1
  O  O354  1  0.69214403  0.41701399  0.56274647  1
  O  O355  1  0.69277021  0.41676367  0.81135929  1
  O  O356  1  0.69271917  0.74959901  0.06076040  1
  O  O357  1  0.69449054  0.75001984  0.31151543  1
  O  O358  1  0.69180342  0.74951610  0.56327166  1
  O  O359  1  0.68856004  0.74981766  0.81260397  1
  O  O360  1  0.30679923  0.25030334  0.18860002  1
  O  O361  1  0.30860394  0.25031639  0.43670154  1
  O  O362  1  0.30569144  0.25030230  0.68841477  1
  O  O363  1  0.30589921  0.25008428  0.93873974  1
  O  O364  1  0.30539687  0.58308247  0.18812181  1
  O  O365  1  0.30459613  0.58330921  0.43796566  1
  O  O366  1  0.30573718  0.58349574  0.68870076  1
  O  O367  1  0.30813372  0.58364754  0.93763121  1
  O  O368  1  0.30802662  0.91667113  0.18687079  1
  O  O369  1  0.30637829  0.91642389  0.43848803  1
  O  O370  1  0.30979090  0.91611881  0.68758241  1
  O  O371  1  0.31073259  0.91699878  0.93740855  1
  O  O372  1  0.80639601  0.24961508  0.18818863  1
  O  O373  1  0.81048190  0.24935974  0.43759520  1
  O  O374  1  0.80866774  0.24971524  0.68804480  1
  O  O375  1  0.80897749  0.24996447  0.93683427  1
  O  O376  1  0.80971171  0.58362337  0.18672105  1
  O  O377  1  0.80741830  0.58384826  0.43833304  1
  O  O378  1  0.80762862  0.58381247  0.68907241  1
  O  O379  1  0.80893655  0.58359292  0.93758898  1
  O  O380  1  0.80635542  0.91691696  0.18810167  1
  O  O381  1  0.80703508  0.91655616  0.43917208  1
  O  O382  1  0.80767439  0.91625312  0.68763133  1
  O  O383  1  0.80555766  0.91650395  0.93836546  1
  O  O384  1  0.23254542  0.25006433  0.04045334  1
  O  O385  1  0.23403726  0.24949740  0.29020820  1
  O  O386  1  0.23450610  0.25006326  0.53769736  1
  O  O387  1  0.23194531  0.25074814  0.79006123  1
  O  O388  1  0.23299363  0.58284032  0.03793975  1
  O  O389  1  0.23031716  0.58364162  0.28822306  1
  O  O390  1  0.23087924  0.58295910  0.53918276  1
  O  O391  1  0.23292596  0.58363875  0.79067315  1
  O  O392  1  0.23672224  0.91673124  0.03830271  1
  O  O393  1  0.23286348  0.91702471  0.28722570  1
  O  O394  1  0.23439423  0.91700332  0.54083079  1
  O  O395  1  0.23614149  0.91675268  0.78907777  1
  O  O396  1  0.73465242  0.25075692  0.03737408  1
  O  O397  1  0.73291907  0.25019196  0.28988054  1
  O  O398  1  0.73617893  0.24972975  0.53826778  1
  O  O399  1  0.73329141  0.25034139  0.78818268  1
  O  O400  1  0.73416841  0.58304849  0.03808430  1
  O  O401  1  0.73578748  0.58281643  0.28812834  1
  O  O402  1  0.73476322  0.58350029  0.54061096  1
  O  O403  1  0.73371450  0.58292229  0.78982617  1
  O  O404  1  0.73244789  0.91604518  0.03967938  1
  O  O405  1  0.73183212  0.91711262  0.28895638  1
  O  O406  1  0.73294531  0.91631913  0.54030546  1
  O  O407  1  0.73136938  0.91662655  0.78710924  1
  O  O408  1  0.26647458  0.08358885  0.21210610  1
  O  O409  1  0.26738628  0.08273064  0.46013125  1
  O  O410  1  0.26694973  0.08409816  0.70991075  1
  O  O411  1  0.26816168  0.08391797  0.96251830  1
  O  O412  1  0.26380848  0.41640198  0.21141612  1
  O  O413  1  0.26481756  0.41699261  0.45858827  1
  O  O414  1  0.26768854  0.41719299  0.71025932  1
  O  O415  1  0.26627443  0.41698401  0.96296771  1
  O  O416  1  0.26394080  0.74975430  0.21082348  1
  O  O417  1  0.26419699  0.75045258  0.46082734  1
  O  O418  1  0.26793280  0.74894129  0.71003653  1
  O  O419  1  0.26766841  0.74997652  0.96298102  1
  O  O420  1  0.76533759  0.08389161  0.20854832  1
  O  O421  1  0.76670846  0.08259656  0.45988971  1
  O  O422  1  0.76408575  0.08327814  0.71187765  1
  O  O423  1  0.76394883  0.08328560  0.96133834  1
  O  O424  1  0.76806594  0.41612937  0.20959474  1
  O  O425  1  0.76821098  0.41667334  0.46292466  1
  O  O426  1  0.76565072  0.41649253  0.70980171  1
  O  O427  1  0.76704717  0.41731988  0.96197609  1
  O  O428  1  0.76657678  0.75014209  0.20898479  1
  O  O429  1  0.76755128  0.75068144  0.46295244  1
  O  O430  1  0.76358287  0.74977577  0.71242522  1
  O  O431  1  0.76489973  0.74992433  0.95857482  1
  O  O432  1  0.01903838  0.08365531  0.16310431  1
  O  O433  1  0.01844507  0.08351385  0.41420871  1
  O  O434  1  0.01561220  0.08323047  0.66633955  1
  O  O435  1  0.01634354  0.08349372  0.91489337  1
  O  O436  1  0.01647160  0.41687488  0.16220619  1
  O  O437  1  0.01626683  0.41665659  0.41310715  1
  O  O438  1  0.01554070  0.41656461  0.66397543  1
  O  O439  1  0.01553257  0.41694151  0.91555982  1
  O  O440  1  0.01858200  0.74911942  0.16365958  1
  O  O441  1  0.01802711  0.75071232  0.41441500  1
  O  O442  1  0.01706135  0.75034596  0.66319164  1
  O  O443  1  0.01674973  0.74954987  0.91493297  1
  O  O444  1  0.51583694  0.08364926  0.16360805  1
  O  O445  1  0.51475263  0.08349653  0.41355156  1
  O  O446  1  0.51534622  0.08262525  0.66223403  1
  O  O447  1  0.51741417  0.08286480  0.91525581  1
  O  O448  1  0.51721925  0.41674924  0.16161944  1
  O  O449  1  0.51653746  0.41594881  0.41484051  1
  O  O450  1  0.51704262  0.41753549  0.66508579  1
  O  O451  1  0.51403524  0.41619940  0.91345217  1
  O  O452  1  0.51503371  0.75001415  0.16332782  1
  O  O453  1  0.51635527  0.74991448  0.41468824  1
  O  O454  1  0.51686702  0.74961717  0.66461381  1
  O  O455  1  0.51548410  0.75030256  0.91345155  1
  O  O456  1  0.48513484  0.24984485  0.08678565  1
  O  O457  1  0.48284910  0.25032534  0.33492264  1
  O  O458  1  0.48482161  0.25044784  0.58680384  1
  O  O459  1  0.48383003  0.24995507  0.83397597  1
  O  O460  1  0.48452641  0.58293327  0.08428404  1
  O  O461  1  0.48356591  0.58274312  0.33398654  1
  O  O462  1  0.48340257  0.58323220  0.58455896  1
  O  O463  1  0.48205609  0.58353081  0.83832062  1
  O  O464  1  0.48263984  0.91713518  0.08781685  1
  O  O465  1  0.48506066  0.91683482  0.33686343  1
  O  O466  1  0.48349257  0.91602469  0.58617106  1
  O  O467  1  0.48202505  0.91647797  0.83490468  1
  O  O468  1  0.98475077  0.25002766  0.08422059  1
  O  O469  1  0.98219239  0.24983844  0.33446725  1
  O  O470  1  0.98310261  0.24951874  0.58804056  1
  O  O471  1  0.98349237  0.25063903  0.83776933  1
  O  O472  1  0.98423709  0.58331818  0.08630975  1
  O  O473  1  0.98545305  0.58314049  0.33610788  1
  O  O474  1  0.98608908  0.58397458  0.58707148  1
  O  O475  1  0.98381124  0.58287672  0.83720002  1
  O  O476  1  0.98572254  0.91670876  0.08602690  1
  O  O477  1  0.98500204  0.91661525  0.33348155  1
  O  O478  1  0.98209529  0.91667120  0.58560499  1
  O  O479  1  0.98377050  0.91627281  0.83550419  1
  O  O480  1  0.08843108  0.31540762  0.07695518  1
  O  O481  1  0.08574736  0.31515106  0.32748056  1
  O  O482  1  0.08642582  0.31492287  0.57765675  1
  O  O483  1  0.08723310  0.31538478  0.82704314  1
  O  O484  1  0.08835827  0.64801054  0.07720089  1
  O  O485  1  0.08892070  0.64861982  0.32832343  1
  O  O486  1  0.08957867  0.64956522  0.57888065  1
  O  O487  1  0.08771598  0.64795279  0.82712343  1
  O  O488  1  0.08946722  0.98173806  0.07777079  1
  O  O489  1  0.08888023  0.98211615  0.32702060  1
  O  O490  1  0.08603463  0.98116361  0.57758658  1
  O  O491  1  0.08742529  0.98167994  0.82718985  1
  O  O492  1  0.58844757  0.31540465  0.07796019  1
  O  O493  1  0.58719558  0.31492619  0.32648324  1
  O  O494  1  0.58788355  0.31689473  0.57820542  1
  O  O495  1  0.58837639  0.31387745  0.82692755  1
  O  O496  1  0.58880090  0.64707070  0.07638566  1
  O  O497  1  0.58728347  0.64805985  0.32695542  1
  O  O498  1  0.58722161  0.64834267  0.57811237  1
  O  O499  1  0.58553990  0.64884713  0.82844322  1
  O  O500  1  0.58594152  0.98265775  0.07842338  1
  O  O501  1  0.58879884  0.98160081  0.32748173  1
  O  O502  1  0.58767010  0.98003656  0.57657088  1
  O  O503  1  0.58587773  0.98171627  0.82711847  1
  O  O504  1  0.41227494  0.01773813  0.17301273  1
  O  O505  1  0.41052057  0.01970413  0.42239498  1
  O  O506  1  0.41199069  0.01726136  0.67086614  1
  O  O507  1  0.41327930  0.01801930  0.92260926  1
  O  O508  1  0.41355041  0.35178718  0.17239134  1
  O  O509  1  0.41284189  0.35064018  0.42182739  1
  O  O510  1  0.41320545  0.35213072  0.67386677  1
  O  O511  1  0.40997603  0.35221383  0.92303739  1
  O  O512  1  0.41142766  0.68535354  0.17242989  1
  O  O513  1  0.41264530  0.68455619  0.42250318  1
  O  O514  1  0.41253750  0.68556967  0.67324368  1
  O  O515  1  0.41173124  0.68492375  0.92302801  1
  O  O516  1  0.91532489  0.01827824  0.17284288  1
  O  O517  1  0.91458052  0.01864776  0.42220037  1
  O  O518  1  0.91193909  0.01755640  0.67251490  1
  O  O519  1  0.91234238  0.01902154  0.92273256  1
  O  O520  1  0.91233470  0.35296163  0.17243640  1
  O  O521  1  0.91276469  0.35062904  0.42185081  1
  O  O522  1  0.91207206  0.35099165  0.67167662  1
  O  O523  1  0.91149030  0.35198046  0.92275542  1
  O  O524  1  0.91487020  0.68398160  0.17232630  1
  O  O525  1  0.91433956  0.68537051  0.42368865  1
  O  O526  1  0.91315998  0.68620426  0.67264650  1
  O  O527  1  0.91339139  0.68357647  0.92235741  1
  O  O528  1  0.16311771  0.01773512  0.20203836  1
  O  O529  1  0.16320851  0.01823379  0.45165625  1
  O  O530  1  0.16339540  0.01908843  0.70238677  1
  O  O531  1  0.16473522  0.01911787  0.95232445  1
  O  O532  1  0.15982639  0.35216404  0.20214473  1
  O  O533  1  0.16089440  0.35196468  0.45136169  1
  O  O534  1  0.16390195  0.35184833  0.70281775  1
  O  O535  1  0.16311034  0.35124785  0.95338979  1
  O  O536  1  0.15986148  0.68544295  0.20255855  1
  O  O537  1  0.16068956  0.68457629  0.45336685  1
  O  O538  1  0.16334118  0.68446723  0.70329042  1
  O  O539  1  0.16421302  0.68426322  0.95298112  1
  O  O540  1  0.66115227  0.01890815  0.20227683  1
  O  O541  1  0.66287735  0.01721650  0.45350695  1
  O  O542  1  0.66033611  0.01857296  0.70328029  1
  O  O543  1  0.66018863  0.01813198  0.95212056  1
  O  O544  1  0.66420767  0.35021619  0.20198991  1
  O  O545  1  0.66468588  0.35183004  0.45257382  1
  O  O546  1  0.66208695  0.35064477  0.70228562  1
  O  O547  1  0.66310559  0.35306981  0.95225017  1
  O  O548  1  0.66264196  0.68559586  0.20244262  1
  O  O549  1  0.66419872  0.68554077  0.45264442  1
  O  O550  1  0.65975186  0.68543561  0.70242027  1
  O  O551  1  0.66167678  0.68308526  0.95208160  1
  O  O552  1  0.33611884  0.31552279  0.04807200  1
  O  O553  1  0.33797694  0.31440295  0.29803621  1
  O  O554  1  0.33825494  0.31437584  0.54678565  1
  O  O555  1  0.33568582  0.31617399  0.79744809  1
  O  O556  1  0.33639464  0.64831166  0.04782517  1
  O  O557  1  0.33417370  0.64816725  0.29790501  1
  O  O558  1  0.33443997  0.64837265  0.54750487  1
  O  O559  1  0.33714124  0.64848973  0.79795117  1
  O  O560  1  0.34023691  0.98204023  0.04732629  1
  O  O561  1  0.33650240  0.98230736  0.29656991  1
  O  O562  1  0.33828232  0.98255477  0.54711542  1
  O  O563  1  0.34069047  0.97995491  0.79753207  1
  O  O564  1  0.83825669  0.31596014  0.04632181  1
  O  O565  1  0.83700085  0.31562917  0.29710250  1
  O  O566  1  0.83972676  0.31545021  0.54725558  1
  O  O567  1  0.83744979  0.31473903  0.79793670  1
  O  O568  1  0.83799235  0.64783948  0.04786489  1
  O  O569  1  0.83943009  0.64747959  0.29684598  1
  O  O570  1  0.83821455  0.64908043  0.54756061  1
  O  O571  1  0.83740747  0.64853284  0.79875400  1
  O  O572  1  0.83610418  0.98145814  0.04783852  1
  O  O573  1  0.83557214  0.98223633  0.29758330  1
  O  O574  1  0.83703742  0.98091595  0.54883834  1
  O  O575  1  0.83506126  0.98138584  0.79782175  1
  O  O576  1  0.41164259  0.14766902  0.17332699  1
  O  O577  1  0.41159049  0.14987458  0.42167594  1
  O  O578  1  0.41197207  0.14742756  0.67187812  1
  O  O579  1  0.41366024  0.14806224  0.92377153  1
  O  O580  1  0.41355298  0.48172581  0.17245415  1
  O  O581  1  0.41271271  0.48085760  0.42254796  1
  O  O582  1  0.41266305  0.48200321  0.67339695  1
  O  O583  1  0.41062414  0.48233426  0.92275846  1
  O  O584  1  0.41158076  0.81560256  0.17188384  1
  O  O585  1  0.41257033  0.81473417  0.42232856  1
  O  O586  1  0.41325881  0.81554240  0.67267026  1
  O  O587  1  0.41168578  0.81501919  0.92193836  1
  O  O588  1  0.91504693  0.14828401  0.17257280  1
  O  O589  1  0.91450851  0.14872124  0.42184918  1
  O  O590  1  0.91163089  0.14790192  0.67240004  1
  O  O591  1  0.91292295  0.14941947  0.92252117  1
  O  O592  1  0.91323361  0.48300210  0.17213017  1
  O  O593  1  0.91227347  0.48068757  0.42263294  1
  O  O594  1  0.91199346  0.48122065  0.67225742  1
  O  O595  1  0.91166303  0.48210777  0.92269841  1
  O  O596  1  0.91497260  0.81420056  0.17280204  1
  O  O597  1  0.91374448  0.81538422  0.42300637  1
  O  O598  1  0.91348427  0.81626908  0.67241507  1
  O  O599  1  0.91265559  0.81381702  0.92266815  1
  O  O600  1  0.08902727  0.18526661  0.07684664  1
  O  O601  1  0.08642617  0.18512140  0.32780851  1
  O  O602  1  0.08680911  0.18486007  0.57806640  1
  O  O603  1  0.08726620  0.18544812  0.82712475  1
  O  O604  1  0.08781229  0.51795904  0.07718004  1
  O  O605  1  0.08910443  0.51836586  0.32804086  1
  O  O606  1  0.08971394  0.51937411  0.57778345  1
  O  O607  1  0.08764600  0.51811211  0.82715850  1
  O  O608  1  0.08913328  0.85132096  0.07793998  1
  O  O609  1  0.08914443  0.85196941  0.32735858  1
  O  O610  1  0.08586678  0.85114870  0.57778667  1
  O  O611  1  0.08772644  0.85158553  0.82716469  1
  O  O612  1  0.58876345  0.18508319  0.07896440  1
  O  O613  1  0.58667445  0.18510175  0.32640152  1
  O  O614  1  0.58874855  0.18660022  0.57752347  1
  O  O615  1  0.58731291  0.18378068  0.82752066  1
  O  O616  1  0.58829412  0.51699877  0.07639350  1
  O  O617  1  0.58760847  0.51792846  0.32719820  1
  O  O618  1  0.58728996  0.51805357  0.57792616  1
  O  O619  1  0.58565538  0.51878866  0.82786500  1
  O  O620  1  0.58608976  0.85248413  0.07780252  1
  O  O621  1  0.58873972  0.85164141  0.32725392  1
  O  O622  1  0.58701990  0.85000580  0.57768610  1
  O  O623  1  0.58607573  0.85164780  0.82726510  1
  O  O624  1  0.33669063  0.18536759  0.04790549  1
  O  O625  1  0.33805276  0.18433024  0.29731874  1
  O  O626  1  0.33777162  0.18413572  0.54618587  1
  O  O627  1  0.33592233  0.18613537  0.79808624  1
  O  O628  1  0.33666840  0.51810996  0.04753991  1
  O  O629  1  0.33386467  0.51807967  0.29782850  1
  O  O630  1  0.33484201  0.51836800  0.54740299  1
  O  O631  1  0.33692612  0.51845694  0.79802058  1
  O  O632  1  0.34034233  0.85173928  0.04726605  1
  O  O633  1  0.33632125  0.85225454  0.29722675  1
  O  O634  1  0.33861358  0.85254790  0.54783305  1
  O  O635  1  0.33896419  0.84972788  0.79683509  1
  O  O636  1  0.83792369  0.18578968  0.04726926  1
  O  O637  1  0.83710249  0.18559599  0.29785140  1
  O  O638  1  0.83997383  0.18528252  0.54782573  1
  O  O639  1  0.83679586  0.18485935  0.79833174  1
  O  O640  1  0.83814861  0.51789397  0.04733382  1
  O  O641  1  0.83914466  0.51716710  0.29582885  1
  O  O642  1  0.83876410  0.51876210  0.54723623  1
  O  O643  1  0.83802426  0.51865436  0.79837800  1
  O  O644  1  0.83651875  0.85136520  0.04749655  1
  O  O645  1  0.83571163  0.85211527  0.29771453  1
  O  O646  1  0.83690509  0.85093964  0.54876825  1
  O  O647  1  0.83489165  0.85138276  0.79788209  1
  O  O648  1  0.16236587  0.14774198  0.20204562  1
  O  O649  1  0.16359590  0.14810648  0.45121705  1
  O  O650  1  0.16314835  0.14941615  0.70318249  1
  O  O651  1  0.16432769  0.14925193  0.95334922  1
  O  O652  1  0.16033116  0.48222267  0.20247253  1
  O  O653  1  0.16060007  0.48192559  0.45248956  1
  O  O654  1  0.16371835  0.48200054  0.70349601  1
  O  O655  1  0.16251560  0.48142090  0.95317985  1
  O  O656  1  0.16081456  0.81566253  0.20218943  1
  O  O657  1  0.16027406  0.81463046  0.45244072  1
  O  O658  1  0.16414712  0.81440644  0.70170528  1
  O  O659  1  0.16418974  0.81439812  0.95245516  1
  O  O660  1  0.66141051  0.14907972  0.20236525  1
  O  O661  1  0.66295412  0.14738929  0.45244396  1
  O  O662  1  0.66096781  0.14894178  0.70361088  1
  O  O663  1  0.66016401  0.14808022  0.95215096  1
  O  O664  1  0.66367452  0.48019257  0.20139128  1
  O  O665  1  0.66483224  0.48192009  0.45237950  1
  O  O666  1  0.66140086  0.48071575  0.70185549  1
  O  O667  1  0.66356507  0.48296408  0.95256031  1
  O  O668  1  0.66279253  0.81578180  0.20270687  1
  O  O669  1  0.66372081  0.81568766  0.45379742  1
  O  O670  1  0.66009882  0.81553520  0.70266780  1
  O  O671  1  0.65994310  0.81313500  0.95157971  1
