# generated using pymatgen
data_Na2MnFe(PO4)2
_symmetry_space_group_name_H-M   'P 1'
_cell_length_a   21.09025996
_cell_length_b   18.94290951
_cell_length_c   20.04843747
_cell_angle_alpha   90.00002662
_cell_angle_beta   89.99865485
_cell_angle_gamma   90.00256095
_symmetry_Int_Tables_number   1
_chemical_formula_structural   Na2MnFe(PO4)2
_chemical_formula_sum   'Na96 Mn48 Fe48 P96 O384'
_cell_volume   8009.56900680
_cell_formula_units_Z   48
loop_
 _symmetry_equiv_pos_site_id
 _symmetry_equiv_pos_as_xyz
  1  'x, y, z'
loop_
 _atom_site_type_symbol
 _atom_site_label
 _atom_site_symmetry_multiplicity
 _atom_site_fract_x
 _atom_site_fract_y
 _atom_site_fract_z
 _atom_site_occupancy
  Na  Na0  1  -0.00110738  -0.00016078  -0.00023857  1
  Na  Na1  1  0.00059388  -0.00016217  0.24996131  1
  Na  Na2  1  0.00147021  -0.00000452  0.50041105  1
  Na  Na3  1  0.00082602  0.00002591  0.75032007  1
  Na  Na4  1  0.00062773  0.33398772  -0.00080815  1
  Na  Na5  1  -0.00219030  0.33291240  0.25097562  1
  Na  Na6  1  -0.00039137  0.33336543  0.49994053  1
  Na  Na7  1  0.00025872  0.33320704  0.74876470  1
  Na  Na8  1  0.00047942  0.66693962  0.00022579  1
  Na  Na9  1  -0.00242609  0.66646140  0.25009624  1
  Na  Na10  1  0.00019135  0.66723148  0.50010062  1
  Na  Na11  1  0.00130502  0.66623344  0.74960356  1
  Na  Na12  1  0.49891153  -0.00068558  0.00115733  1
  Na  Na13  1  0.50132348  -0.00004537  0.24950605  1
  Na  Na14  1  0.50059651  -0.00039275  0.49950805  1
  Na  Na15  1  0.49779764  -0.00112302  0.74991131  1
  Na  Na16  1  0.50087165  0.33338307  -0.00195656  1
  Na  Na17  1  0.50058719  0.33368806  0.24956750  1
  Na  Na18  1  0.49789611  0.33274004  0.50153045  1
  Na  Na19  1  0.49931887  0.33294701  0.75103465  1
  Na  Na20  1  0.50029997  0.66694265  0.00000482  1
  Na  Na21  1  0.49991117  0.66636232  0.24894007  1
  Na  Na22  1  0.49863664  0.66611926  0.50028421  1
  Na  Na23  1  0.49919180  0.66672626  0.75067257  1
  Na  Na24  1  0.25227250  0.00014666  0.12408667  1
  Na  Na25  1  0.24846171  -0.00135137  0.37465601  1
  Na  Na26  1  0.24948350  -0.00011841  0.62620487  1
  Na  Na27  1  0.24964251  -0.00069639  0.87449942  1
  Na  Na28  1  0.25122811  0.33355800  0.12505011  1
  Na  Na29  1  0.25029195  0.33254129  0.37469636  1
  Na  Na30  1  0.25006683  0.33366546  0.62522676  1
  Na  Na31  1  0.24907135  0.33312719  0.87498135  1
  Na  Na32  1  0.24876949  0.66631969  0.12560661  1
  Na  Na33  1  0.24929568  0.66671903  0.37569056  1
  Na  Na34  1  0.24798012  0.66606663  0.62521881  1
  Na  Na35  1  0.24952573  0.66670801  0.87415627  1
  Na  Na36  1  0.75159287  0.00054803  0.12458548  1
  Na  Na37  1  0.74749049  -0.00204206  0.37474834  1
  Na  Na38  1  0.75059007  0.00064834  0.62600259  1
  Na  Na39  1  0.75079918  0.00010330  0.87508571  1
  Na  Na40  1  0.74980282  0.33315701  0.12399500  1
  Na  Na41  1  0.75267333  0.33459209  0.37566112  1
  Na  Na42  1  0.75144700  0.33361507  0.62459046  1
  Na  Na43  1  0.74936445  0.33276336  0.87600203  1
  Na  Na44  1  0.74979031  0.66627348  0.12408749  1
  Na  Na45  1  0.75227423  0.66784194  0.37613023  1
  Na  Na46  1  0.75125999  0.66666846  0.62515417  1
  Na  Na47  1  0.75155077  0.66687099  0.87440761  1
  Na  Na48  1  -0.00073252  0.16660202  -0.00052016  1
  Na  Na49  1  -0.00187076  0.16727275  0.24987009  1
  Na  Na50  1  -0.00017222  0.16739596  0.50067526  1
  Na  Na51  1  0.00101677  0.16633060  0.74980650  1
  Na  Na52  1  0.00122529  0.49962677  -0.00111640  1
  Na  Na53  1  -0.00203742  0.50086487  0.25101297  1
  Na  Na54  1  -0.00235403  0.50111268  0.50007988  1
  Na  Na55  1  -0.00020688  0.50035769  0.74988098  1
  Na  Na56  1  -0.00085602  0.83364670  0.00045583  1
  Na  Na57  1  -0.00003997  0.83289138  0.25034381  1
  Na  Na58  1  0.00173230  0.83307365  0.49947198  1
  Na  Na59  1  0.00373652  0.83163058  0.74957670  1
  Na  Na60  1  0.50049167  0.16659027  -0.00019257  1
  Na  Na61  1  0.49823438  0.16786224  0.24874505  1
  Na  Na62  1  0.49845263  0.16790705  0.50127634  1
  Na  Na63  1  0.50166220  0.16612937  0.75036125  1
  Na  Na64  1  0.50254492  0.49910461  -0.00102485  1
  Na  Na65  1  0.50079335  0.50016732  0.24920436  1
  Na  Na66  1  0.49822670  0.50061048  0.50086780  1
  Na  Na67  1  0.49627302  0.50197705  0.75085434  1
  Na  Na68  1  0.49688033  0.83453588  0.00046912  1
  Na  Na69  1  0.50182825  0.83230404  0.24995046  1
  Na  Na70  1  0.50031443  0.83312934  0.49926066  1
  Na  Na71  1  0.49888682  0.83328864  0.75048400  1
  Na  Na72  1  0.25211212  0.16644435  0.12558923  1
  Na  Na73  1  0.25169026  0.16656555  0.37431825  1
  Na  Na74  1  0.24904595  0.16744541  0.62558792  1
  Na  Na75  1  0.24967939  0.16707790  0.87454140  1
  Na  Na76  1  0.24891479  0.50087340  0.12442985  1
  Na  Na77  1  0.25098661  0.49987591  0.37516488  1
  Na  Na78  1  0.25002287  0.50050028  0.62556394  1
  Na  Na79  1  0.24849535  0.50100745  0.87453266  1
  Na  Na80  1  0.25106478  0.83276705  0.12492535  1
  Na  Na81  1  0.24704682  0.83379332  0.37514770  1
  Na  Na82  1  0.24733893  0.83375254  0.62579338  1
  Na  Na83  1  0.24942946  0.83366953  0.87454447  1
  Na  Na84  1  0.74891069  0.16737081  0.12447701  1
  Na  Na85  1  0.75122104  0.16614921  0.37556769  1
  Na  Na86  1  0.75063690  0.16698547  0.62538360  1
  Na  Na87  1  0.75056218  0.16608969  0.87468392  1
  Na  Na88  1  0.74966631  0.50076282  0.12397742  1
  Na  Na89  1  0.75302636  0.49947330  0.37555763  1
  Na  Na90  1  0.75382296  0.49952612  0.62510161  1
  Na  Na91  1  0.75205041  0.49962558  0.87499177  1
  Na  Na92  1  0.75148775  0.83265873  0.12447700  1
  Na  Na93  1  0.74939547  0.83273397  0.37508363  1
  Na  Na94  1  0.74805606  0.83347073  0.62546213  1
  Na  Na95  1  0.75090381  0.83260876  0.87522314  1
  Mn  Mn96  1  0.35828187  0.08280683  0.25246109  1
  Mn  Mn97  1  0.89119601  0.24988230  0.12707935  1
  Mn  Mn98  1  0.39284148  0.58301858  0.12633394  1
  Mn  Mn99  1  0.14226142  0.24955446  0.24763712  1
  Mn  Mn100  1  0.14156012  0.58322130  0.24828531  1
  Mn  Mn101  1  0.60714007  0.75077026  0.87337928  1
  Mn  Mn102  1  0.89177049  0.58360282  0.12690997  1
  Mn  Mn103  1  0.10756779  0.41642115  0.12345857  1
  Mn  Mn104  1  0.35731805  0.41672120  0.00232942  1
  Mn  Mn105  1  0.64145913  0.91693689  0.74800261  1
  Mn  Mn106  1  0.60729871  0.41759013  0.62377650  1
  Mn  Mn107  1  0.35747943  0.41679343  0.50253557  1
  Mn  Mn108  1  0.10768849  0.08351174  0.12220045  1
  Mn  Mn109  1  0.85854236  0.75028483  0.75225540  1
  Mn  Mn110  1  0.64276053  0.58250245  0.74790162  1
  Mn  Mn111  1  0.64281330  0.58349054  0.24853934  1
  Mn  Mn112  1  0.14236093  0.25006121  0.99787719  1
  Mn  Mn113  1  0.10679724  0.41710701  0.37268966  1
  Mn  Mn114  1  0.39251730  0.24958265  0.87724844  1
  Mn  Mn115  1  0.10807849  0.08294211  0.62262015  1
  Mn  Mn116  1  0.14272137  0.91666666  0.99815468  1
  Mn  Mn117  1  0.10763613  0.41711989  0.62239126  1
  Mn  Mn118  1  0.64227305  0.25012241  0.24848047  1
  Mn  Mn119  1  0.85750865  0.08326755  0.25279082  1
  Mn  Mn120  1  0.35911027  0.41718594  0.25176958  1
  Mn  Mn121  1  0.89259649  0.91618156  0.62725308  1
  Mn  Mn122  1  0.89316465  0.91638883  0.87672818  1
  Mn  Mn123  1  0.35771690  0.74978113  0.25214047  1
  Mn  Mn124  1  0.60822768  0.74903166  0.37301697  1
  Mn  Mn125  1  0.60760676  0.08413577  0.37293883  1
  Mn  Mn126  1  0.60764966  0.08339572  0.12224864  1
  Mn  Mn127  1  0.89260973  0.25004283  0.62781785  1
  Mn  Mn128  1  0.39231393  0.91643116  0.37731619  1
  Mn  Mn129  1  0.89211462  0.91682514  0.37756392  1
  Mn  Mn130  1  0.35750383  0.08386442  0.75272030  1
  Mn  Mn131  1  0.85793856  0.41643914  0.00193093  1
  Mn  Mn132  1  0.60777070  0.41676431  0.87153113  1
  Mn  Mn133  1  0.10788305  0.08336585  0.37240117  1
  Mn  Mn134  1  0.35746397  0.08266534  0.50232288  1
  Mn  Mn135  1  0.64266532  0.58336219  0.49857028  1
  Mn  Mn136  1  0.35681770  0.74964069  0.75178105  1
  Mn  Mn137  1  0.60815991  0.41678389  0.37346850  1
  Mn  Mn138  1  0.85772106  0.08234263  0.50238959  1
  Mn  Mn139  1  0.10705496  0.75001170  0.12265673  1
  Mn  Mn140  1  0.64211772  0.25022517  0.49801995  1
  Mn  Mn141  1  0.60753483  0.08265279  0.62305379  1
  Mn  Mn142  1  0.64263767  0.91660444  0.99775507  1
  Mn  Mn143  1  0.35653398  0.75030460  0.50225485  1
  Fe  Fe144  1  0.85809755  0.41593892  0.75218161  1
  Fe  Fe145  1  0.10748346  0.08361307  0.87373426  1
  Fe  Fe146  1  0.14229548  0.58367012  0.99781982  1
  Fe  Fe147  1  0.14319208  0.25007053  0.49772012  1
  Fe  Fe148  1  0.89319985  0.25025014  0.87593283  1
  Fe  Fe149  1  0.64381469  0.25035845  0.74859561  1
  Fe  Fe150  1  0.10786177  0.75000438  0.87395437  1
  Fe  Fe151  1  0.39192706  0.91618815  0.62608176  1
  Fe  Fe152  1  0.39376646  0.25030491  0.12584954  1
  Fe  Fe153  1  0.64267315  0.24981026  0.99774783  1
  Fe  Fe154  1  0.89421036  0.58335385  0.87645885  1
  Fe  Fe155  1  0.14270007  0.91688931  0.74835770  1
  Fe  Fe156  1  0.85746017  0.08298844  0.00102569  1
  Fe  Fe157  1  0.64301992  0.91605206  0.24779289  1
  Fe  Fe158  1  0.14231210  0.25032675  0.74850398  1
  Fe  Fe159  1  0.39176005  0.58400653  0.87760920  1
  Fe  Fe160  1  0.85759545  0.08388899  0.75232393  1
  Fe  Fe161  1  0.35627244  0.41689148  0.75163911  1
  Fe  Fe162  1  0.10731588  0.74954784  0.62261344  1
  Fe  Fe163  1  0.60858310  0.41706524  0.12330229  1
  Fe  Fe164  1  0.85799238  0.41688658  0.50217165  1
  Fe  Fe165  1  0.89368516  0.58398833  0.62691539  1
  Fe  Fe166  1  0.14257398  0.58314959  0.74805326  1
  Fe  Fe167  1  0.39145827  0.58374465  0.62682833  1
  Fe  Fe168  1  0.10606160  0.74980025  0.37310854  1
  Fe  Fe169  1  0.35790445  0.08307374  0.00090766  1
  Fe  Fe170  1  0.39234426  0.25076333  0.37702520  1
  Fe  Fe171  1  0.10726242  0.41637902  0.87271388  1
  Fe  Fe172  1  0.39318849  0.91640604  0.12742464  1
  Fe  Fe173  1  0.85806540  0.75029696  0.00131446  1
  Fe  Fe174  1  0.64211893  0.91622118  0.49908724  1
  Fe  Fe175  1  0.14248263  0.91675867  0.24744720  1
  Fe  Fe176  1  0.64324010  0.58358726  0.99755209  1
  Fe  Fe177  1  0.85679554  0.74991439  0.25187926  1
  Fe  Fe178  1  0.85755602  0.75038818  0.50243279  1
  Fe  Fe179  1  0.39190503  0.25009585  0.62777213  1
  Fe  Fe180  1  0.14251105  0.91692368  0.49799618  1
  Fe  Fe181  1  0.14224168  0.58287673  0.49774960  1
  Fe  Fe182  1  0.35680634  0.74988901  0.00174833  1
  Fe  Fe183  1  0.39164111  0.91648085  0.87678602  1
  Fe  Fe184  1  0.89239112  0.25004640  0.37722781  1
  Fe  Fe185  1  0.89236637  0.91675954  0.12714516  1
  Fe  Fe186  1  0.60789534  0.74949265  0.12270391  1
  Fe  Fe187  1  0.85726250  0.41721478  0.25146781  1
  Fe  Fe188  1  0.39219491  0.58308976  0.37675359  1
  Fe  Fe189  1  0.60668449  0.74963953  0.62383347  1
  Fe  Fe190  1  0.89228170  0.58364014  0.37730440  1
  Fe  Fe191  1  0.60749815  0.08263246  0.87382038  1
  P  P192  1  0.05247018  0.25008817  0.10963536  1
  P  P193  1  0.05297790  0.25022370  0.36106205  1
  P  P194  1  0.05546089  0.25019523  0.61023265  1
  P  P195  1  0.05308381  0.24998671  0.85950985  1
  P  P196  1  0.05350778  0.58324875  0.10930585  1
  P  P197  1  0.05245636  0.58418253  0.36147115  1
  P  P198  1  0.05433240  0.58367823  0.61043556  1
  P  P199  1  0.05470587  0.58345061  0.86058483  1
  P  P200  1  0.05282162  0.91662973  0.11077110  1
  P  P201  1  0.05510356  0.91580786  0.36034306  1
  P  P202  1  0.05533831  0.91584653  0.61057164  1
  P  P203  1  0.05460339  0.91665703  0.85995760  1
  P  P204  1  0.55357969  0.25092427  0.10904337  1
  P  P205  1  0.55165799  0.25045373  0.36021777  1
  P  P206  1  0.55327862  0.25059446  0.61204283  1
  P  P207  1  0.55571004  0.24866715  0.86038090  1
  P  P208  1  0.55500870  0.58355454  0.10916944  1
  P  P209  1  0.55197740  0.58310677  0.36018601  1
  P  P210  1  0.55167153  0.58395765  0.61078480  1
  P  P211  1  0.55311151  0.58400453  0.86097444  1
  P  P212  1  0.55395690  0.91540683  0.11111638  1
  P  P213  1  0.55539295  0.91631831  0.36018832  1
  P  P214  1  0.55215608  0.91549979  0.60984057  1
  P  P215  1  0.55155943  0.91740941  0.86066717  1
  P  P216  1  0.44533009  0.08327948  0.13828206  1
  P  P217  1  0.44667727  0.08406521  0.39017089  1
  P  P218  1  0.44594865  0.08297735  0.64008806  1
  P  P219  1  0.44727765  0.08264470  0.89053545  1
  P  P220  1  0.44871377  0.41619314  0.13880869  1
  P  P221  1  0.44666454  0.41701105  0.39030459  1
  P  P222  1  0.44504952  0.41695756  0.64131950  1
  P  P223  1  0.44475402  0.41750582  0.88852756  1
  P  P224  1  0.44664332  0.75022895  0.13857733  1
  P  P225  1  0.44641085  0.74908389  0.38999612  1
  P  P226  1  0.44678441  0.75023259  0.63977152  1
  P  P227  1  0.44495353  0.74999320  0.89053548  1
  P  P228  1  0.94505954  0.08245792  0.13884620  1
  P  P229  1  0.94680861  0.08364492  0.39044925  1
  P  P230  1  0.94617370  0.08302288  0.64100551  1
  P  P231  1  0.94624386  0.08426698  0.88895262  1
  P  P232  1  0.94593512  0.41694129  0.14066506  1
  P  P233  1  0.94423896  0.41687490  0.38955031  1
  P  P234  1  0.94509850  0.41762095  0.63949375  1
  P  P235  1  0.94682488  0.41641096  0.88807958  1
  P  P236  1  0.94430510  0.75088137  0.13955226  1
  P  P237  1  0.94529960  0.74986058  0.38964467  1
  P  P238  1  0.94726208  0.74964456  0.63878959  1
  P  P239  1  0.94806725  0.74912900  0.89010097  1
  P  P240  1  0.19669480  0.08237024  0.23452703  1
  P  P241  1  0.19663459  0.08364108  0.48499258  1
  P  P242  1  0.19493033  0.08356808  0.73668582  1
  P  P243  1  0.19783400  0.08321511  0.98441407  1
  P  P244  1  0.19720334  0.41672532  0.23500761  1
  P  P245  1  0.19620129  0.41678825  0.48499742  1
  P  P246  1  0.19571875  0.41689743  0.73623269  1
  P  P247  1  0.19560052  0.41738380  0.98424973  1
  P  P248  1  0.19479779  0.75048148  0.23618778  1
  P  P249  1  0.19377454  0.74959238  0.48576804  1
  P  P250  1  0.19391126  0.74976949  0.73590160  1
  P  P251  1  0.19706869  0.74966070  0.98462812  1
  P  P252  1  0.69646207  0.08285678  0.23488117  1
  P  P253  1  0.69642555  0.08249862  0.48542805  1
  P  P254  1  0.69667258  0.08424630  0.73664610  1
  P  P255  1  0.69723238  0.08352833  0.98439019  1
  P  P256  1  0.69785142  0.41686045  0.23467959  1
  P  P257  1  0.69830664  0.41728141  0.48565207  1
  P  P258  1  0.69865833  0.41603354  0.73503571  1
  P  P259  1  0.69514613  0.41700727  0.98574271  1
  P  P260  1  0.69722010  0.75001844  0.23429921  1
  P  P261  1  0.69646268  0.75015093  0.48685549  1
  P  P262  1  0.69591264  0.74950074  0.73464477  1
  P  P263  1  0.69719320  0.74945869  0.98579673  1
  P  P264  1  0.30416005  0.24908611  0.01536311  1
  P  P265  1  0.30572696  0.25031754  0.26424676  1
  P  P266  1  0.30382534  0.24997312  0.51485111  1
  P  P267  1  0.30304151  0.25097498  0.76412484  1
  P  P268  1  0.30269717  0.58433089  0.01375252  1
  P  P269  1  0.30388571  0.58354842  0.26562174  1
  P  P270  1  0.30305604  0.58362250  0.51468440  1
  P  P271  1  0.30365294  0.58297787  0.76432748  1
  P  P272  1  0.30557226  0.91641588  0.01416170  1
  P  P273  1  0.30322994  0.91607574  0.26415618  1
  P  P274  1  0.30180186  0.91619334  0.51569669  1
  P  P275  1  0.30369302  0.91630787  0.76418162  1
  P  P276  1  0.80351533  0.24912764  0.01300099  1
  P  P277  1  0.80377427  0.25091972  0.26568231  1
  P  P278  1  0.80484063  0.25035848  0.51439158  1
  P  P279  1  0.80358525  0.25026907  0.76565726  1
  P  P280  1  0.80422978  0.58396585  0.01300983  1
  P  P281  1  0.80411470  0.58373355  0.26546854  1
  P  P282  1  0.80600384  0.58395628  0.51479923  1
  P  P283  1  0.80617098  0.58268149  0.76451157  1
  P  P284  1  0.80473841  0.91671882  0.01494188  1
  P  P285  1  0.80317821  0.91556271  0.26389056  1
  P  P286  1  0.80198402  0.91541940  0.51537547  1
  P  P287  1  0.80327461  0.91706960  0.76513830  1
  O  O288  1  0.05576328  0.24988144  0.18640472  1
  O  O289  1  0.05841077  0.25013213  0.43769211  1
  O  O290  1  0.05984154  0.25034658  0.68701736  1
  O  O291  1  0.05640084  0.25008238  0.93620524  1
  O  O292  1  0.05619863  0.58354831  0.18612503  1
  O  O293  1  0.05735320  0.58326067  0.43808985  1
  O  O294  1  0.05896863  0.58262126  0.68714156  1
  O  O295  1  0.05887371  0.58357004  0.93730430  1
  O  O296  1  0.05778095  0.91660734  0.18740824  1
  O  O297  1  0.05932201  0.91692861  0.43714019  1
  O  O298  1  0.05926541  0.91674268  0.68732718  1
  O  O299  1  0.05693170  0.91688012  0.93676295  1
  O  O300  1  0.55693822  0.25024525  0.18578145  1
  O  O301  1  0.55563096  0.25041317  0.43694506  1
  O  O302  1  0.55915888  0.25071797  0.68861979  1
  O  O303  1  0.55985757  0.24957168  0.93714677  1
  O  O304  1  0.55776257  0.58364204  0.18596045  1
  O  O305  1  0.55612953  0.58328483  0.43684489  1
  O  O306  1  0.55591846  0.58323268  0.68742331  1
  O  O307  1  0.55888108  0.58370816  0.93753296  1
  O  O308  1  0.55913880  0.91576089  0.18776217  1
  O  O309  1  0.55959553  0.91610153  0.43698842  1
  O  O310  1  0.55568818  0.91630658  0.68658947  1
  O  O311  1  0.55577593  0.91686250  0.93730359  1
  O  O312  1  0.44162398  0.08302992  0.06157739  1
  O  O313  1  0.44418948  0.08297823  0.31334128  1
  O  O314  1  0.44312157  0.08330610  0.56333901  1
  O  O315  1  0.44346601  0.08344116  0.81380745  1
  O  O316  1  0.44456738  0.41679457  0.06215933  1
  O  O317  1  0.44462943  0.41711522  0.31349284  1
  O  O318  1  0.44243210  0.41677468  0.56454211  1
  O  O319  1  0.43991296  0.41704887  0.81186701  1
  O  O320  1  0.44136138  0.74975704  0.06199845  1
  O  O321  1  0.44358178  0.74984203  0.31322166  1
  O  O322  1  0.44314340  0.75017290  0.56313495  1
  O  O323  1  0.44210566  0.74971954  0.81374148  1
  O  O324  1  0.94096390  0.08312173  0.06206218  1
  O  O325  1  0.94353954  0.08283255  0.31364959  1
  O  O326  1  0.94287216  0.08301676  0.56423443  1
  O  O327  1  0.94148736  0.08362200  0.81227814  1
  O  O328  1  0.94325712  0.41704223  0.06377506  1
  O  O329  1  0.94057100  0.41693593  0.31277307  1
  O  O330  1  0.94123714  0.41662068  0.56272216  1
  O  O331  1  0.94239537  0.41614123  0.81142529  1
  O  O332  1  0.94052280  0.75010404  0.06273658  1
  O  O333  1  0.94060940  0.75047300  0.31294778  1
  O  O334  1  0.94235802  0.75083388  0.56217645  1
  O  O335  1  0.94473838  0.74965077  0.81339372  1
  O  O336  1  0.19408568  0.08318927  0.06111634  1
  O  O337  1  0.19341284  0.08313086  0.31130047  1
  O  O338  1  0.19409403  0.08368092  0.56179629  1
  O  O339  1  0.19102577  0.08362859  0.81341607  1
  O  O340  1  0.19290012  0.41668061  0.06101855  1
  O  O341  1  0.19341370  0.41658369  0.31174405  1
  O  O342  1  0.19358322  0.41722623  0.56181017  1
  O  O343  1  0.19106571  0.41670121  0.81288937  1
  O  O344  1  0.19334094  0.75007401  0.06134401  1
  O  O345  1  0.19048927  0.74967129  0.31290469  1
  O  O346  1  0.19059399  0.74936644  0.56265646  1
  O  O347  1  0.19058204  0.74969937  0.81269041  1
  O  O348  1  0.69336004  0.08311242  0.06109472  1
  O  O349  1  0.69343312  0.08335379  0.31165306  1
  O  O350  1  0.69348274  0.08354458  0.56226010  1
  O  O351  1  0.69169655  0.08276666  0.81324591  1
  O  O352  1  0.69148970  0.41693243  0.06250946  1
  O  O353  1  0.69431603  0.41693366  0.31142395  1
  O  O354  1  0.69379690  0.41740223  0.56227624  1
  O  O355  1  0.69439248  0.41699549  0.81174066  1
  O  O356  1  0.69224254  0.74995445  0.06241178  1
  O  O357  1  0.69374666  0.74939601  0.31106874  1
  O  O358  1  0.69097764  0.74922282  0.56343307  1
  O  O359  1  0.69252187  0.74952325  0.81143767  1
  O  O360  1  0.31053375  0.25074141  0.18753353  1
  O  O361  1  0.30875716  0.25006433  0.43814327  1
  O  O362  1  0.30783722  0.25020253  0.68744621  1
  O  O363  1  0.30685549  0.24992859  0.93854357  1
  O  O364  1  0.30752448  0.58362352  0.18882398  1
  O  O365  1  0.30824204  0.58364107  0.43807867  1
  O  O366  1  0.30834287  0.58390126  0.68759145  1
  O  O367  1  0.30736206  0.58377908  0.93707214  1
  O  O368  1  0.30880887  0.91593019  0.18749623  1
  O  O369  1  0.30609816  0.91589386  0.43902322  1
  O  O370  1  0.30859829  0.91620663  0.68753752  1
  O  O371  1  0.30877854  0.91659363  0.93727543  1
  O  O372  1  0.80595795  0.24994730  0.18881968  1
  O  O373  1  0.80891969  0.24972576  0.43764183  1
  O  O374  1  0.80688313  0.25022160  0.68899027  1
  O  O375  1  0.80883181  0.24988914  0.93643814  1
  O  O376  1  0.80613787  0.58360452  0.18865359  1
  O  O377  1  0.80945765  0.58421317  0.43797298  1
  O  O378  1  0.81024478  0.58385532  0.68774818  1
  O  O379  1  0.80964560  0.58351491  0.93640584  1
  O  O380  1  0.80795127  0.91649525  0.18728595  1
  O  O381  1  0.80569574  0.91564758  0.43867108  1
  O  O382  1  0.80649684  0.91640000  0.68843340  1
  O  O383  1  0.80777619  0.91637309  0.93814980  1
  O  O384  1  0.23449249  0.24986318  0.04057622  1
  O  O385  1  0.23552814  0.24963510  0.28787242  1
  O  O386  1  0.23341762  0.25054743  0.53829083  1
  O  O387  1  0.23271433  0.25037291  0.78784596  1
  O  O388  1  0.23241726  0.58382007  0.03762102  1
  O  O389  1  0.23403936  0.58339508  0.29017771  1
  O  O390  1  0.23258931  0.58341053  0.53793338  1
  O  O391  1  0.23308985  0.58371837  0.78741876  1
  O  O392  1  0.23560469  0.91621888  0.03878719  1
  O  O393  1  0.23287672  0.91629677  0.28743907  1
  O  O394  1  0.23157365  0.91650291  0.53955994  1
  O  O395  1  0.23322646  0.91636345  0.78746968  1
  O  O396  1  0.73312471  0.24981208  0.03661083  1
  O  O397  1  0.73427175  0.25030688  0.29148436  1
  O  O398  1  0.73492310  0.25022072  0.53890457  1
  O  O399  1  0.73355997  0.25010007  0.79036976  1
  O  O400  1  0.73390873  0.58356069  0.03660402  1
  O  O401  1  0.73468823  0.58380995  0.29158711  1
  O  O402  1  0.73606039  0.58346811  0.53944026  1
  O  O403  1  0.73608154  0.58323254  0.78861586  1
  O  O404  1  0.73495009  0.91683448  0.03989000  1
  O  O405  1  0.73288347  0.91544364  0.28770164  1
  O  O406  1  0.73204417  0.91630302  0.54025385  1
  O  O407  1  0.73358684  0.91637219  0.79031666  1
  O  O408  1  0.26645020  0.08275901  0.20980722  1
  O  O409  1  0.26607492  0.08280784  0.45912919  1
  O  O410  1  0.26484421  0.08361678  0.71215064  1
  O  O411  1  0.26789961  0.08305945  0.95992046  1
  O  O412  1  0.26690060  0.41738889  0.21000975  1
  O  O413  1  0.26576308  0.41649732  0.45963489  1
  O  O414  1  0.26592992  0.41721399  0.71214548  1
  O  O415  1  0.26532500  0.41692416  0.95912770  1
  O  O416  1  0.26473619  0.74986684  0.21178822  1
  O  O417  1  0.26368019  0.75004183  0.46108676  1
  O  O418  1  0.26388649  0.74964629  0.71127801  1
  O  O419  1  0.26706531  0.75031783  0.96000465  1
  O  O420  1  0.76610199  0.08368252  0.20969071  1
  O  O421  1  0.76596445  0.08206053  0.45993460  1
  O  O422  1  0.76705439  0.08426672  0.71295486  1
  O  O423  1  0.76743392  0.08278019  0.96025457  1
  O  O424  1  0.76782349  0.41709505  0.20986466  1
  O  O425  1  0.76854287  0.41738416  0.46189026  1
  O  O426  1  0.76878241  0.41623032  0.71096510  1
  O  O427  1  0.76516765  0.41666452  0.96132895  1
  O  O428  1  0.76732304  0.74947879  0.20993334  1
  O  O429  1  0.76684381  0.75000662  0.46333980  1
  O  O430  1  0.76585949  0.74998894  0.71030740  1
  O  O431  1  0.76759155  0.75002456  0.96208680  1
  O  O432  1  0.01492871  0.08306896  0.16339420  1
  O  O433  1  0.01643938  0.08361132  0.41559286  1
  O  O434  1  0.01608659  0.08297326  0.66527660  1
  O  O435  1  0.01670474  0.08354935  0.91255463  1
  O  O436  1  0.01538410  0.41693164  0.16627908  1
  O  O437  1  0.01419925  0.41721689  0.41414482  1
  O  O438  1  0.01519444  0.41693190  0.66343348  1
  O  O439  1  0.01715753  0.41671732  0.91192532  1
  O  O440  1  0.01429571  0.74982140  0.16376915  1
  O  O441  1  0.01571363  0.75031396  0.41313371  1
  O  O442  1  0.01758551  0.74903006  0.66244222  1
  O  O443  1  0.01815837  0.75011034  0.91473757  1
  O  O444  1  0.51523403  0.08342665  0.16297020  1
  O  O445  1  0.51605277  0.08403592  0.41612629  1
  O  O446  1  0.51558515  0.08266211  0.66546588  1
  O  O447  1  0.51728737  0.08304773  0.91515824  1
  O  O448  1  0.51874863  0.41702002  0.16342255  1
  O  O449  1  0.51592582  0.41674006  0.41681502  1
  O  O450  1  0.51470563  0.41734022  0.66683902  1
  O  O451  1  0.51503715  0.41661663  0.91182954  1
  O  O452  1  0.51702283  0.74945783  0.16213536  1
  O  O453  1  0.51603192  0.74945300  0.41524766  1
  O  O454  1  0.51664808  0.75000257  0.66497038  1
  O  O455  1  0.51469283  0.75042304  0.91563901  1
  O  O456  1  0.48353688  0.25007926  0.08427340  1
  O  O457  1  0.48176556  0.25082271  0.33549442  1
  O  O458  1  0.48260967  0.25047333  0.58939981  1
  O  O459  1  0.48548953  0.24956749  0.83672004  1
  O  O460  1  0.48523609  0.58322154  0.08401754  1
  O  O461  1  0.48208792  0.58318748  0.33535789  1
  O  O462  1  0.48142689  0.58349279  0.58671491  1
  O  O463  1  0.48251885  0.58435733  0.83819167  1
  O  O464  1  0.48350173  0.91631112  0.08786281  1
  O  O465  1  0.48528206  0.91603921  0.33623831  1
  O  O466  1  0.48208935  0.91626114  0.58513531  1
  O  O467  1  0.48140621  0.91649016  0.83640848  1
  O  O468  1  0.98286615  0.25028844  0.08443988  1
  O  O469  1  0.98252254  0.25031341  0.33784138  1
  O  O470  1  0.98524328  0.25036019  0.58689762  1
  O  O471  1  0.98303234  0.24996583  0.83468811  1
  O  O472  1  0.98383226  0.58335277  0.08420733  1
  O  O473  1  0.98210136  0.58381200  0.33785537  1
  O  O474  1  0.98393355  0.58375098  0.58697848  1
  O  O475  1  0.98435739  0.58311239  0.83659936  1
  O  O476  1  0.98262262  0.91646206  0.08694781  1
  O  O477  1  0.98495938  0.91628845  0.33654141  1
  O  O478  1  0.98537513  0.91669148  0.58615075  1
  O  O479  1  0.98497852  0.91605519  0.83436422  1
  O  O480  1  0.08668035  0.31514108  0.07743135  1
  O  O481  1  0.08607438  0.31525500  0.32754626  1
  O  O482  1  0.08897171  0.31508918  0.57692600  1
  O  O483  1  0.08707916  0.31494966  0.82660002  1
  O  O484  1  0.08785612  0.64817313  0.07675495  1
  O  O485  1  0.08539005  0.64945176  0.32829249  1
  O  O486  1  0.08783354  0.64863086  0.57742708  1
  O  O487  1  0.08786715  0.64863970  0.82743416  1
  O  O488  1  0.08623037  0.98151230  0.07728928  1
  O  O489  1  0.08904870  0.98043542  0.32675567  1
  O  O490  1  0.08949805  0.98051761  0.57727213  1
  O  O491  1  0.08858528  0.98185523  0.82763134  1
  O  O492  1  0.58730338  0.31610001  0.07664461  1
  O  O493  1  0.58590474  0.31535876  0.32768723  1
  O  O494  1  0.58603993  0.31567763  0.57818702  1
  O  O495  1  0.58973943  0.31330877  0.82681782  1
  O  O496  1  0.58900614  0.64878663  0.07669121  1
  O  O497  1  0.58592327  0.64805679  0.32730558  1
  O  O498  1  0.58514763  0.64914800  0.57802753  1
  O  O499  1  0.58634553  0.64895397  0.82766887  1
  O  O500  1  0.58732709  0.98036349  0.07762943  1
  O  O501  1  0.58885507  0.98143711  0.32715104  1
  O  O502  1  0.58662221  0.98023952  0.57709942  1
  O  O503  1  0.58486577  0.98266817  0.82781997  1
  O  O504  1  0.41184921  0.01813902  0.17149066  1
  O  O505  1  0.41247383  0.01889093  0.42248864  1
  O  O506  1  0.41164826  0.01774418  0.67191832  1
  O  O507  1  0.41320857  0.01760734  0.92285571  1
  O  O508  1  0.41530077  0.35095007  0.17143089  1
  O  O509  1  0.41195668  0.35199223  0.42222000  1
  O  O510  1  0.41075316  0.35189377  0.67368183  1
  O  O511  1  0.41137042  0.35247729  0.92177985  1
  O  O512  1  0.41306439  0.68526895  0.17184285  1
  O  O513  1  0.41228068  0.68391042  0.42206304  1
  O  O514  1  0.41256931  0.68530411  0.67246349  1
  O  O515  1  0.41088445  0.68492065  0.92314324  1
  O  O516  1  0.91172113  0.01716033  0.17175929  1
  O  O517  1  0.91299891  0.01837159  0.42298744  1
  O  O518  1  0.91198420  0.01817625  0.67361028  1
  O  O519  1  0.91259092  0.01941256  0.92239471  1
  O  O520  1  0.91130320  0.35207086  0.17272961  1
  O  O521  1  0.91075444  0.35170747  0.42256855  1
  O  O522  1  0.91118948  0.35290853  0.67297824  1
  O  O523  1  0.91364031  0.35131013  0.92146746  1
  O  O524  1  0.91012143  0.68617335  0.17267152  1
  O  O525  1  0.91212758  0.68479309  0.42291284  1
  O  O526  1  0.91376609  0.68464001  0.67180166  1
  O  O527  1  0.91452357  0.68389084  0.92271497  1
  O  O528  1  0.16290843  0.01711103  0.20218924  1
  O  O529  1  0.16194784  0.01866240  0.45313469  1
  O  O530  1  0.16156146  0.01825977  0.70381169  1
  O  O531  1  0.16366046  0.01831182  0.95180434  1
  O  O532  1  0.16357959  0.35149609  0.20239288  1
  O  O533  1  0.16191363  0.35165493  0.45298694  1
  O  O534  1  0.16249649  0.35188135  0.70291039  1
  O  O535  1  0.16113697  0.35250575  0.95160950  1
  O  O536  1  0.16098053  0.68558586  0.20304432  1
  O  O537  1  0.16012092  0.68440382  0.45291644  1
  O  O538  1  0.16016348  0.68471799  0.70293093  1
  O  O539  1  0.16318536  0.68467200  0.95186896  1
  O  O540  1  0.66285135  0.01755029  0.20248558  1
  O  O541  1  0.66197083  0.01736729  0.45388812  1
  O  O542  1  0.66332690  0.01934843  0.70289359  1
  O  O543  1  0.66309186  0.01861395  0.95148447  1
  O  O544  1  0.66388732  0.35179906  0.20205289  1
  O  O545  1  0.66486126  0.35218182  0.45262428  1
  O  O546  1  0.66494191  0.35087444  0.70265593  1
  O  O547  1  0.66139798  0.35195983  0.95298354  1
  O  O548  1  0.66310100  0.68510816  0.20154186  1
  O  O549  1  0.66351216  0.68512272  0.45286813  1
  O  O550  1  0.66223400  0.68436654  0.70185956  1
  O  O551  1  0.66406441  0.68444469  0.95241541  1
  O  O552  1  0.33886216  0.31384989  0.04795017  1
  O  O553  1  0.33880555  0.31543975  0.29778795  1
  O  O554  1  0.33747941  0.31480221  0.54825016  1
  O  O555  1  0.33605307  0.31609339  0.79726018  1
  O  O556  1  0.33585069  0.64949181  0.04691536  1
  O  O557  1  0.33776749  0.64849228  0.29847509  1
  O  O558  1  0.33614131  0.64865164  0.54838893  1
  O  O559  1  0.33717381  0.64780986  0.79788732  1
  O  O560  1  0.33928809  0.98154477  0.04684594  1
  O  O561  1  0.33651665  0.98107566  0.29758775  1
  O  O562  1  0.33577687  0.98103450  0.54858169  1
  O  O563  1  0.33708746  0.98114582  0.79779424  1
  O  O564  1  0.83686151  0.31403332  0.04663730  1
  O  O565  1  0.83791287  0.31632267  0.29719671  1
  O  O566  1  0.83850373  0.31554717  0.54701979  1
  O  O567  1  0.83753841  0.31531750  0.79843214  1
  O  O568  1  0.83728721  0.64903706  0.04638167  1
  O  O569  1  0.83860380  0.64885231  0.29751763  1
  O  O570  1  0.83962559  0.64913816  0.54774463  1
  O  O571  1  0.84021542  0.64740744  0.79788649  1
  O  O572  1  0.83881253  0.98194391  0.04712343  1
  O  O573  1  0.83631731  0.98049932  0.29772778  1
  O  O574  1  0.83636920  0.98023939  0.54788612  1
  O  O575  1  0.83713555  0.98229216  0.79733882  1
  O  O576  1  0.41179283  0.14862160  0.17070332  1
  O  O577  1  0.41227459  0.14924414  0.42178582  1
  O  O578  1  0.41198139  0.14806568  0.67278234  1
  O  O579  1  0.41309072  0.14754145  0.92332245  1
  O  O580  1  0.41457311  0.48103354  0.17170335  1
  O  O581  1  0.41220107  0.48219937  0.42224285  1
  O  O582  1  0.41038636  0.48206666  0.67313124  1
  O  O583  1  0.41195293  0.48280813  0.92185027  1
  O  O584  1  0.41370434  0.81542460  0.17211905  1
  O  O585  1  0.41211324  0.81402092  0.42258777  1
  O  O586  1  0.41289629  0.81538464  0.67232705  1
  O  O587  1  0.41057717  0.81499552  0.92263558  1
  O  O588  1  0.91112065  0.14733845  0.17184374  1
  O  O589  1  0.91260087  0.14866869  0.42247499  1
  O  O590  1  0.91234355  0.14814511  0.67366724  1
  O  O591  1  0.91312526  0.14948061  0.92209611  1
  O  O592  1  0.91149872  0.48193558  0.17283075  1
  O  O593  1  0.91037991  0.48188804  0.42244271  1
  O  O594  1  0.91197864  0.48296403  0.67214515  1
  O  O595  1  0.91342497  0.48144721  0.92131380  1
  O  O596  1  0.91114541  0.81617536  0.17247669  1
  O  O597  1  0.91188540  0.81473253  0.42339072  1
  O  O598  1  0.91453511  0.81464352  0.67280583  1
  O  O599  1  0.91349732  0.81378963  0.92283106  1
  O  O600  1  0.08648404  0.18510948  0.07696066  1
  O  O601  1  0.08602162  0.18522692  0.32736307  1
  O  O602  1  0.08882081  0.18512150  0.57708734  1
  O  O603  1  0.08715943  0.18490393  0.82709311  1
  O  O604  1  0.08778964  0.51831225  0.07701541  1
  O  O605  1  0.08579409  0.51939006  0.32772469  1
  O  O606  1  0.08745042  0.51875571  0.57655564  1
  O  O607  1  0.08822607  0.51851049  0.82716573  1
  O  O608  1  0.08629445  0.85163053  0.07752180  1
  O  O609  1  0.08828624  0.85037246  0.32768560  1
  O  O610  1  0.08854154  0.85046404  0.57792601  1
  O  O611  1  0.08919739  0.85169921  0.82797095  1
  O  O612  1  0.58792305  0.18606287  0.07621930  1
  O  O613  1  0.58523763  0.18537763  0.32727669  1
  O  O614  1  0.58620608  0.18549609  0.57842188  1
  O  O615  1  0.58867970  0.18315475  0.82784486  1
  O  O616  1  0.58944272  0.51865084  0.07687275  1
  O  O617  1  0.58597548  0.51809694  0.32760412  1
  O  O618  1  0.58549591  0.51905865  0.57766602  1
  O  O619  1  0.58591562  0.51892369  0.82701077  1
  O  O620  1  0.58666199  0.85024218  0.07750019  1
  O  O621  1  0.58926918  0.85139135  0.32711734  1
  O  O622  1  0.58586945  0.85020807  0.57747903  1
  O  O623  1  0.58558662  0.85261365  0.82772293  1
  O  O624  1  0.33807847  0.18371963  0.04714424  1
  O  O625  1  0.33950591  0.18545868  0.29744574  1
  O  O626  1  0.33686789  0.18483306  0.54829534  1
  O  O627  1  0.33664294  0.18612004  0.79756490  1
  O  O628  1  0.33624560  0.51938216  0.04712536  1
  O  O629  1  0.33817970  0.51863730  0.29815426  1
  O  O630  1  0.33652587  0.51877271  0.54818353  1
  O  O631  1  0.33656362  0.51787048  0.79765580  1
  O  O632  1  0.33937775  0.85132312  0.04698706  1
  O  O633  1  0.33619105  0.85108363  0.29783765  1
  O  O634  1  0.33523881  0.85117801  0.54896076  1
  O  O635  1  0.33681313  0.85126431  0.79762062  1
  O  O636  1  0.83626723  0.18380768  0.04622734  1
  O  O637  1  0.83868135  0.18627646  0.29821294  1
  O  O638  1  0.83844365  0.18537696  0.54758243  1
  O  O639  1  0.83777027  0.18535603  0.79831307  1
  O  O640  1  0.83739839  0.51891529  0.04658045  1
  O  O641  1  0.83862092  0.51872631  0.29750392  1
  O  O642  1  0.84020574  0.51904040  0.54737070  1
  O  O643  1  0.83957243  0.51731459  0.79711428  1
  O  O644  1  0.83888635  0.85174825  0.04746095  1
  O  O645  1  0.83648407  0.85038199  0.29690983  1
  O  O646  1  0.83564890  0.85025913  0.54814510  1
  O  O647  1  0.83769847  0.85215438  0.79760149  1
  O  O648  1  0.16263925  0.14741158  0.20194941  1
  O  O649  1  0.16300282  0.14910982  0.45271014  1
  O  O650  1  0.16132960  0.14856928  0.70369539  1
  O  O651  1  0.16374247  0.14817751  0.95176836  1
  O  O652  1  0.16281056  0.48169316  0.20279315  1
  O  O653  1  0.16215855  0.48200661  0.45266184  1
  O  O654  1  0.16236762  0.48207386  0.70309609  1
  O  O655  1  0.16154535  0.48252424  0.95200240  1
  O  O656  1  0.16153434  0.81575273  0.20314017  1
  O  O657  1  0.15970750  0.81459985  0.45325162  1
  O  O658  1  0.16024372  0.81491835  0.70319456  1
  O  O659  1  0.16285847  0.81454468  0.95188859  1
  O  O660  1  0.66204225  0.14785219  0.20260313  1
  O  O661  1  0.66265931  0.14776429  0.45282471  1
  O  O662  1  0.66349388  0.14953578  0.70372235  1
  O  O663  1  0.66357743  0.14853883  0.95166851  1
  O  O664  1  0.66371065  0.48179307  0.20205546  1
  O  O665  1  0.66488374  0.48230698  0.45251588  1
  O  O666  1  0.66500314  0.48108096  0.70197956  1
  O  O667  1  0.66187684  0.48222067  0.95260663  1
  O  O668  1  0.66339704  0.81499342  0.20149733  1
  O  O669  1  0.66328364  0.81529302  0.45372566  1
  O  O670  1  0.66133452  0.81431569  0.70227514  1
  O  O671  1  0.66382143  0.81455726  0.95247814  1
