# generated using pymatgen
data_Na2MnFe(PO4)2
_symmetry_space_group_name_H-M   'P 1'
_cell_length_a   21.08751132
_cell_length_b   18.93995418
_cell_length_c   20.04644456
_cell_angle_alpha   89.99995089
_cell_angle_beta   90.00134483
_cell_angle_gamma   90.00042708
_symmetry_Int_Tables_number   1
_chemical_formula_structural   Na2MnFe(PO4)2
_chemical_formula_sum   'Na96 Mn48 Fe48 P96 O384'
_cell_volume   8006.47975320
_cell_formula_units_Z   48
loop_
 _symmetry_equiv_pos_site_id
 _symmetry_equiv_pos_as_xyz
  1  'x, y, z'
loop_
 _atom_site_type_symbol
 _atom_site_label
 _atom_site_symmetry_multiplicity
 _atom_site_fract_x
 _atom_site_fract_y
 _atom_site_fract_z
 _atom_site_occupancy
  Na  Na0  1  -0.00100010  -0.00099061  0.00032295  1
  Na  Na1  1  0.00055901  0.00004687  0.24925292  1
  Na  Na2  1  -0.00167165  -0.00037899  0.49977040  1
  Na  Na3  1  -0.00049150  0.00024467  0.75043488  1
  Na  Na4  1  0.00277873  0.33356034  0.00064451  1
  Na  Na5  1  0.00266297  0.33342262  0.24998502  1
  Na  Na6  1  0.00022376  0.33251402  0.49972339  1
  Na  Na7  1  -0.00028779  0.33241361  0.75036706  1
  Na  Na8  1  -0.00047369  0.66744976  0.00082985  1
  Na  Na9  1  0.00127166  0.66787895  0.25013180  1
  Na  Na10  1  0.00090679  0.66762585  0.49951391  1
  Na  Na11  1  -0.00170126  0.66684027  0.74874218  1
  Na  Na12  1  0.50259680  0.00008442  -0.00040348  1
  Na  Na13  1  0.50256651  0.00041586  0.25031429  1
  Na  Na14  1  0.49980364  -0.00088435  0.50051095  1
  Na  Na15  1  0.50036828  -0.00048466  0.74975260  1
  Na  Na16  1  0.49886598  0.33249754  -0.00146962  1
  Na  Na17  1  0.49942411  0.33315612  0.25133132  1
  Na  Na18  1  0.49984841  0.33341869  0.50053654  1
  Na  Na19  1  0.50075184  0.33395226  0.74961870  1
  Na  Na20  1  0.49899797  0.66683160  0.00139322  1
  Na  Na21  1  0.49981741  0.66651159  0.24957569  1
  Na  Na22  1  0.49995353  0.66617747  0.49944758  1
  Na  Na23  1  0.50110337  0.66791730  0.74993426  1
  Na  Na24  1  0.24898804  -0.00140831  0.12419811  1
  Na  Na25  1  0.25159908  0.00010654  0.37626229  1
  Na  Na26  1  0.25244868  0.00007336  0.62462941  1
  Na  Na27  1  0.25104905  -0.00019188  0.87409057  1
  Na  Na28  1  0.24797050  0.33233971  0.12473336  1
  Na  Na29  1  0.25015399  0.33328046  0.37517869  1
  Na  Na30  1  0.25231862  0.33417033  0.62566371  1
  Na  Na31  1  0.24976015  0.33286538  0.87450014  1
  Na  Na32  1  0.24797990  0.66735934  0.12548551  1
  Na  Na33  1  0.24774182  0.66614284  0.37501048  1
  Na  Na34  1  0.24871401  0.66643756  0.62472051  1
  Na  Na35  1  0.24911581  0.66751876  0.87482468  1
  Na  Na36  1  0.74793480  -0.00050926  0.12561749  1
  Na  Na37  1  0.74820028  -0.00033289  0.37383521  1
  Na  Na38  1  0.74935236  0.00031447  0.62560458  1
  Na  Na39  1  0.74904510  -0.00033300  0.87501228  1
  Na  Na40  1  0.75053171  0.33371737  0.12516192  1
  Na  Na41  1  0.74749179  0.33272606  0.37563109  1
  Na  Na42  1  0.74877225  0.33255963  0.62453564  1
  Na  Na43  1  0.74981300  0.33276910  0.87437266  1
  Na  Na44  1  0.75117582  0.66742664  0.12474957  1
  Na  Na45  1  0.75056297  0.66714384  0.37529020  1
  Na  Na46  1  0.75076186  0.66739109  0.62571581  1
  Na  Na47  1  0.75124118  0.66780669  0.87476105  1
  Na  Na48  1  -0.00117587  0.16724244  0.00099567  1
  Na  Na49  1  0.00071094  0.16589089  0.24890660  1
  Na  Na50  1  -0.00092612  0.16636016  0.49989846  1
  Na  Na51  1  -0.00182595  0.16686601  0.75024361  1
  Na  Na52  1  0.00202736  0.49973825  0.00073612  1
  Na  Na53  1  0.00291247  0.49972644  0.25097640  1
  Na  Na54  1  0.00178143  0.49950371  0.49963060  1
  Na  Na55  1  0.00225217  0.49867748  0.74967609  1
  Na  Na56  1  0.00055655  0.83276159  -0.00012892  1
  Na  Na57  1  0.00086551  0.83291462  0.24937770  1
  Na  Na58  1  -0.00082883  0.83337110  0.49967864  1
  Na  Na59  1  -0.00142944  0.83345948  0.74990752  1
  Na  Na60  1  0.50142339  0.16539829  -0.00155573  1
  Na  Na61  1  0.50084963  0.16642213  0.25124532  1
  Na  Na62  1  0.49969388  0.16677290  0.50094599  1
  Na  Na63  1  0.50015137  0.16645059  0.74891054  1
  Na  Na64  1  0.50027589  0.49944273  0.00011494  1
  Na  Na65  1  0.50032760  0.50005700  0.24995175  1
  Na  Na66  1  0.50171903  0.49920338  0.49987647  1
  Na  Na67  1  0.49974034  0.50019800  0.74957272  1
  Na  Na68  1  0.50086651  0.83389020  0.00117631  1
  Na  Na69  1  0.49982730  0.83408645  0.24976460  1
  Na  Na70  1  0.49934838  0.83426236  0.49997577  1
  Na  Na71  1  0.50042094  0.83414885  0.75041461  1
  Na  Na72  1  0.24878422  0.16696696  0.12507868  1
  Na  Na73  1  0.25008806  0.16660268  0.37518111  1
  Na  Na74  1  0.25268790  0.16542191  0.62479747  1
  Na  Na75  1  0.25008551  0.16657191  0.87377393  1
  Na  Na76  1  0.24803230  0.50076727  0.12437532  1
  Na  Na77  1  0.25015690  0.49991125  0.37596215  1
  Na  Na78  1  0.24940572  0.49987793  0.62492751  1
  Na  Na79  1  0.24917831  0.49923067  0.87532109  1
  Na  Na80  1  0.24817118  0.83380424  0.12487138  1
  Na  Na81  1  0.24906710  0.83387883  0.37540221  1
  Na  Na82  1  0.25182519  0.83326805  0.62521617  1
  Na  Na83  1  0.25012494  0.83388367  0.87441697  1
  Na  Na84  1  0.75022327  0.16597185  0.12499619  1
  Na  Na85  1  0.74889419  0.16659833  0.37457398  1
  Na  Na86  1  0.74984012  0.16679584  0.62608730  1
  Na  Na87  1  0.75001453  0.16694576  0.87522778  1
  Na  Na88  1  0.74838220  0.50085533  0.12539136  1
  Na  Na89  1  0.74717989  0.50029584  0.37553871  1
  Na  Na90  1  0.74702669  0.50056803  0.62418312  1
  Na  Na91  1  0.74997239  0.50001259  0.87460315  1
  Na  Na92  1  0.75080433  0.83305378  0.12494320  1
  Na  Na93  1  0.74973721  0.83421890  0.37456803  1
  Na  Na94  1  0.75165932  0.83307335  0.62553704  1
  Na  Na95  1  0.74921931  0.83430749  0.87434789  1
  Mn  Mn96  1  0.39224759  0.24993244  0.37775310  1
  Mn  Mn97  1  0.85791648  0.41737736  0.25248205  1
  Mn  Mn98  1  0.10791332  0.08275062  0.12214187  1
  Mn  Mn99  1  0.89270915  0.58321832  0.12797476  1
  Mn  Mn100  1  0.35765968  0.74977736  0.50185826  1
  Mn  Mn101  1  0.64228561  0.24995430  0.99769106  1
  Mn  Mn102  1  0.85681346  0.08318148  0.25214231  1
  Mn  Mn103  1  0.60757611  0.41552811  0.12252740  1
  Mn  Mn104  1  0.39247103  0.91757658  0.12706865  1
  Mn  Mn105  1  0.35682958  0.41692493  0.00233111  1
  Mn  Mn106  1  0.85743614  0.08329865  0.75232626  1
  Mn  Mn107  1  0.39157962  0.58271637  0.12757461  1
  Mn  Mn108  1  0.85888030  0.41691423  0.00263941  1
  Mn  Mn109  1  0.89217588  0.58247058  0.62628645  1
  Mn  Mn110  1  0.14191912  0.58332564  0.74756997  1
  Mn  Mn111  1  0.89308506  0.25029749  0.12744775  1
  Mn  Mn112  1  0.85678611  0.41642640  0.50244800  1
  Mn  Mn113  1  0.60747787  0.08376435  0.62235926  1
  Mn  Mn114  1  0.89249453  0.58289971  0.37724240  1
  Mn  Mn115  1  0.35656209  0.75001735  0.25222417  1
  Mn  Mn116  1  0.39224064  0.58353403  0.62720281  1
  Mn  Mn117  1  0.60822140  0.75029792  0.12256824  1
  Mn  Mn118  1  0.39277208  0.24922749  0.87692558  1
  Mn  Mn119  1  0.35814634  0.08274668  0.25188423  1
  Mn  Mn120  1  0.14296307  0.24980921  0.49882705  1
  Mn  Mn121  1  0.60793917  0.41684868  0.87242207  1
  Mn  Mn122  1  0.14245461  0.91667226  0.49829585  1
  Mn  Mn123  1  0.10732811  0.08315394  0.87274506  1
  Mn  Mn124  1  0.14278181  0.91720143  0.74735962  1
  Mn  Mn125  1  0.10829278  0.08250379  0.37330906  1
  Mn  Mn126  1  0.64205781  0.58328686  0.74787012  1
  Mn  Mn127  1  0.85795971  0.41710842  0.75146323  1
  Mn  Mn128  1  0.89183618  0.91700098  0.87780832  1
  Mn  Mn129  1  0.39205072  0.58475370  0.87752467  1
  Mn  Mn130  1  0.64110107  0.25023368  0.24704929  1
  Mn  Mn131  1  0.89162670  0.91695282  0.37685374  1
  Mn  Mn132  1  0.60807697  0.74976079  0.37254324  1
  Mn  Mn133  1  0.89257324  0.58243566  0.87725702  1
  Mn  Mn134  1  0.14172678  0.58381791  0.99699374  1
  Mn  Mn135  1  0.60848294  0.74964132  0.62216716  1
  Mn  Mn136  1  0.35846293  0.74982583  0.75295673  1
  Mn  Mn137  1  0.35707616  0.41701716  0.25184398  1
  Mn  Mn138  1  0.89211590  0.25010818  0.37689717  1
  Mn  Mn139  1  0.10889576  0.41649452  0.37287127  1
  Mn  Mn140  1  0.64237165  0.58425901  0.99733093  1
  Mn  Mn141  1  0.14230270  0.24903139  0.74725217  1
  Mn  Mn142  1  0.10681850  0.75064359  0.62270872  1
  Mn  Mn143  1  0.35835443  0.08307376  0.00225624  1
  Fe  Fe144  1  0.10686280  0.74992113  0.87310553  1
  Fe  Fe145  1  0.64240921  0.58400732  0.24854898  1
  Fe  Fe146  1  0.14286809  0.24951405  0.24833294  1
  Fe  Fe147  1  0.60726087  0.08346137  0.37441543  1
  Fe  Fe148  1  0.14275020  0.58327490  0.49825347  1
  Fe  Fe149  1  0.10706593  0.75070522  0.37322298  1
  Fe  Fe150  1  0.85663452  0.08326224  0.50144307  1
  Fe  Fe151  1  0.89264656  0.25033077  0.87712816  1
  Fe  Fe152  1  0.10796728  0.41553613  0.62332590  1
  Fe  Fe153  1  0.14277729  0.24884632  0.99759741  1
  Fe  Fe154  1  0.39241293  0.58363556  0.37688673  1
  Fe  Fe155  1  0.14250780  0.91684109  0.24823673  1
  Fe  Fe156  1  0.14265338  0.58353941  0.24842174  1
  Fe  Fe157  1  0.39348495  0.91664184  0.62692877  1
  Fe  Fe158  1  0.10705713  0.08342742  0.62315113  1
  Fe  Fe159  1  0.60744584  0.08422567  0.12299942  1
  Fe  Fe160  1  0.39340480  0.24993981  0.62685560  1
  Fe  Fe161  1  0.64251821  0.91569413  0.24819392  1
  Fe  Fe162  1  0.35853908  0.08365807  0.50202221  1
  Fe  Fe163  1  0.64335230  0.91635473  0.99838992  1
  Fe  Fe164  1  0.60678751  0.41659304  0.62332135  1
  Fe  Fe165  1  0.64284336  0.91660987  0.74805662  1
  Fe  Fe166  1  0.64291960  0.25000635  0.74798090  1
  Fe  Fe167  1  0.85755802  0.75080777  0.00146902  1
  Fe  Fe168  1  0.89260185  0.91643615  0.12639935  1
  Fe  Fe169  1  0.10740791  0.41656533  0.87282026  1
  Fe  Fe170  1  0.10815817  0.41705857  0.12338214  1
  Fe  Fe171  1  0.35725806  0.41664778  0.75174869  1
  Fe  Fe172  1  0.85739086  0.74980660  0.25159599  1
  Fe  Fe173  1  0.89166202  0.91769811  0.62610436  1
  Fe  Fe174  1  0.60787690  0.08279280  0.87290199  1
  Fe  Fe175  1  0.10667098  0.75039324  0.12264894  1
  Fe  Fe176  1  0.14252251  0.91697317  0.99768903  1
  Fe  Fe177  1  0.89214276  0.24981094  0.62613966  1
  Fe  Fe178  1  0.60767878  0.75036970  0.87401183  1
  Fe  Fe179  1  0.64227911  0.58391540  0.49772572  1
  Fe  Fe180  1  0.35785021  0.08337380  0.75178295  1
  Fe  Fe181  1  0.64281286  0.91681930  0.49857767  1
  Fe  Fe182  1  0.35793022  0.41683308  0.50223279  1
  Fe  Fe183  1  0.64231870  0.24954846  0.49857892  1
  Fe  Fe184  1  0.35671774  0.75051903  0.00139694  1
  Fe  Fe185  1  0.85688598  0.75005574  0.75206532  1
  Fe  Fe186  1  0.39306698  0.91635233  0.37651456  1
  Fe  Fe187  1  0.39197304  0.24947458  0.12607890  1
  Fe  Fe188  1  0.85642167  0.08270974  0.00173428  1
  Fe  Fe189  1  0.39409905  0.91629477  0.87703931  1
  Fe  Fe190  1  0.60648869  0.41661562  0.37349664  1
  Fe  Fe191  1  0.85722856  0.75055129  0.50107356  1
  P  P192  1  0.05602870  0.25027302  0.11059802  1
  P  P193  1  0.05444248  0.24914268  0.35949314  1
  P  P194  1  0.05215137  0.24903798  0.61024007  1
  P  P195  1  0.05340518  0.24985581  0.86103383  1
  P  P196  1  0.05501453  0.58402857  0.11155191  1
  P  P197  1  0.05551667  0.58444083  0.36082632  1
  P  P198  1  0.05407611  0.58269470  0.60911460  1
  P  P199  1  0.05335650  0.58400594  0.85983469  1
  P  P200  1  0.05400773  0.91581393  0.11026839  1
  P  P201  1  0.05368275  0.91610340  0.35944596  1
  P  P202  1  0.05162695  0.91786633  0.61017861  1
  P  P203  1  0.05427118  0.91591232  0.86082951  1
  P  P204  1  0.55145098  0.24913725  0.10946045  1
  P  P205  1  0.55448635  0.24984850  0.36202811  1
  P  P206  1  0.55401984  0.25073172  0.61082793  1
  P  P207  1  0.55445466  0.24897104  0.85878633  1
  P  P208  1  0.55429871  0.58325458  0.11092488  1
  P  P209  1  0.55372004  0.58275692  0.36057087  1
  P  P210  1  0.55400091  0.58265733  0.60926208  1
  P  P211  1  0.55307091  0.58484178  0.86016537  1
  P  P212  1  0.55571957  0.91766449  0.11062091  1
  P  P213  1  0.55445036  0.91716603  0.36107219  1
  P  P214  1  0.55434297  0.91672252  0.61054011  1
  P  P215  1  0.55518487  0.91620397  0.86094000  1
  P  P216  1  0.44822625  0.08397564  0.13996070  1
  P  P217  1  0.44746308  0.08231703  0.39054198  1
  P  P218  1  0.44503864  0.08314595  0.63923253  1
  P  P219  1  0.44735966  0.08193793  0.88837480  1
  P  P220  1  0.44623718  0.41514907  0.14002753  1
  P  P221  1  0.44654065  0.41761078  0.39049541  1
  P  P222  1  0.44585910  0.41619223  0.63927987  1
  P  P223  1  0.44536289  0.41687096  0.88879619  1
  P  P224  1  0.44535106  0.75055930  0.13927899  1
  P  P225  1  0.44665987  0.75000247  0.38948073  1
  P  P226  1  0.44707186  0.75068628  0.63988820  1
  P  P227  1  0.44776657  0.75153297  0.89118443  1
  P  P228  1  0.94508245  0.08202378  0.13858658  1
  P  P229  1  0.94581630  0.08326133  0.39044355  1
  P  P230  1  0.94572882  0.08332451  0.63870542  1
  P  P231  1  0.94551752  0.08403166  0.89107589  1
  P  P232  1  0.94896873  0.41678418  0.14067211  1
  P  P233  1  0.94720925  0.41657979  0.39038921  1
  P  P234  1  0.94811747  0.41566871  0.63945865  1
  P  P235  1  0.94835914  0.41586117  0.89006486  1
  P  P236  1  0.94556721  0.75119068  0.13933361  1
  P  P237  1  0.94587373  0.75010067  0.38915840  1
  P  P238  1  0.94365292  0.75111691  0.63885832  1
  P  P239  1  0.94589357  0.74996871  0.88953007  1
  P  P240  1  0.19672812  0.08248419  0.23507883  1
  P  P241  1  0.19754934  0.08337075  0.48664777  1
  P  P242  1  0.19753758  0.08304069  0.73386015  1
  P  P243  1  0.19695625  0.08290239  0.98440770  1
  P  P244  1  0.19601153  0.41684731  0.23463482  1
  P  P245  1  0.19700358  0.41661209  0.48671333  1
  P  P246  1  0.19596724  0.41608016  0.73539153  1
  P  P247  1  0.19440393  0.41555931  0.98525638  1
  P  P248  1  0.19399042  0.75056187  0.23586807  1
  P  P249  1  0.19561388  0.74971307  0.48470348  1
  P  P250  1  0.19578107  0.75051630  0.73566116  1
  P  P251  1  0.19545152  0.75130424  0.98522463  1
  P  P252  1  0.69383912  0.08267580  0.23567081  1
  P  P253  1  0.69690086  0.08333639  0.48495940  1
  P  P254  1  0.69488886  0.08335057  0.73643591  1
  P  P255  1  0.69582877  0.08259662  0.98563886  1
  P  P256  1  0.69505247  0.41769985  0.23628106  1
  P  P257  1  0.69387203  0.41622278  0.48596415  1
  P  P258  1  0.69593668  0.41568694  0.73396277  1
  P  P259  1  0.69730014  0.41662395  0.98463681  1
  P  P260  1  0.69756982  0.74972754  0.23513442  1
  P  P261  1  0.69786263  0.75069583  0.48511510  1
  P  P262  1  0.69635579  0.75098512  0.73631611  1
  P  P263  1  0.69780680  0.75121326  0.98455071  1
  P  P264  1  0.30259519  0.24959617  0.01514115  1
  P  P265  1  0.30327558  0.24971190  0.26388221  1
  P  P266  1  0.30489119  0.25022115  0.51572454  1
  P  P267  1  0.30518294  0.24982542  0.76337940  1
  P  P268  1  0.30280984  0.58489655  0.01492845  1
  P  P269  1  0.30207673  0.58348099  0.26568932  1
  P  P270  1  0.30340161  0.58290886  0.51394064  1
  P  P271  1  0.30314305  0.58242415  0.76515082  1
  P  P272  1  0.30358372  0.91571569  0.01347597  1
  P  P273  1  0.30256704  0.91659945  0.26550533  1
  P  P274  1  0.30588043  0.91708498  0.51454563  1
  P  P275  1  0.30611886  0.91755330  0.76449340  1
  P  P276  1  0.80475149  0.24927210  0.01410931  1
  P  P277  1  0.80275499  0.25024714  0.26506995  1
  P  P278  1  0.80217858  0.24891732  0.51517211  1
  P  P279  1  0.80420321  0.25022876  0.76430599  1
  P  P280  1  0.80385324  0.58421149  0.01512877  1
  P  P281  1  0.80225588  0.58407929  0.26525460  1
  P  P282  1  0.80169424  0.58378940  0.51457943  1
  P  P283  1  0.80349141  0.58370824  0.76461891  1
  P  P284  1  0.80287186  0.91703484  0.01540854  1
  P  P285  1  0.80316036  0.91584868  0.26331024  1
  P  P286  1  0.80239368  0.91737061  0.51497852  1
  P  P287  1  0.80346630  0.91655903  0.76387832  1
  O  O288  1  0.06013302  0.24911212  0.18738165  1
  O  O289  1  0.05760808  0.24904375  0.43627050  1
  O  O290  1  0.05573624  0.24899753  0.68693849  1
  O  O291  1  0.05832401  0.24893342  0.93767225  1
  O  O292  1  0.05876536  0.58398856  0.18829670  1
  O  O293  1  0.05943054  0.58347502  0.43760332  1
  O  O294  1  0.05671837  0.58345968  0.68593557  1
  O  O295  1  0.05581129  0.58441704  0.93667145  1
  O  O296  1  0.05858262  0.91684357  0.18691785  1
  O  O297  1  0.05676851  0.91684582  0.43622395  1
  O  O298  1  0.05564320  0.91728198  0.68684976  1
  O  O299  1  0.05849988  0.91659008  0.93756765  1
  O  O300  1  0.55491767  0.25005749  0.18621985  1
  O  O301  1  0.55824110  0.24952579  0.43876726  1
  O  O302  1  0.55872672  0.24996702  0.68744036  1
  O  O303  1  0.55729936  0.24952781  0.93560711  1
  O  O304  1  0.55874280  0.58389408  0.18769247  1
  O  O305  1  0.55883245  0.58406625  0.43726683  1
  O  O306  1  0.55702789  0.58383540  0.68604955  1
  O  O307  1  0.55587413  0.58404215  0.93696666  1
  O  O308  1  0.55959763  0.91603314  0.18742804  1
  O  O309  1  0.55921978  0.91621031  0.43779924  1
  O  O310  1  0.55925912  0.91656472  0.68720914  1
  O  O311  1  0.55961647  0.91637722  0.93766515  1
  O  O312  1  0.44461741  0.08293042  0.06320930  1
  O  O313  1  0.44406042  0.08287241  0.31381657  1
  O  O314  1  0.44157363  0.08319334  0.56241905  1
  O  O315  1  0.44255235  0.08280047  0.81176929  1
  O  O316  1  0.44301506  0.41600275  0.06322898  1
  O  O317  1  0.44261681  0.41716919  0.31381034  1
  O  O318  1  0.44143324  0.41697918  0.56253900  1
  O  O319  1  0.44116513  0.41701553  0.81201622  1
  O  O320  1  0.44073696  0.75072669  0.06260059  1
  O  O321  1  0.44348265  0.74997201  0.31275214  1
  O  O322  1  0.44371089  0.74988871  0.56316972  1
  O  O323  1  0.44427925  0.75077398  0.81443091  1
  O  O324  1  0.94064086  0.08240928  0.06192405  1
  O  O325  1  0.94252115  0.08314170  0.31365798  1
  O  O326  1  0.94090964  0.08314145  0.56206728  1
  O  O327  1  0.94256029  0.08314383  0.81422592  1
  O  O328  1  0.94499647  0.41684592  0.06396985  1
  O  O329  1  0.94394329  0.41691809  0.31363748  1
  O  O330  1  0.94374354  0.41637493  0.56282356  1
  O  O331  1  0.94419880  0.41629570  0.81340430  1
  O  O332  1  0.94072097  0.75071351  0.06262873  1
  O  O333  1  0.94102167  0.75003541  0.31244889  1
  O  O334  1  0.93969883  0.75042193  0.56199260  1
  O  O335  1  0.94083692  0.75030258  0.81281691  1
  O  O336  1  0.19382580  0.08262374  0.06116527  1
  O  O337  1  0.19437296  0.08253545  0.31185569  1
  O  O338  1  0.19204990  0.08306120  0.56321454  1
  O  O339  1  0.19287511  0.08312192  0.81051134  1
  O  O340  1  0.19075358  0.41667694  0.06204683  1
  O  O341  1  0.19418372  0.41671785  0.31151874  1
  O  O342  1  0.19194498  0.41583173  0.56337863  1
  O  O343  1  0.19078485  0.41586716  0.81208943  1
  O  O344  1  0.19083431  0.75076086  0.06195022  1
  O  O345  1  0.19067959  0.75076727  0.31264363  1
  O  O346  1  0.19272210  0.75075149  0.56151374  1
  O  O347  1  0.19113314  0.75069012  0.81236269  1
  O  O348  1  0.69146754  0.08389045  0.06235445  1
  O  O349  1  0.68989841  0.08355378  0.31243391  1
  O  O350  1  0.69351903  0.08354353  0.56173193  1
  O  O351  1  0.69140768  0.08324043  0.81320473  1
  O  O352  1  0.69376177  0.41625064  0.06141978  1
  O  O353  1  0.69051299  0.41665512  0.31301786  1
  O  O354  1  0.69018692  0.41616055  0.56273685  1
  O  O355  1  0.69334299  0.41635084  0.81076749  1
  O  O356  1  0.69405153  0.75034180  0.06122656  1
  O  O357  1  0.69399175  0.75006864  0.31183742  1
  O  O358  1  0.69465746  0.75050453  0.56181650  1
  O  O359  1  0.69173799  0.75052936  0.81292453  1
  O  O360  1  0.30805488  0.24946833  0.18726107  1
  O  O361  1  0.30691717  0.25016186  0.43881022  1
  O  O362  1  0.30939143  0.24990790  0.68669465  1
  O  O363  1  0.30694986  0.24938368  0.93842605  1
  O  O364  1  0.30587853  0.58369468  0.18896061  1
  O  O365  1  0.30836657  0.58347002  0.43728748  1
  O  O366  1  0.30614834  0.58322833  0.68834891  1
  O  O367  1  0.30595861  0.58417868  0.93816469  1
  O  O368  1  0.30651290  0.91662803  0.18876599  1
  O  O369  1  0.30992039  0.91646986  0.43777208  1
  O  O370  1  0.31020968  0.91648512  0.68772334  1
  O  O371  1  0.30901106  0.91641375  0.93690252  1
  O  O372  1  0.80675924  0.25027211  0.18829669  1
  O  O373  1  0.80585278  0.24975798  0.43851675  1
  O  O374  1  0.80921722  0.25012507  0.68758714  1
  O  O375  1  0.80882783  0.25033970  0.93730800  1
  O  O376  1  0.80628763  0.58321217  0.18855661  1
  O  O377  1  0.80571633  0.58282101  0.43793827  1
  O  O378  1  0.80643980  0.58267484  0.68786904  1
  O  O379  1  0.80699254  0.58328405  0.93834473  1
  O  O380  1  0.80799365  0.91653946  0.18675027  1
  O  O381  1  0.80557250  0.91750596  0.43824481  1
  O  O382  1  0.80801365  0.91751097  0.68724816  1
  O  O383  1  0.80605111  0.91706205  0.93864811  1
  O  O384  1  0.23234860  0.24947275  0.03883037  1
  O  O385  1  0.23300384  0.24986524  0.28781963  1
  O  O386  1  0.23539889  0.24997243  0.54155357  1
  O  O387  1  0.23516363  0.24957434  0.78767350  1
  O  O388  1  0.23306241  0.58456453  0.03982513  1
  O  O389  1  0.23189790  0.58314025  0.28973316  1
  O  O390  1  0.23308885  0.58327426  0.53775380  1
  O  O391  1  0.23354814  0.58278985  0.79046385  1
  O  O392  1  0.23317405  0.91613133  0.03694835  1
  O  O393  1  0.23243704  0.91678488  0.28970468  1
  O  O394  1  0.23576973  0.91639261  0.53871547  1
  O  O395  1  0.23592736  0.91708130  0.78822476  1
  O  O396  1  0.73477910  0.24949886  0.03854526  1
  O  O397  1  0.73285828  0.24984506  0.28932769  1
  O  O398  1  0.73196850  0.24942278  0.53951928  1
  O  O399  1  0.73370875  0.24978434  0.78748192  1
  O  O400  1  0.73415872  0.58428609  0.04020666  1
  O  O401  1  0.73224986  0.58408747  0.28985123  1
  O  O402  1  0.73153496  0.58379419  0.53892702  1
  O  O403  1  0.73388533  0.58375146  0.78995157  1
  O  O404  1  0.73281518  0.91656740  0.04004705  1
  O  O405  1  0.73280144  0.91622530  0.28711462  1
  O  O406  1  0.73235249  0.91714316  0.53991825  1
  O  O407  1  0.73322428  0.91706761  0.78781762  1
  O  O408  1  0.26615899  0.08229280  0.20902367  1
  O  O409  1  0.26798966  0.08365086  0.46325053  1
  O  O410  1  0.26790866  0.08297775  0.71055318  1
  O  O411  1  0.26660095  0.08311989  0.95913672  1
  O  O412  1  0.26542905  0.41693865  0.20855950  1
  O  O413  1  0.26731363  0.41637830  0.46291564  1
  O  O414  1  0.26644737  0.41649346  0.71223155  1
  O  O415  1  0.26440733  0.41616270  0.96092833  1
  O  O416  1  0.26390755  0.75066907  0.21108186  1
  O  O417  1  0.26532725  0.75015823  0.45962098  1
  O  O418  1  0.26587572  0.75033527  0.71182165  1
  O  O419  1  0.26577190  0.75081000  0.96136554  1
  O  O420  1  0.76390450  0.08309146  0.21158091  1
  O  O421  1  0.76684224  0.08313271  0.45999149  1
  O  O422  1  0.76476329  0.08344731  0.71183394  1
  O  O423  1  0.76608793  0.08290343  0.96159866  1
  O  O424  1  0.76501545  0.41735586  0.21190084  1
  O  O425  1  0.76391891  0.41628410  0.46153916  1
  O  O426  1  0.76552899  0.41655760  0.70848617  1
  O  O427  1  0.76698151  0.41655775  0.95963847  1
  O  O428  1  0.76750788  0.74989225  0.21027076  1
  O  O429  1  0.76780477  0.75086382  0.46002928  1
  O  O430  1  0.76660911  0.75040678  0.71233879  1
  O  O431  1  0.76797770  0.75126402  0.96028290  1
  O  O432  1  0.01522446  0.08274075  0.16248062  1
  O  O433  1  0.01563282  0.08291136  0.41513497  1
  O  O434  1  0.01586570  0.08348869  0.66318544  1
  O  O435  1  0.01524102  0.08324110  0.91602526  1
  O  O436  1  0.01908729  0.41672527  0.16482957  1
  O  O437  1  0.01703285  0.41627009  0.41506746  1
  O  O438  1  0.01825710  0.41547812  0.66381079  1
  O  O439  1  0.01847419  0.41642649  0.91440345  1
  O  O440  1  0.01605226  0.75064101  0.16254711  1
  O  O441  1  0.01626448  0.75047263  0.41262747  1
  O  O442  1  0.01379560  0.75040659  0.66286364  1
  O  O443  1  0.01622882  0.75011910  0.91309653  1
  O  O444  1  0.51806286  0.08358895  0.16491973  1
  O  O445  1  0.51749187  0.08281942  0.41534966  1
  O  O446  1  0.51512132  0.08316521  0.66342951  1
  O  O447  1  0.51776014  0.08215682  0.91196971  1
  O  O448  1  0.51577995  0.41598143  0.16542666  1
  O  O449  1  0.51674480  0.41666333  0.41457265  1
  O  O450  1  0.51628105  0.41684119  0.66288089  1
  O  O451  1  0.51539152  0.41626866  0.91290689  1
  O  O452  1  0.51547089  0.75063716  0.16316593  1
  O  O453  1  0.51635031  0.75009201  0.41476305  1
  O  O454  1  0.51680084  0.75071620  0.66481596  1
  O  O455  1  0.51774546  0.75078552  0.91592894  1
  O  O456  1  0.48175784  0.24892241  0.08401097  1
  O  O457  1  0.48451460  0.25003437  0.33741458  1
  O  O458  1  0.48359470  0.24985055  0.58733557  1
  O  O459  1  0.48469299  0.24973245  0.83389658  1
  O  O460  1  0.48423214  0.58284859  0.08699241  1
  O  O461  1  0.48324934  0.58326343  0.33713993  1
  O  O462  1  0.48423153  0.58286683  0.58438421  1
  O  O463  1  0.48359545  0.58465653  0.83444057  1
  O  O464  1  0.48568242  0.91726822  0.08647247  1
  O  O465  1  0.48404389  0.91679715  0.33731988  1
  O  O466  1  0.48390058  0.91700708  0.58736360  1
  O  O467  1  0.48487979  0.91665604  0.83697297  1
  O  O468  1  0.98587650  0.24994825  0.08678612  1
  O  O469  1  0.98476094  0.24945411  0.33433767  1
  O  O470  1  0.98216495  0.24940520  0.58537167  1
  O  O471  1  0.98305018  0.24958102  0.83732180  1
  O  O472  1  0.98517363  0.58407216  0.08677530  1
  O  O473  1  0.98553730  0.58367541  0.33639657  1
  O  O474  1  0.98436547  0.58345136  0.58384589  1
  O  O475  1  0.98397959  0.58321920  0.83382592  1
  O  O476  1  0.98365557  0.91591848  0.08648781  1
  O  O477  1  0.98394877  0.91665345  0.33442371  1
  O  O478  1  0.98159568  0.91710330  0.58558430  1
  O  O479  1  0.98419602  0.91666410  0.83679262  1
  O  O480  1  0.08940371  0.31553326  0.07803156  1
  O  O481  1  0.08900196  0.31414634  0.32734484  1
  O  O482  1  0.08643154  0.31394475  0.57770217  1
  O  O483  1  0.08669094  0.31497195  0.82793530  1
  O  O484  1  0.08848390  0.64929632  0.07858758  1
  O  O485  1  0.08870833  0.64984084  0.32814631  1
  O  O486  1  0.08868722  0.64752903  0.57670178  1
  O  O487  1  0.08714863  0.64935105  0.82755368  1
  O  O488  1  0.08764591  0.98057448  0.07646569  1
  O  O489  1  0.08821903  0.98086529  0.32674076  1
  O  O490  1  0.08528580  0.98305482  0.57749189  1
  O  O491  1  0.08797093  0.98086088  0.82759058  1
  O  O492  1  0.58550749  0.31406282  0.07662045  1
  O  O493  1  0.58789719  0.31507365  0.32909637  1
  O  O494  1  0.58691246  0.31590215  0.57759151  1
  O  O495  1  0.58903053  0.31377833  0.82629680  1
  O  O496  1  0.58751971  0.64846279  0.07766921  1
  O  O497  1  0.58738292  0.64750774  0.32674753  1
  O  O498  1  0.58828646  0.64748650  0.57626552  1
  O  O499  1  0.58723985  0.65021480  0.82845133  1
  O  O500  1  0.58911764  0.98309036  0.07823601  1
  O  O501  1  0.58773246  0.98241127  0.32840768  1
  O  O502  1  0.58769475  0.98172399  0.57712099  1
  O  O503  1  0.58894826  0.98093107  0.82736934  1
  O  O504  1  0.41431090  0.01897445  0.17291249  1
  O  O505  1  0.41358603  0.01722403  0.42293038  1
  O  O506  1  0.41156066  0.01806606  0.67222419  1
  O  O507  1  0.41428481  0.01685924  0.92184920  1
  O  O508  1  0.41258693  0.34962511  0.17202082  1
  O  O509  1  0.41239666  0.35275924  0.42345521  1
  O  O510  1  0.41285143  0.35086565  0.67230253  1
  O  O511  1  0.41152749  0.35182590  0.92153993  1
  O  O512  1  0.41187198  0.68546392  0.17239883  1
  O  O513  1  0.41263191  0.68488500  0.42199590  1
  O  O514  1  0.41316484  0.68560774  0.67265460  1
  O  O515  1  0.41296800  0.68698522  0.92391777  1
  O  O516  1  0.91216314  0.01658731  0.17164288  1
  O  O517  1  0.91141306  0.01838499  0.42298056  1
  O  O518  1  0.91231060  0.01822008  0.67207673  1
  O  O519  1  0.91086516  0.01921091  0.92357272  1
  O  O520  1  0.91515460  0.35178736  0.17336102  1
  O  O521  1  0.91303976  0.35155114  0.42267311  1
  O  O522  1  0.91410315  0.35075470  0.67207377  1
  O  O523  1  0.91489318  0.35075856  0.92295316  1
  O  O524  1  0.91215424  0.68638549  0.17318845  1
  O  O525  1  0.91264828  0.68515831  0.42274235  1
  O  O526  1  0.90977683  0.68620947  0.67198143  1
  O  O527  1  0.91260111  0.68498353  0.92287730  1
  O  O528  1  0.16222208  0.01742055  0.20288631  1
  O  O529  1  0.16449167  0.01831309  0.45303621  1
  O  O530  1  0.16385980  0.01812140  0.70068570  1
  O  O531  1  0.16291723  0.01777064  0.95200527  1
  O  O532  1  0.16157006  0.35179740  0.20266911  1
  O  O533  1  0.16374440  0.35160912  0.45320271  1
  O  O534  1  0.16299990  0.35097436  0.70169253  1
  O  O535  1  0.16114636  0.35015290  0.95262101  1
  O  O536  1  0.16034999  0.68532514  0.20313212  1
  O  O537  1  0.16159970  0.68449442  0.45271946  1
  O  O538  1  0.16214007  0.68549927  0.70270785  1
  O  O539  1  0.16173181  0.68638203  0.95179890  1
  O  O540  1  0.66046082  0.01738780  0.20310126  1
  O  O541  1  0.66274204  0.01828482  0.45252905  1
  O  O542  1  0.66122251  0.01830956  0.70351081  1
  O  O543  1  0.66259891  0.01709057  0.95304684  1
  O  O544  1  0.66145378  0.35272247  0.20275048  1
  O  O545  1  0.66024879  0.35105870  0.45309732  1
  O  O546  1  0.66199721  0.35031755  0.70192985  1
  O  O547  1  0.66311034  0.35164903  0.95216512  1
  O  O548  1  0.66375048  0.68458258  0.20264303  1
  O  O549  1  0.66384713  0.68571938  0.45244840  1
  O  O550  1  0.66280945  0.68611476  0.70283713  1
  O  O551  1  0.66387463  0.68644033  0.95132411  1
  O  O552  1  0.33616416  0.31460493  0.04818050  1
  O  O553  1  0.33665417  0.31475156  0.29717684  1
  O  O554  1  0.33930317  0.31531017  0.54772663  1
  O  O555  1  0.33846397  0.31500503  0.79642671  1
  O  O556  1  0.33663680  0.65011032  0.04713409  1
  O  O557  1  0.33565346  0.64855278  0.29865172  1
  O  O558  1  0.33670277  0.64792882  0.54745729  1
  O  O559  1  0.33730640  0.64754428  0.79762682  1
  O  O560  1  0.33686382  0.98073760  0.04722076  1
  O  O561  1  0.33681012  0.98144320  0.29823041  1
  O  O562  1  0.33930521  0.98230160  0.54733183  1
  O  O563  1  0.33941232  0.98295515  0.79719790  1
  O  O564  1  0.83853534  0.31412035  0.04746724  1
  O  O565  1  0.83632600  0.31535071  0.29789465  1
  O  O566  1  0.83630848  0.31367911  0.54838293  1
  O  O567  1  0.83734289  0.31539075  0.79761043  1
  O  O568  1  0.83788892  0.64958434  0.04693668  1
  O  O569  1  0.83622814  0.64932770  0.29738958  1
  O  O570  1  0.83550996  0.64895775  0.54675944  1
  O  O571  1  0.83769474  0.64887320  0.79654438  1
  O  O572  1  0.83652203  0.98215530  0.04818664  1
  O  O573  1  0.83634417  0.98073390  0.29709230  1
  O  O574  1  0.83620451  0.98249336  0.54782535  1
  O  O575  1  0.83696232  0.98134107  0.79752864  1
  O  O576  1  0.41423115  0.14910199  0.17222037  1
  O  O577  1  0.41323839  0.14724841  0.42329009  1
  O  O578  1  0.41141734  0.14823302  0.67214435  1
  O  O579  1  0.41409152  0.14690796  0.92198934  1
  O  O580  1  0.41175079  0.48001308  0.17265105  1
  O  O581  1  0.41316057  0.48284277  0.42334602  1
  O  O582  1  0.41206915  0.48090384  0.67277622  1
  O  O583  1  0.41214435  0.48198447  0.92208040  1
  O  O584  1  0.41197267  0.81564139  0.17248133  1
  O  O585  1  0.41266680  0.81513010  0.42181093  1
  O  O586  1  0.41309930  0.81577408  0.67221792  1
  O  O587  1  0.41409688  0.81690185  0.92356448  1
  O  O588  1  0.91140048  0.14685694  0.17194175  1
  O  O589  1  0.91172578  0.14820045  0.42311133  1
  O  O590  1  0.91209824  0.14842836  0.67173910  1
  O  O591  1  0.91151604  0.14922254  0.92303190  1
  O  O592  1  0.91534352  0.48188910  0.17351474  1
  O  O593  1  0.91335442  0.48162406  0.42307357  1
  O  O594  1  0.91479602  0.48095453  0.67251283  1
  O  O595  1  0.91470513  0.48093119  0.92307700  1
  O  O596  1  0.91247326  0.81639459  0.17258331  1
  O  O597  1  0.91224159  0.81503076  0.42240720  1
  O  O598  1  0.91046271  0.81644515  0.67173071  1
  O  O599  1  0.91244760  0.81492086  0.92310895  1
  O  O600  1  0.08957903  0.18536606  0.07690610  1
  O  O601  1  0.08856590  0.18413130  0.32696822  1
  O  O602  1  0.08588374  0.18383416  0.57759431  1
  O  O603  1  0.08665775  0.18490330  0.82724193  1
  O  O604  1  0.08878794  0.51898713  0.07872404  1
  O  O605  1  0.08985879  0.51973573  0.32777686  1
  O  O606  1  0.08814595  0.51733554  0.57728998  1
  O  O607  1  0.08808685  0.51887661  0.82825329  1
  O  O608  1  0.08743557  0.85064745  0.07728159  1
  O  O609  1  0.08755868  0.85089261  0.32716826  1
  O  O610  1  0.08570464  0.85299676  0.57729347  1
  O  O611  1  0.08740723  0.85063835  0.82787351  1
  O  O612  1  0.58591743  0.18406389  0.07746362  1
  O  O613  1  0.58779538  0.18467341  0.32906186  1
  O  O614  1  0.58773595  0.18596746  0.57712662  1
  O  O615  1  0.58827424  0.18367482  0.82664275  1
  O  O616  1  0.58799587  0.51828911  0.07804074  1
  O  O617  1  0.58678270  0.51735873  0.32784375  1
  O  O618  1  0.58799688  0.51742043  0.57734777  1
  O  O619  1  0.58735829  0.51988824  0.82765775  1
  O  O620  1  0.58974326  0.85308242  0.07697051  1
  O  O621  1  0.58797320  0.85233645  0.32720090  1
  O  O622  1  0.58761239  0.85192022  0.57680110  1
  O  O623  1  0.58823807  0.85080745  0.82782357  1
  O  O624  1  0.33643304  0.18466418  0.04824662  1
  O  O625  1  0.33662555  0.18469684  0.29731158  1
  O  O626  1  0.33970117  0.18528469  0.54755840  1
  O  O627  1  0.33869565  0.18454717  0.79634501  1
  O  O628  1  0.33669413  0.51971264  0.04750433  1
  O  O629  1  0.33617278  0.51858734  0.29838743  1
  O  O630  1  0.33658486  0.51780932  0.54718474  1
  O  O631  1  0.33714677  0.51722652  0.79711523  1
  O  O632  1  0.33653046  0.85063145  0.04701731  1
  O  O633  1  0.33636996  0.85161513  0.29839420  1
  O  O634  1  0.33983052  0.85230445  0.54784205  1
  O  O635  1  0.33998749  0.85291926  0.79819616  1
  O  O636  1  0.83806842  0.18379081  0.04652404  1
  O  O637  1  0.83663329  0.18511688  0.29755588  1
  O  O638  1  0.83573125  0.18363349  0.54777214  1
  O  O639  1  0.83767582  0.18538606  0.79783564  1
  O  O640  1  0.83786889  0.51924911  0.04800561  1
  O  O641  1  0.83603498  0.51917173  0.29839529  1
  O  O642  1  0.83526689  0.51873312  0.54780833  1
  O  O643  1  0.83748511  0.51859630  0.79722093  1
  O  O644  1  0.83728724  0.85215575  0.04785510  1
  O  O645  1  0.83628732  0.85068523  0.29651681  1
  O  O646  1  0.83667438  0.85243187  0.54735584  1
  O  O647  1  0.83665199  0.85133683  0.79689343  1
  O  O648  1  0.16247123  0.14757273  0.20290456  1
  O  O649  1  0.16427228  0.14834322  0.45329473  1
  O  O650  1  0.16389048  0.14801197  0.70070228  1
  O  O651  1  0.16282189  0.14810107  0.95217636  1
  O  O652  1  0.16150968  0.48201666  0.20276688  1
  O  O653  1  0.16367081  0.48168356  0.45360643  1
  O  O654  1  0.16234184  0.48086591  0.70200906  1
  O  O655  1  0.16038135  0.48040133  0.95204325  1
  O  O656  1  0.16014911  0.81554764  0.20281018  1
  O  O657  1  0.16112431  0.81453158  0.45205102  1
  O  O658  1  0.16244974  0.81554263  0.70222982  1
  O  O659  1  0.16205487  0.81630599  0.95197393  1
  O  O660  1  0.66004889  0.14745529  0.20200486  1
  O  O661  1  0.66273998  0.14832896  0.45240432  1
  O  O662  1  0.66126009  0.14843659  0.70348206  1
  O  O663  1  0.66197864  0.14714126  0.95186109  1
  O  O664  1  0.66168058  0.48311128  0.20386323  1
  O  O665  1  0.66010461  0.48128634  0.45304153  1
  O  O666  1  0.66086069  0.48034240  0.70173854  1
  O  O667  1  0.66321773  0.48178940  0.95239796  1
  O  O668  1  0.66356280  0.81467210  0.20242668  1
  O  O669  1  0.66393762  0.81579728  0.45269443  1
  O  O670  1  0.66342622  0.81625948  0.70300249  1
  O  O671  1  0.66387744  0.81634049  0.95214387  1
