# generated using pymatgen
data_Na2MnFe(PO4)2
_symmetry_space_group_name_H-M   'P 1'
_cell_length_a   21.08733281
_cell_length_b   18.94039283
_cell_length_c   20.04568347
_cell_angle_alpha   90.00025030
_cell_angle_beta   89.99838301
_cell_angle_gamma   89.99914558
_symmetry_Int_Tables_number   1
_chemical_formula_structural   Na2MnFe(PO4)2
_chemical_formula_sum   'Na96 Mn48 Fe48 P96 O384'
_cell_volume   8006.29342505
_cell_formula_units_Z   48
loop_
 _symmetry_equiv_pos_site_id
 _symmetry_equiv_pos_as_xyz
  1  'x, y, z'
loop_
 _atom_site_type_symbol
 _atom_site_label
 _atom_site_symmetry_multiplicity
 _atom_site_fract_x
 _atom_site_fract_y
 _atom_site_fract_z
 _atom_site_occupancy
  Na  Na0  1  0.00205890  -0.00068280  0.00011068  1
  Na  Na1  1  0.00273221  -0.00018886  0.24931255  1
  Na  Na2  1  0.00135031  -0.00073800  0.50088865  1
  Na  Na3  1  0.00134070  -0.00043106  0.75021405  1
  Na  Na4  1  -0.00178453  0.33313523  -0.00047064  1
  Na  Na5  1  -0.00100698  0.33382008  0.25006112  1
  Na  Na6  1  -0.00097605  0.33448180  0.49939706  1
  Na  Na7  1  -0.00174144  0.33399706  0.75065895  1
  Na  Na8  1  -0.00220843  0.66522369  0.00087122  1
  Na  Na9  1  0.00185361  0.66797930  0.24926517  1
  Na  Na10  1  -0.00266210  0.66559547  0.49978826  1
  Na  Na11  1  -0.00216033  0.66637170  0.75003137  1
  Na  Na12  1  0.50050928  0.00079643  -0.00029989  1
  Na  Na13  1  0.49982233  0.00078748  0.24992511  1
  Na  Na14  1  0.49651273  -0.00062921  0.50053595  1
  Na  Na15  1  0.49776004  -0.00045958  0.74947931  1
  Na  Na16  1  0.50128834  0.33406543  -0.00005118  1
  Na  Na17  1  0.50074924  0.33357380  0.25007200  1
  Na  Na18  1  0.50106783  0.33360088  0.49982402  1
  Na  Na19  1  0.49982331  0.33283781  0.75090726  1
  Na  Na20  1  0.49915786  0.66613671  0.00099517  1
  Na  Na21  1  0.49842050  0.66599638  0.25006924  1
  Na  Na22  1  0.50003324  0.66613498  0.49911570  1
  Na  Na23  1  0.50282667  0.66738441  0.74911059  1
  Na  Na24  1  0.24672477  -0.00077369  0.12417476  1
  Na  Na25  1  0.24973812  -0.00052283  0.37498756  1
  Na  Na26  1  0.25237343  0.00048994  0.62529943  1
  Na  Na27  1  0.24880422  -0.00013785  0.87554325  1
  Na  Na28  1  0.24810570  0.33427533  0.12558803  1
  Na  Na29  1  0.24796326  0.33370243  0.37534294  1
  Na  Na30  1  0.24778215  0.33343020  0.62542078  1
  Na  Na31  1  0.24850138  0.33428901  0.87476306  1
  Na  Na32  1  0.25361244  0.66722859  0.12514452  1
  Na  Na33  1  0.25257308  0.66642654  0.37508647  1
  Na  Na34  1  0.25255660  0.66686785  0.62511346  1
  Na  Na35  1  0.25120746  0.66613960  0.87423159  1
  Na  Na36  1  0.75045589  -0.00037453  0.12420909  1
  Na  Na37  1  0.75092253  -0.00005085  0.37466628  1
  Na  Na38  1  0.75090301  0.00032406  0.62496846  1
  Na  Na39  1  0.74989813  -0.00024402  0.87635421  1
  Na  Na40  1  0.75071853  0.33298437  0.12438967  1
  Na  Na41  1  0.75160533  0.33389349  0.37377094  1
  Na  Na42  1  0.75260583  0.33389650  0.62587684  1
  Na  Na43  1  0.75309766  0.33388457  0.87557177  1
  Na  Na44  1  0.74978335  0.66696319  0.12394120  1
  Na  Na45  1  0.74868678  0.66620677  0.37557929  1
  Na  Na46  1  0.74867240  0.66649291  0.62583743  1
  Na  Na47  1  0.74964063  0.66690792  0.87420238  1
  Na  Na48  1  0.00189380  0.16578629  -0.00015489  1
  Na  Na49  1  0.00186322  0.16589150  0.24995443  1
  Na  Na50  1  -0.00038219  0.16670990  0.50014907  1
  Na  Na51  1  -0.00193098  0.16796298  0.75101581  1
  Na  Na52  1  0.00017406  0.49923631  0.00076989  1
  Na  Na53  1  0.00191763  0.49909516  0.24918578  1
  Na  Na54  1  -0.00026064  0.49948183  0.49893944  1
  Na  Na55  1  -0.00212114  0.50043839  0.74954544  1
  Na  Na56  1  -0.00114560  0.83411652  0.00045609  1
  Na  Na57  1  -0.00078572  0.83385938  0.24937244  1
  Na  Na58  1  -0.00145601  0.83389399  0.50108633  1
  Na  Na59  1  0.00009047  0.83317306  0.74980027  1
  Na  Na60  1  0.50299740  0.16576852  -0.00101422  1
  Na  Na61  1  0.50086466  0.16707052  0.25073712  1
  Na  Na62  1  0.50010276  0.16670469  0.50013724  1
  Na  Na63  1  0.50029728  0.16641056  0.75005660  1
  Na  Na64  1  0.49846599  0.50053869  0.00063332  1
  Na  Na65  1  0.50013798  0.49998973  0.25003994  1
  Na  Na66  1  0.49995972  0.50105130  0.50046828  1
  Na  Na67  1  0.50056168  0.50022247  0.75028143  1
  Na  Na68  1  0.49921154  0.83349768  0.00080736  1
  Na  Na69  1  0.49709293  0.83366676  0.24921409  1
  Na  Na70  1  0.49695325  0.83375159  0.49884475  1
  Na  Na71  1  0.50020899  0.83270872  0.74930408  1
  Na  Na72  1  0.24713679  0.16741782  0.12553817  1
  Na  Na73  1  0.24999015  0.16593127  0.37448049  1
  Na  Na74  1  0.25173605  0.16519394  0.62624832  1
  Na  Na75  1  0.24753072  0.16721279  0.87602705  1
  Na  Na76  1  0.24848629  0.50009444  0.12531064  1
  Na  Na77  1  0.24878554  0.50033508  0.37545545  1
  Na  Na78  1  0.24982283  0.49950987  0.62488597  1
  Na  Na79  1  0.24935876  0.49956896  0.87447975  1
  Na  Na80  1  0.25032207  0.83376980  0.12438617  1
  Na  Na81  1  0.25265512  0.83218165  0.37528325  1
  Na  Na82  1  0.25101854  0.83392126  0.62489233  1
  Na  Na83  1  0.25110135  0.83335034  0.87416988  1
  Na  Na84  1  0.74933058  0.16699278  0.12401075  1
  Na  Na85  1  0.74881410  0.16780020  0.37359910  1
  Na  Na86  1  0.75003911  0.16694814  0.62619866  1
  Na  Na87  1  0.74940017  0.16691962  0.87494046  1
  Na  Na88  1  0.74983783  0.50022228  0.12352240  1
  Na  Na89  1  0.75011228  0.50006670  0.37514534  1
  Na  Na90  1  0.75197595  0.49982905  0.62522288  1
  Na  Na91  1  0.75138222  0.49992829  0.87581833  1
  Na  Na92  1  0.75146514  0.83379256  0.12515344  1
  Na  Na93  1  0.75248269  0.83240549  0.37519560  1
  Na  Na94  1  0.74982765  0.83332528  0.62538124  1
  Na  Na95  1  0.75163952  0.83280118  0.87533253  1
  Mn  Mn96  1  0.39197726  0.24977946  0.87829492  1
  Mn  Mn97  1  0.64246786  0.58333881  0.99761110  1
  Mn  Mn98  1  0.60905280  0.41685855  0.62282688  1
  Mn  Mn99  1  0.85718818  0.75007417  0.75251428  1
  Mn  Mn100  1  0.10802966  0.08435532  0.62296928  1
  Mn  Mn101  1  0.60873434  0.41694776  0.37297682  1
  Mn  Mn102  1  0.35707640  0.08328258  0.25146747  1
  Mn  Mn103  1  0.14213339  0.58395668  0.49818305  1
  Mn  Mn104  1  0.64180021  0.91705101  0.49712711  1
  Mn  Mn105  1  0.10876350  0.74974310  0.12206070  1
  Mn  Mn106  1  0.39227629  0.25026860  0.12633378  1
  Mn  Mn107  1  0.64216263  0.91624376  0.24815624  1
  Mn  Mn108  1  0.89222680  0.91691407  0.62763979  1
  Mn  Mn109  1  0.64323029  0.25085335  0.74800589  1
  Mn  Mn110  1  0.10830283  0.74995261  0.37328827  1
  Mn  Mn111  1  0.64251712  0.25054363  0.24688822  1
  Mn  Mn112  1  0.89237174  0.24886194  0.37739596  1
  Mn  Mn113  1  0.85880730  0.08354009  0.25202517  1
  Mn  Mn114  1  0.39264859  0.58352775  0.87692587  1
  Mn  Mn115  1  0.14136542  0.24946924  0.49828982  1
  Mn  Mn116  1  0.14116796  0.25023259  0.24745398  1
  Mn  Mn117  1  0.89204621  0.58431844  0.37643570  1
  Mn  Mn118  1  0.35880558  0.75019525  0.75251323  1
  Mn  Mn119  1  0.60690635  0.75057324  0.37294853  1
  Mn  Mn120  1  0.85804192  0.74907683  0.25235187  1
  Mn  Mn121  1  0.14338656  0.91601572  0.49790828  1
  Mn  Mn122  1  0.60712309  0.08265081  0.62245595  1
  Mn  Mn123  1  0.35713492  0.41586194  0.75208313  1
  Mn  Mn124  1  0.10761668  0.74936409  0.87309262  1
  Mn  Mn125  1  0.35725307  0.41660492  0.25225266  1
  Mn  Mn126  1  0.89229164  0.58310605  0.12819607  1
  Mn  Mn127  1  0.85842867  0.08350608  0.50203047  1
  Mn  Mn128  1  0.60699310  0.75022587  0.12291721  1
  Mn  Mn129  1  0.60831325  0.41691235  0.87286156  1
  Mn  Mn130  1  0.39182948  0.25038267  0.37773921  1
  Mn  Mn131  1  0.10757990  0.74873846  0.62244954  1
  Mn  Mn132  1  0.35736797  0.41614957  0.50266635  1
  Mn  Mn133  1  0.35673489  0.08446267  0.00245403  1
  Mn  Mn134  1  0.14275401  0.58383975  0.99751390  1
  Mn  Mn135  1  0.14118775  0.58416774  0.74735457  1
  Mn  Mn136  1  0.39209328  0.25063163  0.62741708  1
  Mn  Mn137  1  0.39146811  0.91748910  0.12702217  1
  Mn  Mn138  1  0.85821564  0.08299937  0.00231387  1
  Mn  Mn139  1  0.85814866  0.08318850  0.75302167  1
  Mn  Mn140  1  0.60750271  0.08268812  0.37320362  1
  Mn  Mn141  1  0.64170472  0.91635570  0.74807500  1
  Mn  Mn142  1  0.64257661  0.91676650  0.99750463  1
  Mn  Mn143  1  0.14098061  0.24950065  0.74755116  1
  Fe  Fe144  1  0.64328190  0.58273534  0.49849347  1
  Fe  Fe145  1  0.85774072  0.41720723  0.50121980  1
  Fe  Fe146  1  0.35704585  0.08377025  0.75272053  1
  Fe  Fe147  1  0.89325903  0.24946803  0.87767321  1
  Fe  Fe148  1  0.10537659  0.41705250  0.62370908  1
  Fe  Fe149  1  0.39131134  0.91697718  0.37637701  1
  Fe  Fe150  1  0.14269144  0.91601178  0.99742440  1
  Fe  Fe151  1  0.35725806  0.08355936  0.50157843  1
  Fe  Fe152  1  0.60693017  0.75034322  0.62254311  1
  Fe  Fe153  1  0.35808083  0.74961093  0.00106889  1
  Fe  Fe154  1  0.14356049  0.91620955  0.74879331  1
  Fe  Fe155  1  0.85681984  0.74953076  0.50184703  1
  Fe  Fe156  1  0.14136683  0.25078861  0.99832369  1
  Fe  Fe157  1  0.35648695  0.41646330  0.00181825  1
  Fe  Fe158  1  0.14348243  0.58425750  0.24869026  1
  Fe  Fe159  1  0.60753770  0.75083599  0.87415086  1
  Fe  Fe160  1  0.10656374  0.41679844  0.37331051  1
  Fe  Fe161  1  0.39268936  0.58280174  0.37711064  1
  Fe  Fe162  1  0.89147030  0.58316652  0.62649572  1
  Fe  Fe163  1  0.85796195  0.41711413  0.75227213  1
  Fe  Fe164  1  0.64192494  0.58323220  0.24827441  1
  Fe  Fe165  1  0.89345325  0.91693984  0.37631804  1
  Fe  Fe166  1  0.60694837  0.08243551  0.87280663  1
  Fe  Fe167  1  0.89206938  0.58384347  0.87684851  1
  Fe  Fe168  1  0.35702162  0.74996696  0.25162642  1
  Fe  Fe169  1  0.64342512  0.25048696  0.49913583  1
  Fe  Fe170  1  0.10726726  0.08381568  0.12302425  1
  Fe  Fe171  1  0.35817039  0.74963121  0.50230788  1
  Fe  Fe172  1  0.14267885  0.91515426  0.24891006  1
  Fe  Fe173  1  0.64362043  0.25026411  0.99836413  1
  Fe  Fe174  1  0.39262389  0.58206651  0.12700235  1
  Fe  Fe175  1  0.60800047  0.08368347  0.12331013  1
  Fe  Fe176  1  0.10660978  0.41615177  0.12274106  1
  Fe  Fe177  1  0.89198116  0.25018830  0.62634163  1
  Fe  Fe178  1  0.85761623  0.75002691  0.00138163  1
  Fe  Fe179  1  0.85702601  0.41736942  0.25078823  1
  Fe  Fe180  1  0.39262449  0.91613500  0.62724223  1
  Fe  Fe181  1  0.60757592  0.41627189  0.12294909  1
  Fe  Fe182  1  0.39269644  0.91667061  0.87672455  1
  Fe  Fe183  1  0.39391802  0.58299351  0.62669252  1
  Fe  Fe184  1  0.64343195  0.58287867  0.74842942  1
  Fe  Fe185  1  0.85769698  0.41700691  0.00236624  1
  Fe  Fe186  1  0.10691199  0.08334970  0.87310183  1
  Fe  Fe187  1  0.10824920  0.08293964  0.37386432  1
  Fe  Fe188  1  0.89401473  0.91736265  0.12697333  1
  Fe  Fe189  1  0.89349040  0.91662446  0.87681019  1
  Fe  Fe190  1  0.10583600  0.41691494  0.87354695  1
  Fe  Fe191  1  0.89329801  0.24907093  0.12596023  1
  P  P192  1  0.05264022  0.25050935  0.10955238  1
  P  P193  1  0.05326657  0.25004177  0.36028457  1
  P  P194  1  0.05108474  0.25132560  0.61030224  1
  P  P195  1  0.05316985  0.25045832  0.86163205  1
  P  P196  1  0.05493228  0.58270329  0.11124811  1
  P  P197  1  0.05387141  0.58325297  0.35917859  1
  P  P198  1  0.05102440  0.58245851  0.60977629  1
  P  P199  1  0.05147745  0.58266376  0.86037239  1
  P  P200  1  0.05515749  0.91666766  0.11055624  1
  P  P201  1  0.05346044  0.91642899  0.35985935  1
  P  P202  1  0.05515958  0.91634124  0.61142943  1
  P  P203  1  0.05446871  0.91654250  0.86066916  1
  P  P204  1  0.55441898  0.25027591  0.10909633  1
  P  P205  1  0.55498718  0.25027110  0.36120612  1
  P  P206  1  0.55420294  0.25015286  0.60954621  1
  P  P207  1  0.55502079  0.24941788  0.86125594  1
  P  P208  1  0.55350905  0.58246773  0.11129444  1
  P  P209  1  0.55414441  0.58347905  0.36059370  1
  P  P210  1  0.55501838  0.58399807  0.61055338  1
  P  P211  1  0.55448811  0.58428076  0.85963607  1
  P  P212  1  0.55317289  0.91741807  0.10998489  1
  P  P213  1  0.55088669  0.91648132  0.35982651  1
  P  P214  1  0.55177475  0.91582090  0.60968896  1
  P  P215  1  0.55200799  0.91654814  0.86014712  1
  P  P216  1  0.44796094  0.08432903  0.13965707  1
  P  P217  1  0.44541546  0.08303975  0.39039645  1
  P  P218  1  0.44421521  0.08303971  0.63971367  1
  P  P219  1  0.44612455  0.08265868  0.88904742  1
  P  P220  1  0.44662226  0.41667183  0.13887877  1
  P  P221  1  0.44685806  0.41757921  0.39019090  1
  P  P222  1  0.44734558  0.41749421  0.64027208  1
  P  P223  1  0.44607549  0.41668461  0.89097437  1
  P  P224  1  0.44393812  0.74899092  0.13929085  1
  P  P225  1  0.44385598  0.74952698  0.38876208  1
  P  P226  1  0.44658679  0.74928840  0.63840469  1
  P  P227  1  0.44774476  0.75064373  0.89043639  1
  P  P228  1  0.94835252  0.08314178  0.13942662  1
  P  P229  1  0.94888498  0.08184875  0.38983125  1
  P  P230  1  0.94687777  0.08399559  0.64048721  1
  P  P231  1  0.94805304  0.08269106  0.89020193  1
  P  P232  1  0.94575427  0.41564169  0.13924088  1
  P  P233  1  0.94553318  0.41727493  0.38864896  1
  P  P234  1  0.94458739  0.41699045  0.63902964  1
  P  P235  1  0.94519957  0.41713022  0.88956783  1
  P  P236  1  0.94597036  0.75081434  0.13870590  1
  P  P237  1  0.94627657  0.75098330  0.39059830  1
  P  P238  1  0.94485179  0.74898498  0.63899025  1
  P  P239  1  0.94609394  0.75009740  0.89062719  1
  P  P240  1  0.19417377  0.08202628  0.23553748  1
  P  P241  1  0.19751721  0.08303412  0.48485230  1
  P  P242  1  0.19624160  0.08216568  0.73662505  1
  P  P243  1  0.19363036  0.08374942  0.98576953  1
  P  P244  1  0.19401026  0.41791931  0.23576170  1
  P  P245  1  0.19402716  0.41694428  0.48588429  1
  P  P246  1  0.19345717  0.41695739  0.73534508  1
  P  P247  1  0.19509913  0.41629755  0.98544212  1
  P  P248  1  0.19806352  0.74966234  0.23526685  1
  P  P249  1  0.19891945  0.74963546  0.48518275  1
  P  P250  1  0.19696556  0.75080747  0.73484605  1
  P  P251  1  0.19877946  0.75009691  0.98453869  1
  P  P252  1  0.69663804  0.08297330  0.23397804  1
  P  P253  1  0.69715532  0.08436163  0.48488087  1
  P  P254  1  0.69555169  0.08288997  0.73612942  1
  P  P255  1  0.69506258  0.08417395  0.98543230  1
  P  P256  1  0.69713964  0.41767912  0.23381704  1
  P  P257  1  0.69861192  0.41659696  0.48539904  1
  P  P258  1  0.69879684  0.41753679  0.73558490  1
  P  P259  1  0.69717518  0.41584956  0.98614354  1
  P  P260  1  0.69641569  0.74937477  0.23500077  1
  P  P261  1  0.69614040  0.74950184  0.48628285  1
  P  P262  1  0.69414941  0.74950908  0.73580180  1
  P  P263  1  0.69740528  0.75032807  0.98456247  1
  P  P264  1  0.30082278  0.25112422  0.01521429  1
  P  P265  1  0.30261353  0.25028127  0.26495860  1
  P  P266  1  0.30240040  0.24934408  0.51551651  1
  P  P267  1  0.30267809  0.24942422  0.76572637  1
  P  P268  1  0.30440445  0.58257233  0.01524489  1
  P  P269  1  0.30427810  0.58322780  0.26444765  1
  P  P270  1  0.30532920  0.58345028  0.51485749  1
  P  P271  1  0.30429371  0.58285050  0.76375986  1
  P  P272  1  0.30328503  0.91658424  0.01324832  1
  P  P273  1  0.30239593  0.91633283  0.26491000  1
  P  P274  1  0.30584892  0.91666444  0.51444587  1
  P  P275  1  0.30475692  0.91745894  0.76476972  1
  P  P276  1  0.80496088  0.25012323  0.01425869  1
  P  P277  1  0.80529525  0.25081782  0.26289092  1
  P  P278  1  0.80313972  0.25066659  0.51527988  1
  P  P279  1  0.80605857  0.25072617  0.76506677  1
  P  P280  1  0.80514073  0.58381072  0.01366313  1
  P  P281  1  0.80152606  0.58246588  0.26473229  1
  P  P282  1  0.80300069  0.58361193  0.51520013  1
  P  P283  1  0.80407754  0.58292289  0.76462601  1
  P  P284  1  0.80590946  0.91594404  0.01446401  1
  P  P285  1  0.80556944  0.91689563  0.26457189  1
  P  P286  1  0.80452017  0.91598777  0.51387219  1
  P  P287  1  0.80376455  0.91679421  0.76638424  1
  O  O288  1  0.05572191  0.25077220  0.18624654  1
  O  O289  1  0.05566936  0.25027074  0.43707185  1
  O  O290  1  0.05455009  0.25047783  0.68703343  1
  O  O291  1  0.05763009  0.25059404  0.93829965  1
  O  O292  1  0.05956393  0.58419239  0.18788515  1
  O  O293  1  0.05644855  0.58407379  0.43597918  1
  O  O294  1  0.05477739  0.58364151  0.68646558  1
  O  O295  1  0.05579574  0.58319570  0.93702829  1
  O  O296  1  0.05968067  0.91514379  0.18723121  1
  O  O297  1  0.05712639  0.91548474  0.43660570  1
  O  O298  1  0.05963522  0.91606120  0.68815274  1
  O  O299  1  0.05915629  0.91541839  0.93743331  1
  O  O300  1  0.55678579  0.25058272  0.18598342  1
  O  O301  1  0.55992293  0.25064388  0.43789195  1
  O  O302  1  0.55757963  0.25036999  0.68636095  1
  O  O303  1  0.55965773  0.25052990  0.93793076  1
  O  O304  1  0.55808434  0.58301080  0.18798864  1
  O  O305  1  0.55961652  0.58310011  0.43726985  1
  O  O306  1  0.55975891  0.58274670  0.68722079  1
  O  O307  1  0.55704457  0.58326005  0.93649705  1
  O  O308  1  0.55618865  0.91662661  0.18672663  1
  O  O309  1  0.55505224  0.91636096  0.43651019  1
  O  O310  1  0.55578528  0.91646581  0.68633978  1
  O  O311  1  0.55580306  0.91676149  0.93681155  1
  O  O312  1  0.44355357  0.08429770  0.06297581  1
  O  O313  1  0.44261937  0.08393434  0.31357645  1
  O  O314  1  0.44030256  0.08413512  0.56294969  1
  O  O315  1  0.44120138  0.08370395  0.81238640  1
  O  O316  1  0.44126476  0.41610548  0.06230709  1
  O  O317  1  0.44352714  0.41684178  0.31341808  1
  O  O318  1  0.44392150  0.41675097  0.56355024  1
  O  O319  1  0.44261081  0.41625339  0.81421480  1
  O  O320  1  0.44028951  0.74991970  0.06245863  1
  O  O321  1  0.44008783  0.74963744  0.31190808  1
  O  O322  1  0.44231499  0.74929645  0.56170036  1
  O  O323  1  0.44456097  0.74989007  0.81365675  1
  O  O324  1  0.94469916  0.08298853  0.06278829  1
  O  O325  1  0.94534875  0.08253787  0.31316322  1
  O  O326  1  0.94401448  0.08302381  0.56368838  1
  O  O327  1  0.94444232  0.08273446  0.81356572  1
  O  O328  1  0.94108534  0.41676972  0.06250258  1
  O  O329  1  0.94084197  0.41769131  0.31200999  1
  O  O330  1  0.94064275  0.41713696  0.56222416  1
  O  O331  1  0.94125537  0.41744094  0.81279029  1
  O  O332  1  0.94158962  0.74979261  0.06205309  1
  O  O333  1  0.94363830  0.74973259  0.31375994  1
  O  O334  1  0.94058052  0.74951815  0.56226565  1
  O  O335  1  0.94318299  0.75014253  0.81381182  1
  O  O336  1  0.18977737  0.08388933  0.06265212  1
  O  O337  1  0.19071538  0.08290714  0.31236211  1
  O  O338  1  0.19376448  0.08326833  0.56161301  1
  O  O339  1  0.19086162  0.08328777  0.81328978  1
  O  O340  1  0.19034547  0.41653341  0.06217041  1
  O  O341  1  0.18990561  0.41691401  0.31254125  1
  O  O342  1  0.18925793  0.41697821  0.56261847  1
  O  O343  1  0.18884657  0.41725079  0.81213077  1
  O  O344  1  0.19512689  0.74965123  0.06123443  1
  O  O345  1  0.19468957  0.74947710  0.31191859  1
  O  O346  1  0.19437247  0.74944433  0.56181328  1
  O  O347  1  0.19343395  0.74967500  0.81159623  1
  O  O348  1  0.69105894  0.08313538  0.06219116  1
  O  O349  1  0.69316297  0.08288525  0.31076582  1
  O  O350  1  0.69380690  0.08319637  0.56167748  1
  O  O351  1  0.69094189  0.08232593  0.81289738  1
  O  O352  1  0.69198657  0.41637708  0.06273593  1
  O  O353  1  0.69387821  0.41698180  0.31057733  1
  O  O354  1  0.69538278  0.41660490  0.56207629  1
  O  O355  1  0.69497782  0.41692678  0.81224689  1
  O  O356  1  0.69307174  0.75068850  0.06123012  1
  O  O357  1  0.69311108  0.75015957  0.31178709  1
  O  O358  1  0.69133181  0.75066431  0.56296794  1
  O  O359  1  0.69020591  0.75084709  0.81256526  1
  O  O360  1  0.30606841  0.25064667  0.18820558  1
  O  O361  1  0.30534580  0.25038944  0.43874005  1
  O  O362  1  0.30619559  0.25012522  0.68898597  1
  O  O363  1  0.30500456  0.25042722  0.93855998  1
  O  O364  1  0.30878781  0.58187475  0.18773958  1
  O  O365  1  0.30902399  0.58245723  0.43805190  1
  O  O366  1  0.30926389  0.58271123  0.68709703  1
  O  O367  1  0.30687394  0.58241650  0.93842097  1
  O  O368  1  0.30561681  0.91749841  0.18813548  1
  O  O369  1  0.30886340  0.91657963  0.43759306  1
  O  O370  1  0.30931446  0.91649007  0.68803009  1
  O  O371  1  0.30835369  0.91711369  0.93660711  1
  O  O372  1  0.80969885  0.24928854  0.18617377  1
  O  O373  1  0.80655493  0.24976438  0.43847117  1
  O  O374  1  0.80972792  0.24964508  0.68826180  1
  O  O375  1  0.80983791  0.24906693  0.93751558  1
  O  O376  1  0.80553830  0.58331673  0.18803594  1
  O  O377  1  0.80642514  0.58379674  0.43850914  1
  O  O378  1  0.80818901  0.58359027  0.68791701  1
  O  O379  1  0.80883530  0.58373839  0.93688053  1
  O  O380  1  0.81011586  0.91743242  0.18780121  1
  O  O381  1  0.80909012  0.91684283  0.43716115  1
  O  O382  1  0.80694143  0.91704114  0.68957023  1
  O  O383  1  0.81027613  0.91707428  0.93772718  1
  O  O384  1  0.23070458  0.25075907  0.03952816  1
  O  O385  1  0.23280023  0.25007872  0.28965678  1
  O  O386  1  0.23285258  0.24928545  0.54115635  1
  O  O387  1  0.23281512  0.25014733  0.79032125  1
  O  O388  1  0.23476450  0.58328961  0.04067976  1
  O  O389  1  0.23394888  0.58315215  0.28830204  1
  O  O390  1  0.23529662  0.58318159  0.53923439  1
  O  O391  1  0.23415992  0.58313971  0.78759539  1
  O  O392  1  0.23283330  0.91688637  0.03673939  1
  O  O393  1  0.23248039  0.91583103  0.28990898  1
  O  O394  1  0.23597378  0.91698196  0.53934552  1
  O  O395  1  0.23445372  0.91674706  0.78852932  1
  O  O396  1  0.73454573  0.24991963  0.03761120  1
  O  O397  1  0.73525227  0.25084432  0.28695275  1
  O  O398  1  0.73327325  0.25044991  0.54040006  1
  O  O399  1  0.73606824  0.25036312  0.78936398  1
  O  O400  1  0.73514090  0.58371326  0.03802411  1
  O  O401  1  0.73163184  0.58282033  0.28952672  1
  O  O402  1  0.73292939  0.58334634  0.53995094  1
  O  O403  1  0.73385674  0.58345152  0.78874067  1
  O  O404  1  0.73567694  0.91673448  0.03812602  1
  O  O405  1  0.73544123  0.91632482  0.28849686  1
  O  O406  1  0.73450002  0.91652500  0.53821842  1
  O  O407  1  0.73398823  0.91625114  0.79111772  1
  O  O408  1  0.26402488  0.08321188  0.21059813  1
  O  O409  1  0.26753841  0.08270658  0.46045087  1
  O  O410  1  0.26660639  0.08255218  0.71323774  1
  O  O411  1  0.26372705  0.08361259  0.96166990  1
  O  O412  1  0.26413888  0.41719361  0.21181363  1
  O  O413  1  0.26422808  0.41708045  0.46223858  1
  O  O414  1  0.26366730  0.41646586  0.71177785  1
  O  O415  1  0.26548772  0.41702602  0.96185140  1
  O  O416  1  0.26806041  0.75013777  0.21034886  1
  O  O417  1  0.26904716  0.74960816  0.46122311  1
  O  O418  1  0.26678046  0.75045626  0.71018620  1
  O  O419  1  0.26877519  0.74948906  0.95975853  1
  O  O420  1  0.76646631  0.08327281  0.20921869  1
  O  O421  1  0.76680125  0.08406576  0.45954839  1
  O  O422  1  0.76566041  0.08325393  0.71239467  1
  O  O423  1  0.76529172  0.08341507  0.96160301  1
  O  O424  1  0.76713419  0.41693978  0.20900630  1
  O  O425  1  0.76853608  0.41709308  0.46019632  1
  O  O426  1  0.76884257  0.41715109  0.71111651  1
  O  O427  1  0.76764591  0.41653767  0.96280811  1
  O  O428  1  0.76612040  0.74977410  0.20994553  1
  O  O429  1  0.76644314  0.74914856  0.46244663  1
  O  O430  1  0.76429332  0.75016723  0.71191160  1
  O  O431  1  0.76759047  0.74993448  0.96059121  1
  O  O432  1  0.01845267  0.08332092  0.16391146  1
  O  O433  1  0.01878460  0.08248440  0.41491899  1
  O  O434  1  0.01644020  0.08393660  0.66601518  1
  O  O435  1  0.01811222  0.08270208  0.91478781  1
  O  O436  1  0.01617391  0.41634743  0.16260623  1
  O  O437  1  0.01594177  0.41706602  0.41220026  1
  O  O438  1  0.01473229  0.41719285  0.66350990  1
  O  O439  1  0.01552758  0.41646082  0.91363152  1
  O  O440  1  0.01603137  0.75080926  0.16275354  1
  O  O441  1  0.01588237  0.74993619  0.41606171  1
  O  O442  1  0.01478289  0.74953412  0.66340904  1
  O  O443  1  0.01578493  0.74970352  0.91598552  1
  O  O444  1  0.51801674  0.08417644  0.16396746  1
  O  O445  1  0.51506771  0.08307711  0.41575773  1
  O  O446  1  0.51431977  0.08345661  0.66381455  1
  O  O447  1  0.51653255  0.08300583  0.91247477  1
  O  O448  1  0.51700067  0.41640195  0.16250461  1
  O  O449  1  0.51657506  0.41752285  0.41520098  1
  O  O450  1  0.51706682  0.41672728  0.66534074  1
  O  O451  1  0.51604600  0.41725173  0.91528944  1
  O  O452  1  0.51393403  0.74979524  0.16366192  1
  O  O453  1  0.51384849  0.74963789  0.41320965  1
  O  O454  1  0.51677600  0.74961475  0.66254166  1
  O  O455  1  0.51767957  0.75006709  0.91548011  1
  O  O456  1  0.48484313  0.25001681  0.08343291  1
  O  O457  1  0.48485814  0.25022694  0.33740900  1
  O  O458  1  0.48435190  0.25034273  0.58496294  1
  O  O459  1  0.48488454  0.24951127  0.83736890  1
  O  O460  1  0.48320864  0.58291992  0.08748028  1
  O  O461  1  0.48361080  0.58348107  0.33761169  1
  O  O462  1  0.48468172  0.58375382  0.58682331  1
  O  O463  1  0.48485543  0.58371013  0.83433814  1
  O  O464  1  0.48342591  0.91710954  0.08491012  1
  O  O465  1  0.48078589  0.91678495  0.33551128  1
  O  O466  1  0.48159010  0.91612203  0.58562558  1
  O  O467  1  0.48207624  0.91632903  0.83518528  1
  O  O468  1  0.98264986  0.24980407  0.08461241  1
  O  O469  1  0.98378197  0.24981161  0.33446910  1
  O  O470  1  0.98126230  0.25091796  0.58514991  1
  O  O471  1  0.98277184  0.25060862  0.83792191  1
  O  O472  1  0.98477459  0.58226473  0.08755105  1
  O  O473  1  0.98422760  0.58385792  0.33371376  1
  O  O474  1  0.98105951  0.58227964  0.58509473  1
  O  O475  1  0.98131013  0.58335551  0.83618636  1
  O  O476  1  0.98471695  0.91666170  0.08701245  1
  O  O477  1  0.98352088  0.91641987  0.33503270  1
  O  O478  1  0.98505243  0.91648292  0.58766355  1
  O  O479  1  0.98400694  0.91625952  0.83717720  1
  O  O480  1  0.08620147  0.31570298  0.07664261  1
  O  O481  1  0.08719678  0.31521390  0.32788454  1
  O  O482  1  0.08480820  0.31648402  0.57801950  1
  O  O483  1  0.08623672  0.31546632  0.82826324  1
  O  O484  1  0.08797404  0.64764566  0.07724074  1
  O  O485  1  0.08866827  0.64806251  0.32671667  1
  O  O486  1  0.08491594  0.64737217  0.57661344  1
  O  O487  1  0.08539456  0.64757397  0.82729986  1
  O  O488  1  0.08837061  0.98198887  0.07787865  1
  O  O489  1  0.08771166  0.98140263  0.32765484  1
  O  O490  1  0.08859457  0.98151669  0.57849780  1
  O  O491  1  0.08775958  0.98184352  0.82791476  1
  O  O492  1  0.58882285  0.31541356  0.07688547  1
  O  O493  1  0.58835421  0.31530420  0.32773598  1
  O  O494  1  0.58858762  0.31503994  0.57695809  1
  O  O495  1  0.58838122  0.31451635  0.82775206  1
  O  O496  1  0.58694441  0.64747215  0.07790930  1
  O  O497  1  0.58720414  0.64854334  0.32705692  1
  O  O498  1  0.58821244  0.64921324  0.57745516  1
  O  O499  1  0.58848522  0.64958796  0.82789600  1
  O  O500  1  0.58716858  0.98255163  0.07778472  1
  O  O501  1  0.58505091  0.98135491  0.32731045  1
  O  O502  1  0.58537309  0.98090365  0.57667871  1
  O  O503  1  0.58575827  0.98154037  0.82712319  1
  O  O504  1  0.41397874  0.01925314  0.17229394  1
  O  O505  1  0.41112127  0.01781633  0.42217288  1
  O  O506  1  0.41090102  0.01752893  0.67219441  1
  O  O507  1  0.41310902  0.01734999  0.92202998  1
  O  O508  1  0.41328624  0.35174637  0.17252696  1
  O  O509  1  0.41271397  0.35266506  0.42295329  1
  O  O510  1  0.41283419  0.35271580  0.67295698  1
  O  O511  1  0.41216256  0.35177728  0.92405634  1
  O  O512  1  0.41067244  0.68357873  0.17186788  1
  O  O513  1  0.41043800  0.68429510  0.42175490  1
  O  O514  1  0.41345878  0.68415672  0.67173407  1
  O  O515  1  0.41335465  0.68579118  0.92304338  1
  O  O516  1  0.91487111  0.01804802  0.17233065  1
  O  O517  1  0.91516786  0.01674599  0.42239271  1
  O  O518  1  0.91270657  0.01906900  0.67319556  1
  O  O519  1  0.91439066  0.01762347  0.92295409  1
  O  O520  1  0.91276928  0.35027210  0.17190629  1
  O  O521  1  0.91208540  0.35233018  0.42203406  1
  O  O522  1  0.91126281  0.35186043  0.67214084  1
  O  O523  1  0.91141569  0.35211075  0.92248317  1
  O  O524  1  0.91264737  0.68579628  0.17239208  1
  O  O525  1  0.91110086  0.68634986  0.42293089  1
  O  O526  1  0.91150091  0.68359537  0.67166531  1
  O  O527  1  0.91155607  0.68516294  0.92284975  1
  O  O528  1  0.16102594  0.01648601  0.20319600  1
  O  O529  1  0.16342667  0.01812552  0.45214636  1
  O  O530  1  0.16343330  0.01689249  0.70353302  1
  O  O531  1  0.16003557  0.01862334  0.95287140  1
  O  O532  1  0.16002543  0.35318923  0.20218063  1
  O  O533  1  0.16055578  0.35190981  0.45261017  1
  O  O534  1  0.15963114  0.35201786  0.70230038  1
  O  O535  1  0.16178655  0.35119404  0.95219812  1
  O  O536  1  0.16458641  0.68453515  0.20226647  1
  O  O537  1  0.16521617  0.68475537  0.45214023  1
  O  O538  1  0.16278435  0.68593616  0.70189019  1
  O  O539  1  0.16469926  0.68512702  0.95182423  1
  O  O540  1  0.66256484  0.01796255  0.20142275  1
  O  O541  1  0.66290530  0.01938586  0.45211103  1
  O  O542  1  0.66230558  0.01785536  0.70262471  1
  O  O543  1  0.66105630  0.01941494  0.95200375  1
  O  O544  1  0.66276591  0.35290436  0.20096693  1
  O  O545  1  0.66501190  0.35150044  0.45265359  1
  O  O546  1  0.66504782  0.35264193  0.70253431  1
  O  O547  1  0.66450282  0.35066873  0.95259519  1
  O  O548  1  0.66254986  0.68407525  0.20281350  1
  O  O549  1  0.66261229  0.68424559  0.45370613  1
  O  O550  1  0.66110413  0.68392841  0.70327168  1
  O  O551  1  0.66332955  0.68546846  0.95181664  1
  O  O552  1  0.33455175  0.31628324  0.04777250  1
  O  O553  1  0.33640497  0.31525963  0.29784630  1
  O  O554  1  0.33645617  0.31437662  0.54826420  1
  O  O555  1  0.33690750  0.31429919  0.79837807  1
  O  O556  1  0.33924486  0.64743873  0.04712945  1
  O  O557  1  0.33767915  0.64856134  0.29696162  1
  O  O558  1  0.33908988  0.64873799  0.54733551  1
  O  O559  1  0.33789486  0.64796896  0.79679273  1
  O  O560  1  0.33622378  0.98165671  0.04709453  1
  O  O561  1  0.33616677  0.98137741  0.29781651  1
  O  O562  1  0.33979380  0.98167205  0.54707131  1
  O  O563  1  0.33784432  0.98261282  0.79799082  1
  O  O564  1  0.83833069  0.31521689  0.04718400  1
  O  O565  1  0.83858363  0.31629140  0.29523619  1
  O  O566  1  0.83719751  0.31591895  0.54729843  1
  O  O567  1  0.83959313  0.31610116  0.79740124  1
  O  O568  1  0.83863691  0.64887810  0.04662646  1
  O  O569  1  0.83557642  0.64730506  0.29773941  1
  O  O570  1  0.83676784  0.64853119  0.54829153  1
  O  O571  1  0.83779084  0.64778156  0.79800679  1
  O  O572  1  0.83981583  0.98069068  0.04807496  1
  O  O573  1  0.83898778  0.98192529  0.29797798  1
  O  O574  1  0.83833785  0.98085928  0.54723608  1
  O  O575  1  0.83785249  0.98168114  0.79918471  1
  O  O576  1  0.41420795  0.14926772  0.17253534  1
  O  O577  1  0.41108016  0.14783984  0.42327177  1
  O  O578  1  0.41029194  0.14770092  0.67335070  1
  O  O579  1  0.41274198  0.14740520  0.92303086  1
  O  O580  1  0.41348039  0.48186597  0.17223172  1
  O  O581  1  0.41282583  0.48275421  0.42231952  1
  O  O582  1  0.41373065  0.48294808  0.67242081  1
  O  O583  1  0.41186189  0.48168078  0.92331802  1
  O  O584  1  0.40964775  0.81375000  0.17229713  1
  O  O585  1  0.41003588  0.81453685  0.42155108  1
  O  O586  1  0.41301413  0.81431316  0.67157539  1
  O  O587  1  0.41364816  0.81577075  0.92268566  1
  O  O588  1  0.91465384  0.14824044  0.17210597  1
  O  O589  1  0.91460216  0.14680893  0.42243603  1
  O  O590  1  0.91269225  0.14929197  0.67213927  1
  O  O591  1  0.91431010  0.14775737  0.92299710  1
  O  O592  1  0.91205889  0.48027879  0.17318424  1
  O  O593  1  0.91231521  0.48224566  0.42226835  1
  O  O594  1  0.91087587  0.48198224  0.67217979  1
  O  O595  1  0.91206513  0.48221932  0.92293277  1
  O  O596  1  0.91244116  0.81601466  0.17130403  1
  O  O597  1  0.91244944  0.81641161  0.42241668  1
  O  O598  1  0.91100855  0.81375980  0.67232418  1
  O  O599  1  0.91212411  0.81530478  0.92294298  1
  O  O600  1  0.08716976  0.18571140  0.07725160  1
  O  O601  1  0.08769497  0.18491006  0.32848369  1
  O  O602  1  0.08538448  0.18635580  0.57775686  1
  O  O603  1  0.08617583  0.18515828  0.82837913  1
  O  O604  1  0.08836051  0.51744468  0.07857853  1
  O  O605  1  0.08792573  0.51801001  0.32730337  1
  O  O606  1  0.08502814  0.51737725  0.57759216  1
  O  O607  1  0.08467634  0.51745331  0.82755332  1
  O  O608  1  0.08859892  0.85200777  0.07636640  1
  O  O609  1  0.08731671  0.85139919  0.32667916  1
  O  O610  1  0.08846649  0.85139850  0.57785099  1
  O  O611  1  0.08800505  0.85177195  0.82701465  1
  O  O612  1  0.58910920  0.18530689  0.07719979  1
  O  O613  1  0.58843334  0.18521270  0.32805026  1
  O  O614  1  0.58817359  0.18509683  0.57702473  1
  O  O615  1  0.58847696  0.18422387  0.82850499  1
  O  O616  1  0.58682036  0.51739656  0.07803552  1
  O  O617  1  0.58753066  0.51862918  0.32689225  1
  O  O618  1  0.58858868  0.51918448  0.57676247  1
  O  O619  1  0.58923965  0.51952607  0.82698994  1
  O  O620  1  0.58725436  0.85238995  0.07728661  1
  O  O621  1  0.58439020  0.85137044  0.32691484  1
  O  O622  1  0.58531308  0.85077211  0.57679862  1
  O  O623  1  0.58590650  0.85135478  0.82777510  1
  O  O624  1  0.33460579  0.18609110  0.04818542  1
  O  O625  1  0.33665559  0.18514143  0.29710853  1
  O  O626  1  0.33668857  0.18413711  0.54721619  1
  O  O627  1  0.33619476  0.18410177  0.79829903  1
  O  O628  1  0.33812572  0.51725036  0.04794101  1
  O  O629  1  0.33776880  0.51858955  0.29846592  1
  O  O630  1  0.33927843  0.51875854  0.54828914  1
  O  O631  1  0.33749510  0.51790643  0.79726054  1
  O  O632  1  0.33643089  0.85142117  0.04622772  1
  O  O633  1  0.33692536  0.85144166  0.29695214  1
  O  O634  1  0.33951413  0.85140783  0.54726169  1
  O  O635  1  0.33866580  0.85265139  0.79810268  1
  O  O636  1  0.83833676  0.18520075  0.04797229  1
  O  O637  1  0.83863826  0.18597211  0.29676773  1
  O  O638  1  0.83743640  0.18589160  0.54821212  1
  O  O639  1  0.83999610  0.18602079  0.79863380  1
  O  O640  1  0.83867632  0.51866456  0.04664780  1
  O  O641  1  0.83538565  0.51728698  0.29697596  1
  O  O642  1  0.83708923  0.51853499  0.54766146  1
  O  O643  1  0.83759687  0.51785111  0.79758248  1
  O  O644  1  0.83898093  0.85057550  0.04724371  1
  O  O645  1  0.83951006  0.85200969  0.29749708  1
  O  O646  1  0.83766930  0.85056909  0.54672756  1
  O  O647  1  0.83833094  0.85189302  0.79854837  1
  O  O648  1  0.15954802  0.14667901  0.20251309  1
  O  O649  1  0.16352841  0.14794895  0.45204792  1
  O  O650  1  0.16296543  0.14717041  0.70287285  1
  O  O651  1  0.16000847  0.14888422  0.95287205  1
  O  O652  1  0.16086994  0.48320484  0.20292624  1
  O  O653  1  0.16050530  0.48188071  0.45251612  1
  O  O654  1  0.16009659  0.48191840  0.70185774  1
  O  O655  1  0.16141400  0.48119587  0.95198714  1
  O  O656  1  0.16403620  0.81465914  0.20266612  1
  O  O657  1  0.16546494  0.81474468  0.45221713  1
  O  O658  1  0.16338004  0.81623900  0.70285139  1
  O  O659  1  0.16499565  0.81515645  0.95205262  1
  O  O660  1  0.66239304  0.14799302  0.20151771  1
  O  O661  1  0.66330888  0.14975560  0.45305107  1
  O  O662  1  0.66203832  0.14802560  0.70335320  1
  O  O663  1  0.66198892  0.14952452  0.95268744  1
  O  O664  1  0.66325488  0.48285462  0.20147532  1
  O  O665  1  0.66442629  0.48169286  0.45300554  1
  O  O666  1  0.66519305  0.48266967  0.70291294  1
  O  O667  1  0.66382017  0.48081319  0.95266389  1
  O  O668  1  0.66225838  0.81431882  0.20232261  1
  O  O669  1  0.66304245  0.81438993  0.45227440  1
  O  O670  1  0.66014371  0.81402566  0.70199009  1
  O  O671  1  0.66379984  0.81533437  0.95134994  1
