# generated using pymatgen
data_Na2MnFe(PO4)2
_symmetry_space_group_name_H-M   'P 1'
_cell_length_a   21.09505985
_cell_length_b   18.94924369
_cell_length_c   20.05356008
_cell_angle_alpha   89.99931757
_cell_angle_beta   90.00215457
_cell_angle_gamma   89.99989273
_symmetry_Int_Tables_number   1
_chemical_formula_structural   Na2MnFe(PO4)2
_chemical_formula_sum   'Na96 Mn48 Fe48 P96 O384'
_cell_volume   8016.11845316
_cell_formula_units_Z   48
loop_
 _symmetry_equiv_pos_site_id
 _symmetry_equiv_pos_as_xyz
  1  'x, y, z'
loop_
 _atom_site_type_symbol
 _atom_site_label
 _atom_site_symmetry_multiplicity
 _atom_site_fract_x
 _atom_site_fract_y
 _atom_site_fract_z
 _atom_site_occupancy
  Na  Na0  1  -0.00001050  -0.00034094  -0.00035931  1
  Na  Na1  1  -0.00211561  -0.00075278  0.24971185  1
  Na  Na2  1  0.00060559  0.00125900  0.50045556  1
  Na  Na3  1  -0.00046996  -0.00042400  0.74985188  1
  Na  Na4  1  -0.00097079  0.33380027  -0.00044370  1
  Na  Na5  1  0.00073014  0.33388722  0.25003423  1
  Na  Na6  1  0.00217532  0.33452723  0.49906766  1
  Na  Na7  1  -0.00138601  0.33304711  0.75139821  1
  Na  Na8  1  0.00159125  0.66725295  0.00051092  1
  Na  Na9  1  -0.00130046  0.66636055  0.24998858  1
  Na  Na10  1  -0.00182435  0.66654380  0.49917879  1
  Na  Na11  1  0.00019291  0.66667287  0.74986624  1
  Na  Na12  1  0.50090979  -0.00016808  0.00067669  1
  Na  Na13  1  0.49954159  -0.00041561  0.25050930  1
  Na  Na14  1  0.49857002  -0.00049377  0.49933587  1
  Na  Na15  1  0.50060522  -0.00012760  0.74983296  1
  Na  Na16  1  0.50090575  0.33403656  0.00002590  1
  Na  Na17  1  0.49789350  0.33294404  0.25040544  1
  Na  Na18  1  0.49990700  0.33356847  0.49928660  1
  Na  Na19  1  0.50052524  0.33353153  0.74954253  1
  Na  Na20  1  0.50090644  0.66658097  -0.00012682  1
  Na  Na21  1  0.50012988  0.66690197  0.24910905  1
  Na  Na22  1  0.49979713  0.66646075  0.50082917  1
  Na  Na23  1  0.50138248  0.66661883  0.75122744  1
  Na  Na24  1  0.25111340  0.00025034  0.12600517  1
  Na  Na25  1  0.25213989  0.00090980  0.37589145  1
  Na  Na26  1  0.24866735  -0.00014638  0.62348578  1
  Na  Na27  1  0.24733156  -0.00098005  0.87536004  1
  Na  Na28  1  0.25089698  0.33413466  0.12597290  1
  Na  Na29  1  0.25065212  0.33357457  0.37357794  1
  Na  Na30  1  0.24899385  0.33309362  0.62422958  1
  Na  Na31  1  0.24939438  0.33368411  0.87575129  1
  Na  Na32  1  0.25030763  0.66655601  0.12534199  1
  Na  Na33  1  0.25096196  0.66640731  0.37485145  1
  Na  Na34  1  0.24977718  0.66603041  0.62413374  1
  Na  Na35  1  0.25054753  0.66708381  0.87518349  1
  Na  Na36  1  0.75019721  -0.00054361  0.12438691  1
  Na  Na37  1  0.74932351  -0.00103599  0.37386019  1
  Na  Na38  1  0.75173769  0.00030025  0.62502386  1
  Na  Na39  1  0.75251458  0.00056200  0.87585097  1
  Na  Na40  1  0.74999501  0.33408374  0.12526922  1
  Na  Na41  1  0.74930660  0.33272499  0.37375158  1
  Na  Na42  1  0.74993709  0.33340251  0.62557663  1
  Na  Na43  1  0.74980996  0.33414489  0.87552826  1
  Na  Na44  1  0.74868721  0.66598656  0.12507435  1
  Na  Na45  1  0.75179820  0.66739527  0.37438736  1
  Na  Na46  1  0.74992740  0.66650968  0.62503094  1
  Na  Na47  1  0.74753607  0.66581471  0.87618194  1
  Na  Na48  1  0.00053371  0.16647613  -0.00061459  1
  Na  Na49  1  -0.00134072  0.16740359  0.25074437  1
  Na  Na50  1  0.00093540  0.16612032  0.49914423  1
  Na  Na51  1  0.00063270  0.16637977  0.75017387  1
  Na  Na52  1  -0.00026600  0.49975467  0.00009830  1
  Na  Na53  1  -0.00046465  0.49965924  0.24876618  1
  Na  Na54  1  -0.00015210  0.49984118  0.49975533  1
  Na  Na55  1  -0.00204864  0.50068587  0.75126587  1
  Na  Na56  1  -0.00065903  0.83390437  -0.00009894  1
  Na  Na57  1  -0.00020688  0.83279399  0.25059351  1
  Na  Na58  1  -0.00052539  0.83312013  0.49959094  1
  Na  Na59  1  0.00062392  0.83285520  0.74996904  1
  Na  Na60  1  0.49978054  0.16724822  -0.00017508  1
  Na  Na61  1  0.49681685  0.16816812  0.25094218  1
  Na  Na62  1  0.49924728  0.16625907  0.49949881  1
  Na  Na63  1  0.49993369  0.16691823  0.75017696  1
  Na  Na64  1  0.50059588  0.49949598  0.00025600  1
  Na  Na65  1  0.49753787  0.50041893  0.24967087  1
  Na  Na66  1  0.49647417  0.50097889  0.50019397  1
  Na  Na67  1  0.50093285  0.49977316  0.75004811  1
  Na  Na68  1  0.50255536  0.83268640  0.00056654  1
  Na  Na69  1  0.50239033  0.83302170  0.24911884  1
  Na  Na70  1  0.50216273  0.83339093  0.49975247  1
  Na  Na71  1  0.50154868  0.83323246  0.75052924  1
  Na  Na72  1  0.25165574  0.16646289  0.12623324  1
  Na  Na73  1  0.25078506  0.16650263  0.37420340  1
  Na  Na74  1  0.24784685  0.16720669  0.62397505  1
  Na  Na75  1  0.24899066  0.16664561  0.87516960  1
  Na  Na76  1  0.25148302  0.49965517  0.12584133  1
  Na  Na77  1  0.25273468  0.49940547  0.37426698  1
  Na  Na78  1  0.25185212  0.49960295  0.62421888  1
  Na  Na79  1  0.25065384  0.50014439  0.87545580  1
  Na  Na80  1  0.24889846  0.83355508  0.12553573  1
  Na  Na81  1  0.25106581  0.83265510  0.37567924  1
  Na  Na82  1  0.24779420  0.83435036  0.62356613  1
  Na  Na83  1  0.24808876  0.83296345  0.87545854  1
  Na  Na84  1  0.75109526  0.16686217  0.12561986  1
  Na  Na85  1  0.75225211  0.16598225  0.37364924  1
  Na  Na86  1  0.75134455  0.16623485  0.62495680  1
  Na  Na87  1  0.74965303  0.16739578  0.87545467  1
  Na  Na88  1  0.74907387  0.49973486  0.12440171  1
  Na  Na89  1  0.75132520  0.49917849  0.37473630  1
  Na  Na90  1  0.75131706  0.49989352  0.62472341  1
  Na  Na91  1  0.74995230  0.49941709  0.87628388  1
  Na  Na92  1  0.74856510  0.83351567  0.12476388  1
  Na  Na93  1  0.74897574  0.83323396  0.37331574  1
  Na  Na94  1  0.74897105  0.83341166  0.62614262  1
  Na  Na95  1  0.74968359  0.83312320  0.87607583  1
  Mn  Mn96  1  0.64273335  0.24993068  0.74743800  1
  Mn  Mn97  1  0.60837507  0.75000736  0.62258402  1
  Mn  Mn98  1  0.39159797  0.91631834  0.87727093  1
  Mn  Mn99  1  0.89282230  0.25067350  0.37743253  1
  Mn  Mn100  1  0.89189368  0.58334108  0.62749812  1
  Mn  Mn101  1  0.35874363  0.75039670  0.25223255  1
  Mn  Mn102  1  0.10796028  0.74956399  0.87318713  1
  Mn  Mn103  1  0.14264385  0.58249995  0.49726876  1
  Mn  Mn104  1  0.14264282  0.58350850  0.24798660  1
  Mn  Mn105  1  0.85692413  0.74929574  0.00265705  1
  Mn  Mn106  1  0.10725500  0.41717850  0.87364639  1
  Mn  Mn107  1  0.39230556  0.91612547  0.62773838  1
  Mn  Mn108  1  0.39187157  0.25005770  0.62699085  1
  Mn  Mn109  1  0.64199803  0.58294875  0.24823097  1
  Mn  Mn110  1  0.10766681  0.41693289  0.62280860  1
  Mn  Mn111  1  0.14307593  0.24994003  0.24725785  1
  Mn  Mn112  1  0.64209780  0.24979099  0.24769844  1
  Mn  Mn113  1  0.60843253  0.08334912  0.87271314  1
  Mn  Mn114  1  0.60801620  0.41653026  0.62254259  1
  Mn  Mn115  1  0.89255458  0.25032301  0.62636702  1
  Mn  Mn116  1  0.89158014  0.25013542  0.87806775  1
  Mn  Mn117  1  0.60751292  0.08345442  0.37289963  1
  Mn  Mn118  1  0.39212521  0.25012528  0.87756205  1
  Mn  Mn119  1  0.85786180  0.08416055  0.00289731  1
  Mn  Mn120  1  0.60756584  0.08411272  0.12332353  1
  Mn  Mn121  1  0.35721939  0.75089039  0.75195707  1
  Mn  Mn122  1  0.10755339  0.08329416  0.12324690  1
  Mn  Mn123  1  0.35866277  0.74999551  0.50253175  1
  Mn  Mn124  1  0.35799014  0.41639913  0.75259166  1
  Mn  Mn125  1  0.14235619  0.91708466  0.49687528  1
  Mn  Mn126  1  0.14260020  0.91668882  0.24833348  1
  Mn  Mn127  1  0.64215165  0.58324445  0.49708283  1
  Mn  Mn128  1  0.60665436  0.41728910  0.37299569  1
  Mn  Mn129  1  0.89126818  0.91643756  0.37751065  1
  Mn  Mn130  1  0.14145250  0.24981247  0.74736874  1
  Mn  Mn131  1  0.89224706  0.58348121  0.12702764  1
  Mn  Mn132  1  0.35682672  0.08280156  0.75188610  1
  Mn  Mn133  1  0.64318163  0.91694919  0.74839800  1
  Mn  Mn134  1  0.39269401  0.91661125  0.12709364  1
  Mn  Mn135  1  0.60876155  0.08346352  0.62232219  1
  Mn  Mn136  1  0.89230552  0.91663875  0.62677256  1
  Mn  Mn137  1  0.39298884  0.58351653  0.87746552  1
  Mn  Mn138  1  0.85781516  0.74960170  0.75283683  1
  Mn  Mn139  1  0.35747928  0.08310457  0.00223807  1
  Mn  Mn140  1  0.85820909  0.41611478  0.50206038  1
  Mn  Mn141  1  0.14181897  0.58362771  0.74778734  1
  Mn  Mn142  1  0.10695576  0.74977790  0.37255604  1
  Mn  Mn143  1  0.10765838  0.08310732  0.87302590  1
  Fe  Fe144  1  0.64322577  0.91722121  0.99799174  1
  Fe  Fe145  1  0.85703367  0.41680138  0.75215940  1
  Fe  Fe146  1  0.35771507  0.41696605  0.00215444  1
  Fe  Fe147  1  0.35677001  0.41581608  0.50157087  1
  Fe  Fe148  1  0.64282822  0.24925207  0.49818915  1
  Fe  Fe149  1  0.60761917  0.74902612  0.12299467  1
  Fe  Fe150  1  0.14340915  0.58307708  0.99886780  1
  Fe  Fe151  1  0.14294498  0.25031474  0.49775607  1
  Fe  Fe152  1  0.39302866  0.58386575  0.62751219  1
  Fe  Fe153  1  0.85840852  0.08369469  0.75163605  1
  Fe  Fe154  1  0.85683835  0.74971438  0.25108581  1
  Fe  Fe155  1  0.64182445  0.58265604  0.99830988  1
  Fe  Fe156  1  0.39295378  0.58329951  0.12573776  1
  Fe  Fe157  1  0.89316812  0.91569291  0.87687247  1
  Fe  Fe158  1  0.64302682  0.91698686  0.24795796  1
  Fe  Fe159  1  0.85747678  0.08289844  0.50116862  1
  Fe  Fe160  1  0.85770698  0.41680345  0.25123701  1
  Fe  Fe161  1  0.89247300  0.58292931  0.37606575  1
  Fe  Fe162  1  0.35799183  0.08310345  0.25237741  1
  Fe  Fe163  1  0.14142513  0.91647293  0.74778247  1
  Fe  Fe164  1  0.85606440  0.41661357  0.00225657  1
  Fe  Fe165  1  0.14269031  0.25044882  0.99971257  1
  Fe  Fe166  1  0.35764079  0.41636677  0.25170505  1
  Fe  Fe167  1  0.14189055  0.91630350  0.99913263  1
  Fe  Fe168  1  0.10717616  0.74970545  0.12369828  1
  Fe  Fe169  1  0.89264965  0.25004222  0.12612719  1
  Fe  Fe170  1  0.39230516  0.24996175  0.37799407  1
  Fe  Fe171  1  0.85648792  0.75059102  0.50158377  1
  Fe  Fe172  1  0.64334384  0.58290958  0.74847596  1
  Fe  Fe173  1  0.60787712  0.74966084  0.37348039  1
  Fe  Fe174  1  0.10698959  0.74981588  0.62269502  1
  Fe  Fe175  1  0.35735132  0.74986266  0.00198418  1
  Fe  Fe176  1  0.39403116  0.91624048  0.37651445  1
  Fe  Fe177  1  0.60760023  0.41692573  0.87332919  1
  Fe  Fe178  1  0.60669255  0.41670947  0.12363794  1
  Fe  Fe179  1  0.35654130  0.08390912  0.50212202  1
  Fe  Fe180  1  0.64219268  0.25005012  0.99927657  1
  Fe  Fe181  1  0.39284857  0.58425964  0.37688238  1
  Fe  Fe182  1  0.10725915  0.08339682  0.37286744  1
  Fe  Fe183  1  0.10743403  0.41700335  0.12270860  1
  Fe  Fe184  1  0.60710908  0.74962604  0.87359192  1
  Fe  Fe185  1  0.89175321  0.58406625  0.87753150  1
  Fe  Fe186  1  0.10796615  0.41704696  0.37278802  1
  Fe  Fe187  1  0.89237781  0.91670351  0.12630323  1
  Fe  Fe188  1  0.85759131  0.08322851  0.25149516  1
  Fe  Fe189  1  0.64291068  0.91741710  0.49819067  1
  Fe  Fe190  1  0.39223762  0.25056068  0.12586976  1
  Fe  Fe191  1  0.10690648  0.08317297  0.62255049  1
  P  P192  1  0.05264337  0.25079955  0.10976896  1
  P  P193  1  0.05554823  0.25007501  0.36095394  1
  P  P194  1  0.05393203  0.24943083  0.60887809  1
  P  P195  1  0.05439661  0.25044575  0.86168927  1
  P  P196  1  0.05417114  0.58322715  0.10972917  1
  P  P197  1  0.05217045  0.58262067  0.35962444  1
  P  P198  1  0.05308647  0.58397782  0.60962312  1
  P  P199  1  0.05293624  0.58323842  0.86160963  1
  P  P200  1  0.05242634  0.91590125  0.11017029  1
  P  P201  1  0.05287690  0.91777681  0.35996206  1
  P  P202  1  0.05450489  0.91655266  0.61069814  1
  P  P203  1  0.05410285  0.91625887  0.86064276  1
  P  P204  1  0.55217181  0.25092150  0.11019248  1
  P  P205  1  0.55298243  0.24991988  0.36122093  1
  P  P206  1  0.55397077  0.24987467  0.60871630  1
  P  P207  1  0.55485548  0.25110913  0.86115377  1
  P  P208  1  0.55299682  0.58274362  0.10993551  1
  P  P209  1  0.55168201  0.58385581  0.36002395  1
  P  P210  1  0.55366861  0.58301473  0.61106552  1
  P  P211  1  0.55573177  0.58288016  0.86103774  1
  P  P212  1  0.55586713  0.91632561  0.11083714  1
  P  P213  1  0.55500392  0.91628487  0.36047813  1
  P  P214  1  0.55452234  0.91706880  0.60914021  1
  P  P215  1  0.55458479  0.91600742  0.86132578  1
  P  P216  1  0.44597790  0.08416091  0.14063329  1
  P  P217  1  0.44449511  0.08303636  0.38943094  1
  P  P218  1  0.44590969  0.08347593  0.63913492  1
  P  P219  1  0.44687410  0.08296609  0.89016734  1
  P  P220  1  0.44566485  0.41685020  0.13894718  1
  P  P221  1  0.44411005  0.41674639  0.38921330  1
  P  P222  1  0.44533805  0.41708118  0.63883459  1
  P  P223  1  0.44746059  0.41687467  0.89073245  1
  P  P224  1  0.44693572  0.74939442  0.13825013  1
  P  P225  1  0.44853038  0.75065116  0.38974152  1
  P  P226  1  0.44728888  0.74945727  0.64064033  1
  P  P227  1  0.44721018  0.75015300  0.89084618  1
  P  P228  1  0.94602373  0.08358633  0.14031449  1
  P  P229  1  0.94587196  0.08336859  0.38941260  1
  P  P230  1  0.94609349  0.08357232  0.63906948  1
  P  P231  1  0.94526913  0.08232615  0.88899230  1
  P  P232  1  0.94587519  0.41595517  0.13877689  1
  P  P233  1  0.94705364  0.41744014  0.38839047  1
  P  P234  1  0.94619665  0.41648303  0.64105250  1
  P  P235  1  0.94373635  0.41793236  0.89015827  1
  P  P236  1  0.94693581  0.75066705  0.14019741  1
  P  P237  1  0.94393197  0.74920495  0.38906204  1
  P  P238  1  0.94642931  0.75031919  0.63882974  1
  P  P239  1  0.94629337  0.74971602  0.89035225  1
  P  P240  1  0.19733023  0.08315166  0.23649466  1
  P  P241  1  0.19557626  0.08432010  0.48496150  1
  P  P242  1  0.19514020  0.08230406  0.73386638  1
  P  P243  1  0.19608370  0.08357722  0.98606434  1
  P  P244  1  0.19622745  0.41699430  0.23543936  1
  P  P245  1  0.19722347  0.41620147  0.48384329  1
  P  P246  1  0.19669583  0.41711536  0.73494633  1
  P  P247  1  0.19667073  0.41709702  0.98704674  1
  P  P248  1  0.19637754  0.74991061  0.23465035  1
  P  P249  1  0.19578678  0.74941658  0.48545116  1
  P  P250  1  0.19550012  0.75056028  0.73389072  1
  P  P251  1  0.19622386  0.74935906  0.98705419  1
  P  P252  1  0.69795655  0.08291097  0.23509466  1
  P  P253  1  0.69825607  0.08333642  0.48458448  1
  P  P254  1  0.69883680  0.08314376  0.73509222  1
  P  P255  1  0.69656754  0.08381188  0.98572297  1
  P  P256  1  0.69684118  0.41678495  0.23458347  1
  P  P257  1  0.69679687  0.41565152  0.48456567  1
  P  P258  1  0.69680844  0.41778523  0.73641092  1
  P  P259  1  0.69485306  0.41623610  0.98645137  1
  P  P260  1  0.69557018  0.75007353  0.23559406  1
  P  P261  1  0.69713614  0.75074443  0.48419592  1
  P  P262  1  0.69559740  0.74889999  0.73679394  1
  P  P263  1  0.69406901  0.74980032  0.98629604  1
  P  P264  1  0.30252475  0.25092390  0.01568686  1
  P  P265  1  0.30615478  0.25031151  0.26410684  1
  P  P266  1  0.30318902  0.24998847  0.51327540  1
  P  P267  1  0.30266277  0.24970008  0.76520281  1
  P  P268  1  0.30344608  0.58344146  0.01546550  1
  P  P269  1  0.30600384  0.58289984  0.26401044  1
  P  P270  1  0.30589375  0.58252094  0.51407932  1
  P  P271  1  0.30432955  0.58379449  0.76434501  1
  P  P272  1  0.30170434  0.91556394  0.01518536  1
  P  P273  1  0.30463688  0.91694066  0.26604721  1
  P  P274  1  0.30517056  0.91730542  0.51348147  1
  P  P275  1  0.30090682  0.91662182  0.76499368  1
  P  P276  1  0.80226366  0.25123201  0.01585862  1
  P  P277  1  0.80533396  0.25056025  0.26323102  1
  P  P278  1  0.80236333  0.24925408  0.51448088  1
  P  P279  1  0.80390814  0.25017236  0.76496760  1
  P  P280  1  0.80244837  0.58261927  0.01412613  1
  P  P281  1  0.80402253  0.58285768  0.26478887  1
  P  P282  1  0.80452485  0.58412620  0.51346692  1
  P  P283  1  0.80285657  0.58283674  0.76622165  1
  P  P284  1  0.80407187  0.91621276  0.01448931  1
  P  P285  1  0.80385422  0.91624827  0.26292121  1
  P  P286  1  0.80206703  0.91618894  0.51447549  1
  P  P287  1  0.80479706  0.91704674  0.76592773  1
  O  O288  1  0.05658294  0.25038852  0.18647786  1
  O  O289  1  0.05960686  0.25023083  0.43766203  1
  O  O290  1  0.05602493  0.25010514  0.68573880  1
  O  O291  1  0.05927042  0.25066062  0.93836889  1
  O  O292  1  0.05699461  0.58303233  0.18645009  1
  O  O293  1  0.05606217  0.58300840  0.43626467  1
  O  O294  1  0.05600031  0.58338077  0.68641060  1
  O  O295  1  0.05870017  0.58306651  0.93815376  1
  O  O296  1  0.05630961  0.91640635  0.18680963  1
  O  O297  1  0.05622564  0.91752916  0.43672278  1
  O  O298  1  0.05759753  0.91649508  0.68748706  1
  O  O299  1  0.05911140  0.91635361  0.93734085  1
  O  O300  1  0.55573281  0.25024150  0.18691164  1
  O  O301  1  0.55879777  0.24940887  0.43773951  1
  O  O302  1  0.55750709  0.24973454  0.68554578  1
  O  O303  1  0.55901913  0.25027686  0.93787862  1
  O  O304  1  0.55623341  0.58281001  0.18661141  1
  O  O305  1  0.55548256  0.58312524  0.43668411  1
  O  O306  1  0.55886692  0.58277590  0.68767707  1
  O  O307  1  0.55921180  0.58258118  0.93786202  1
  O  O308  1  0.55989877  0.91727460  0.18766557  1
  O  O309  1  0.55972074  0.91730126  0.43715389  1
  O  O310  1  0.55820797  0.91733320  0.68589823  1
  O  O311  1  0.55892815  0.91713805  0.93804372  1
  O  O312  1  0.44317310  0.08323194  0.06383578  1
  O  O313  1  0.44099956  0.08321007  0.31261203  1
  O  O314  1  0.44090747  0.08361633  0.56242136  1
  O  O315  1  0.44333872  0.08279302  0.81342545  1
  O  O316  1  0.44137320  0.41660399  0.06224166  1
  O  O317  1  0.44096953  0.41635598  0.31237956  1
  O  O318  1  0.44090737  0.41600775  0.56213797  1
  O  O319  1  0.44363362  0.41679781  0.81402041  1
  O  O320  1  0.44171389  0.75017711  0.06168437  1
  O  O321  1  0.44515625  0.75078657  0.31304475  1
  O  O322  1  0.44424025  0.75031149  0.56387195  1
  O  O323  1  0.44308491  0.75039071  0.81419570  1
  O  O324  1  0.94344383  0.08348910  0.06348749  1
  O  O325  1  0.94061708  0.08310550  0.31276277  1
  O  O326  1  0.94078029  0.08345276  0.56237208  1
  O  O327  1  0.94170165  0.08340596  0.81222479  1
  O  O328  1  0.94043900  0.41659008  0.06217297  1
  O  O329  1  0.94208180  0.41663732  0.31178128  1
  O  O330  1  0.94335716  0.41638453  0.56420696  1
  O  O331  1  0.93972060  0.41710712  0.81340421  1
  O  O332  1  0.94302158  0.75005549  0.06354674  1
  O  O333  1  0.93976393  0.75017591  0.31230021  1
  O  O334  1  0.94109932  0.75057559  0.56222546  1
  O  O335  1  0.94361761  0.74934268  0.81359140  1
  O  O336  1  0.19373263  0.08357978  0.06286150  1
  O  O337  1  0.19204249  0.08310227  0.31304497  1
  O  O338  1  0.19060961  0.08350381  0.56159657  1
  O  O339  1  0.19244479  0.08301202  0.81072810  1
  O  O340  1  0.19200366  0.41701252  0.06372973  1
  O  O341  1  0.19120386  0.41728431  0.31207293  1
  O  O342  1  0.19329771  0.41709426  0.56051438  1
  O  O343  1  0.19312220  0.41752359  0.81171342  1
  O  O344  1  0.19136211  0.74965735  0.06366282  1
  O  O345  1  0.19291069  0.74959913  0.31139690  1
  O  O346  1  0.19096490  0.74942071  0.56210398  1
  O  O347  1  0.19279967  0.74947941  0.81076852  1
  O  O348  1  0.69361150  0.08379422  0.06242811  1
  O  O349  1  0.69383406  0.08342172  0.31170615  1
  O  O350  1  0.69503104  0.08344064  0.56125488  1
  O  O351  1  0.69466009  0.08313910  0.81173939  1
  O  O352  1  0.69014437  0.41652187  0.06312383  1
  O  O353  1  0.69248627  0.41678315  0.31121670  1
  O  O354  1  0.69387181  0.41664874  0.56134315  1
  O  O355  1  0.69220064  0.41715279  0.81303552  1
  O  O356  1  0.69056686  0.74920780  0.06317292  1
  O  O357  1  0.69092675  0.74918458  0.31226925  1
  O  O358  1  0.69385984  0.74978266  0.56095922  1
  O  O359  1  0.69144338  0.74967023  0.81348813  1
  O  O360  1  0.30994478  0.25046559  0.18733443  1
  O  O361  1  0.30769149  0.24985699  0.43659568  1
  O  O362  1  0.30589947  0.24990348  0.68842803  1
  O  O363  1  0.30587711  0.25054267  0.93899267  1
  O  O364  1  0.31006228  0.58383507  0.18729278  1
  O  O365  1  0.31007444  0.58419071  0.43724695  1
  O  O366  1  0.30876482  0.58366167  0.68761493  1
  O  O367  1  0.30689275  0.58358583  0.93876465  1
  O  O368  1  0.30738744  0.91619766  0.18923969  1
  O  O369  1  0.31000033  0.91599250  0.43686970  1
  O  O370  1  0.30529362  0.91652647  0.68832579  1
  O  O371  1  0.30523268  0.91574461  0.93852652  1
  O  O372  1  0.80926472  0.25074078  0.18655173  1
  O  O373  1  0.80628242  0.25013241  0.43778464  1
  O  O374  1  0.80682358  0.25013998  0.68825588  1
  O  O375  1  0.80580975  0.25064302  0.93917621  1
  O  O376  1  0.80651439  0.58287692  0.18795792  1
  O  O377  1  0.80870644  0.58306709  0.43677245  1
  O  O378  1  0.80645421  0.58374641  0.68944344  1
  O  O379  1  0.80733574  0.58366907  0.93758424  1
  O  O380  1  0.80848586  0.91622685  0.18630254  1
  O  O381  1  0.80515637  0.91607378  0.43776224  1
  O  O382  1  0.80748218  0.91606795  0.68909356  1
  O  O383  1  0.80916506  0.91585739  0.93791540  1
  O  O384  1  0.23258629  0.25049609  0.04075603  1
  O  O385  1  0.23600246  0.25027344  0.28799754  1
  O  O386  1  0.23293692  0.25014023  0.53723211  1
  O  O387  1  0.23300557  0.24991626  0.79020316  1
  O  O388  1  0.23345110  0.58314550  0.04024165  1
  O  O389  1  0.23595511  0.58331402  0.28822015  1
  O  O390  1  0.23575802  0.58288486  0.53786015  1
  O  O391  1  0.23440523  0.58382557  0.78865151  1
  O  O392  1  0.23169141  0.91645189  0.04000716  1
  O  O393  1  0.23500311  0.91642789  0.29131727  1
  O  O394  1  0.23491785  0.91741384  0.53689321  1
  O  O395  1  0.23085086  0.91626121  0.78920148  1
  O  O396  1  0.73219087  0.25059429  0.04032440  1
  O  O397  1  0.73534725  0.25003573  0.28765428  1
  O  O398  1  0.73250842  0.24957435  0.53941949  1
  O  O399  1  0.73430537  0.25037009  0.79037959  1
  O  O400  1  0.73203137  0.58277844  0.03764570  1
  O  O401  1  0.73438329  0.58286734  0.29018859  1
  O  O402  1  0.73460871  0.58352525  0.53793827  1
  O  O403  1  0.73288948  0.58297096  0.79080630  1
  O  O404  1  0.73358528  0.91636186  0.03761220  1
  O  O405  1  0.73349794  0.91630094  0.28679639  1
  O  O406  1  0.73230446  0.91677272  0.53983191  1
  O  O407  1  0.73515065  0.91663707  0.79112638  1
  O  O408  1  0.26777420  0.08345132  0.21330276  1
  O  O409  1  0.26609482  0.08375833  0.46185018  1
  O  O410  1  0.26465865  0.08327096  0.70834632  1
  O  O411  1  0.26549609  0.08309552  0.96004075  1
  O  O412  1  0.26686635  0.41658012  0.21270712  1
  O  O413  1  0.26737061  0.41632175  0.45968382  1
  O  O414  1  0.26633399  0.41656909  0.70996320  1
  O  O415  1  0.26699006  0.41723003  0.96307307  1
  O  O416  1  0.26628033  0.75018605  0.21029537  1
  O  O417  1  0.26597096  0.74937792  0.46185149  1
  O  O418  1  0.26508845  0.75034867  0.70850375  1
  O  O419  1  0.26648214  0.74937041  0.96291683  1
  O  O420  1  0.76805934  0.08323555  0.21078758  1
  O  O421  1  0.76816847  0.08271586  0.45939288  1
  O  O422  1  0.76892098  0.08319512  0.71083075  1
  O  O423  1  0.76624635  0.08407914  0.96056930  1
  O  O424  1  0.76708599  0.41704644  0.21074350  1
  O  O425  1  0.76644330  0.41583690  0.45933844  1
  O  O426  1  0.76704832  0.41709050  0.71237097  1
  O  O427  1  0.76530273  0.41645867  0.96292707  1
  O  O428  1  0.76599680  0.74950857  0.21191398  1
  O  O429  1  0.76705039  0.75036665  0.45936595  1
  O  O430  1  0.76550324  0.74960295  0.71230963  1
  O  O431  1  0.76408130  0.74973364  0.96203843  1
  O  O432  1  0.01568657  0.08343601  0.16571891  1
  O  O433  1  0.01630842  0.08374644  0.41255302  1
  O  O434  1  0.01650407  0.08311956  0.66230681  1
  O  O435  1  0.01513206  0.08278811  0.91369228  1
  O  O436  1  0.01650029  0.41693252  0.16173538  1
  O  O437  1  0.01738253  0.41712888  0.41212636  1
  O  O438  1  0.01576863  0.41681119  0.66635320  1
  O  O439  1  0.01386525  0.41719476  0.91403332  1
  O  O440  1  0.01710966  0.74955099  0.16446285  1
  O  O441  1  0.01402275  0.75011744  0.41302662  1
  O  O442  1  0.01668117  0.75003600  0.66251297  1
  O  O443  1  0.01587197  0.75004593  0.91569614  1
  O  O444  1  0.51562879  0.08389765  0.16602698  1
  O  O445  1  0.51457329  0.08317038  0.41365735  1
  O  O446  1  0.51601462  0.08348894  0.66291699  1
  O  O447  1  0.51656444  0.08329395  0.91510019  1
  O  O448  1  0.51598977  0.41689327  0.16308604  1
  O  O449  1  0.51397875  0.41695919  0.41405777  1
  O  O450  1  0.51531885  0.41664904  0.66308456  1
  O  O451  1  0.51760219  0.41722011  0.91476942  1
  O  O452  1  0.51739812  0.74945461  0.16168588  1
  O  O453  1  0.51847184  0.75013279  0.41475752  1
  O  O454  1  0.51691985  0.74972102  0.66571592  1
  O  O455  1  0.51745485  0.74939905  0.91467212  1
  O  O456  1  0.48209903  0.25069634  0.08558783  1
  O  O457  1  0.48238110  0.25012612  0.33861645  1
  O  O458  1  0.48415825  0.24998332  0.58421787  1
  O  O459  1  0.48494249  0.25071536  0.83665650  1
  O  O460  1  0.48295584  0.58292930  0.08512405  1
  O  O461  1  0.48169966  0.58384092  0.33537123  1
  O  O462  1  0.48335925  0.58353281  0.58752950  1
  O  O463  1  0.48576066  0.58308677  0.83666515  1
  O  O464  1  0.48573162  0.91658110  0.08683817  1
  O  O465  1  0.48461375  0.91674478  0.33685879  1
  O  O466  1  0.48467541  0.91641818  0.58474463  1
  O  O467  1  0.48469344  0.91619881  0.83679053  1
  O  O468  1  0.98251344  0.25025342  0.08534327  1
  O  O469  1  0.98553853  0.25024890  0.33678097  1
  O  O470  1  0.98447875  0.25025993  0.58299874  1
  O  O471  1  0.98427441  0.25013742  0.83804006  1
  O  O472  1  0.98428313  0.58333288  0.08485936  1
  O  O473  1  0.98221693  0.58302068  0.33488801  1
  O  O474  1  0.98342601  0.58338333  0.58450935  1
  O  O475  1  0.98252939  0.58353601  0.83835537  1
  O  O476  1  0.98221781  0.91673677  0.08585481  1
  O  O477  1  0.98312379  0.91666020  0.33526993  1
  O  O478  1  0.98473840  0.91698123  0.58551627  1
  O  O479  1  0.98377472  0.91592798  0.83714777  1
  O  O480  1  0.08645293  0.31582633  0.07701005  1
  O  O481  1  0.08913376  0.31507020  0.32789710  1
  O  O482  1  0.08896609  0.31414693  0.57669805  1
  O  O483  1  0.08743041  0.31551391  0.82830634  1
  O  O484  1  0.08829985  0.64829805  0.07746054  1
  O  O485  1  0.08603526  0.64768381  0.32690297  1
  O  O486  1  0.08695218  0.64906352  0.57724291  1
  O  O487  1  0.08622896  0.64820919  0.82816411  1
  O  O488  1  0.08655772  0.98071649  0.07722372  1
  O  O489  1  0.08631498  0.98308430  0.32740093  1
  O  O490  1  0.08845075  0.98167936  0.57813812  1
  O  O491  1  0.08724857  0.98129051  0.82714653  1
  O  O492  1  0.58614135  0.31593195  0.07779081  1
  O  O493  1  0.58592751  0.31494913  0.32761156  1
  O  O494  1  0.58814276  0.31482946  0.57630729  1
  O  O495  1  0.58814626  0.31660264  0.82859979  1
  O  O496  1  0.58724839  0.64750811  0.07723499  1
  O  O497  1  0.58569796  0.64879428  0.32760308  1
  O  O498  1  0.58720568  0.64794048  0.57775900  1
  O  O499  1  0.58951752  0.64800192  0.82844879  1
  O  O500  1  0.58952560  0.98122106  0.07757247  1
  O  O501  1  0.58853488  0.98112443  0.32678985  1
  O  O502  1  0.58820114  0.98206884  0.57607072  1
  O  O503  1  0.58832674  0.98075460  0.82778106  1
  O  O504  1  0.41160661  0.01919505  0.17313892  1
  O  O505  1  0.41103871  0.01784882  0.42212060  1
  O  O506  1  0.41256580  0.01834820  0.67231286  1
  O  O507  1  0.41298762  0.01792165  0.92283385  1
  O  O508  1  0.41218891  0.35193456  0.17227432  1
  O  O509  1  0.41037244  0.35168409  0.42224773  1
  O  O510  1  0.41182465  0.35214887  0.67224341  1
  O  O511  1  0.41361729  0.35197762  0.92365781  1
  O  O512  1  0.41384947  0.68429431  0.17136612  1
  O  O513  1  0.41422757  0.68579146  0.42220672  1
  O  O514  1  0.41327062  0.68430291  0.67266984  1
  O  O515  1  0.41319316  0.68524298  0.92365516  1
  O  O516  1  0.91160355  0.01857149  0.17248561  1
  O  O517  1  0.91270880  0.01838383  0.42304430  1
  O  O518  1  0.91250612  0.01876991  0.67249926  1
  O  O519  1  0.91191414  0.01698440  0.92140340  1
  O  O520  1  0.91327886  0.35076980  0.17237953  1
  O  O521  1  0.91392580  0.35249163  0.42224578  1
  O  O522  1  0.91206337  0.35139751  0.67326461  1
  O  O523  1  0.90980750  0.35315558  0.92352914  1
  O  O524  1  0.91242470  0.68590097  0.17288804  1
  O  O525  1  0.91090695  0.68375734  0.42165264  1
  O  O526  1  0.91298374  0.68540435  0.67226657  1
  O  O527  1  0.91216896  0.68474239  0.92299627  1
  O  O528  1  0.16430296  0.01813713  0.20300221  1
  O  O529  1  0.16206800  0.01953865  0.45115437  1
  O  O530  1  0.16126027  0.01695334  0.70188044  1
  O  O531  1  0.16145136  0.01853712  0.95417830  1
  O  O532  1  0.16286750  0.35211980  0.20196006  1
  O  O533  1  0.16334667  0.35121384  0.45126244  1
  O  O534  1  0.16243676  0.35211764  0.70268201  1
  O  O535  1  0.16328254  0.35202674  0.95398237  1
  O  O536  1  0.16245026  0.68498047  0.20187654  1
  O  O537  1  0.16246379  0.68445693  0.45208185  1
  O  O538  1  0.16101260  0.68573544  0.70131742  1
  O  O539  1  0.16311021  0.68409180  0.95374819  1
  O  O540  1  0.66430769  0.01793948  0.20246061  1
  O  O541  1  0.66399173  0.01835454  0.45224048  1
  O  O542  1  0.66520393  0.01813351  0.70224936  1
  O  O543  1  0.66294226  0.01852425  0.95319897  1
  O  O544  1  0.66306158  0.35181420  0.20168226  1
  O  O545  1  0.66268428  0.35049318  0.45258561  1
  O  O546  1  0.66307058  0.35304251  0.70300678  1
  O  O547  1  0.66185520  0.35104308  0.95319042  1
  O  O548  1  0.66191409  0.68520754  0.20214026  1
  O  O549  1  0.66291262  0.68591791  0.45118781  1
  O  O550  1  0.66254621  0.68346102  0.70394449  1
  O  O551  1  0.66030466  0.68485478  0.95339348  1
  O  O552  1  0.33657205  0.31597574  0.04816713  1
  O  O553  1  0.33952566  0.31548770  0.29713045  1
  O  O554  1  0.33646935  0.31512781  0.54637098  1
  O  O555  1  0.33687581  0.31458081  0.79782275  1
  O  O556  1  0.33744737  0.64841588  0.04823360  1
  O  O557  1  0.33984101  0.64767633  0.29750827  1
  O  O558  1  0.33983670  0.64705590  0.54784198  1
  O  O559  1  0.33785196  0.64887193  0.79734749  1
  O  O560  1  0.33610658  0.98042736  0.04765652  1
  O  O561  1  0.33885096  0.98202655  0.29797840  1
  O  O562  1  0.33822008  0.98267013  0.54630329  1
  O  O563  1  0.33443483  0.98170395  0.79790349  1
  O  O564  1  0.83608601  0.31630214  0.04838416  1
  O  O565  1  0.83848861  0.31593154  0.29630722  1
  O  O566  1  0.83641888  0.31411562  0.54736748  1
  O  O567  1  0.83787767  0.31525132  0.79745891  1
  O  O568  1  0.83572671  0.64741411  0.04792805  1
  O  O569  1  0.83831066  0.64794024  0.29678163  1
  O  O570  1  0.83758259  0.64967957  0.54614523  1
  O  O571  1  0.83682985  0.64772412  0.79932735  1
  O  O572  1  0.83744578  0.98120403  0.04779822  1
  O  O573  1  0.83708650  0.98122554  0.29639447  1
  O  O574  1  0.83668006  0.98108559  0.54655822  1
  O  O575  1  0.83898367  0.98224726  0.79766435  1
  O  O576  1  0.41182316  0.14937531  0.17237188  1
  O  O577  1  0.41061594  0.14801445  0.42241364  1
  O  O578  1  0.41249593  0.14853011  0.67225551  1
  O  O579  1  0.41272944  0.14802002  0.92252111  1
  O  O580  1  0.41216831  0.48199008  0.17179437  1
  O  O581  1  0.41022962  0.48186364  0.42153164  1
  O  O582  1  0.41213252  0.48249432  0.67151829  1
  O  O583  1  0.41341104  0.48173771  0.92354185  1
  O  O584  1  0.41404547  0.81436883  0.17214267  1
  O  O585  1  0.41498154  0.81580484  0.42251316  1
  O  O586  1  0.41326133  0.81452650  0.67325505  1
  O  O587  1  0.41376671  0.81515028  0.92405180  1
  O  O588  1  0.91193848  0.14878042  0.17237383  1
  O  O589  1  0.91246870  0.14826585  0.42284591  1
  O  O590  1  0.91320136  0.14874330  0.67252617  1
  O  O591  1  0.91143710  0.14712427  0.92231553  1
  O  O592  1  0.91221106  0.48073915  0.17237430  1
  O  O593  1  0.91369148  0.48246123  0.42144564  1
  O  O594  1  0.91150169  0.48129454  0.67328049  1
  O  O595  1  0.91040205  0.48312881  0.92306316  1
  O  O596  1  0.91349866  0.81584475  0.17291491  1
  O  O597  1  0.90996313  0.81386874  0.42262011  1
  O  O598  1  0.91335682  0.81535620  0.67232653  1
  O  O599  1  0.91206457  0.81486992  0.92233913  1
  O  O600  1  0.08676105  0.18585508  0.07715374  1
  O  O601  1  0.08876836  0.18474087  0.32794835  1
  O  O602  1  0.08792845  0.18408143  0.57701722  1
  O  O603  1  0.08770840  0.18535892  0.82853209  1
  O  O604  1  0.08819864  0.51824001  0.07705826  1
  O  O605  1  0.08607816  0.51769630  0.32690215  1
  O  O606  1  0.08735219  0.51893612  0.57718982  1
  O  O607  1  0.08590243  0.51826107  0.82787578  1
  O  O608  1  0.08586847  0.85069303  0.07735289  1
  O  O609  1  0.08731879  0.85289697  0.32771102  1
  O  O610  1  0.08815972  0.85145440  0.57792201  1
  O  O611  1  0.08763438  0.85136822  0.82739742  1
  O  O612  1  0.58625942  0.18611140  0.07727465  1
  O  O613  1  0.58579940  0.18494608  0.32723355  1
  O  O614  1  0.58809779  0.18493515  0.57602994  1
  O  O615  1  0.58864829  0.18627374  0.82783167  1
  O  O616  1  0.58681642  0.51762600  0.07736232  1
  O  O617  1  0.58522637  0.51880505  0.32697850  1
  O  O618  1  0.58652708  0.51804097  0.57721474  1
  O  O619  1  0.58930051  0.51778917  0.82800882  1
  O  O620  1  0.58938174  0.85115131  0.07833594  1
  O  O621  1  0.58820975  0.85106061  0.32756865  1
  O  O622  1  0.58899924  0.85221990  0.57674170  1
  O  O623  1  0.58808002  0.85051396  0.82906258  1
  O  O624  1  0.33689731  0.18606260  0.04823963  1
  O  O625  1  0.33969850  0.18535128  0.29726481  1
  O  O626  1  0.33641525  0.18495643  0.54662035  1
  O  O627  1  0.33655706  0.18455460  0.79754606  1
  O  O628  1  0.33766202  0.51849811  0.04801719  1
  O  O629  1  0.33934766  0.51754321  0.29644958  1
  O  O630  1  0.33903352  0.51691283  0.54630192  1
  O  O631  1  0.33800004  0.51885594  0.79750039  1
  O  O632  1  0.33536305  0.85049493  0.04798225  1
  O  O633  1  0.33924529  0.85205717  0.29845653  1
  O  O634  1  0.33812647  0.85232306  0.54737576  1
  O  O635  1  0.33480274  0.85173078  0.79797978  1
  O  O636  1  0.83677706  0.18652996  0.04852880  1
  O  O637  1  0.83921150  0.18557622  0.29597397  1
  O  O638  1  0.83624311  0.18403475  0.54662513  1
  O  O639  1  0.83793359  0.18501916  0.79732384  1
  O  O640  1  0.83569263  0.51754729  0.04720058  1
  O  O641  1  0.83839254  0.51779737  0.29697996  1
  O  O642  1  0.83840819  0.51934807  0.54675057  1
  O  O643  1  0.83684012  0.51779758  0.79851068  1
  O  O644  1  0.83719992  0.85136117  0.04833762  1
  O  O645  1  0.83679855  0.85105150  0.29621382  1
  O  O646  1  0.83575609  0.85099829  0.54712005  1
  O  O647  1  0.83915917  0.85221265  0.79866399  1
  O  O648  1  0.16405643  0.14802196  0.20290891  1
  O  O649  1  0.16264284  0.14945816  0.45164170  1
  O  O650  1  0.16020527  0.14696774  0.70147856  1
  O  O651  1  0.16212937  0.14891806  0.95403891  1
  O  O652  1  0.16327136  0.48194873  0.20182413  1
  O  O653  1  0.16357538  0.48116515  0.45048999  1
  O  O654  1  0.16304520  0.48218812  0.70211689  1
  O  O655  1  0.16338638  0.48226216  0.95378563  1
  O  O656  1  0.16207112  0.81482852  0.20224635  1
  O  O657  1  0.16243398  0.81454009  0.45233224  1
  O  O658  1  0.16116382  0.81574289  0.70214548  1
  O  O659  1  0.16270803  0.81435469  0.95385331  1
  O  O660  1  0.66413058  0.14796083  0.20231959  1
  O  O661  1  0.66453048  0.14846300  0.45181752  1
  O  O662  1  0.66506007  0.14810113  0.70224414  1
  O  O663  1  0.66246858  0.14895995  0.95358984  1
  O  O664  1  0.66287848  0.48167693  0.20171867  1
  O  O665  1  0.66267784  0.48070251  0.45194622  1
  O  O666  1  0.66387752  0.48308898  0.70320898  1
  O  O667  1  0.66154937  0.48115697  0.95286484  1
  O  O668  1  0.66234195  0.81519731  0.20266630  1
  O  O669  1  0.66330917  0.81595295  0.45197913  1
  O  O670  1  0.66178736  0.81372335  0.70360790  1
  O  O671  1  0.66057616  0.81507214  0.95372902  1
