# generated using pymatgen
data_Na2MnFe(PO4)2
_symmetry_space_group_name_H-M   'P 1'
_cell_length_a   21.07850194
_cell_length_b   18.92949434
_cell_length_c   20.03796666
_cell_angle_alpha   90.00006934
_cell_angle_beta   90.00257850
_cell_angle_gamma   89.99912330
_symmetry_Int_Tables_number   1
_chemical_formula_structural   Na2MnFe(PO4)2
_chemical_formula_sum   'Na96 Mn48 Fe48 P96 O384'
_cell_volume   7995.25655975
_cell_formula_units_Z   48
loop_
 _symmetry_equiv_pos_site_id
 _symmetry_equiv_pos_as_xyz
  1  'x, y, z'
loop_
 _atom_site_type_symbol
 _atom_site_label
 _atom_site_symmetry_multiplicity
 _atom_site_fract_x
 _atom_site_fract_y
 _atom_site_fract_z
 _atom_site_occupancy
  Na  Na0  1  0.00317240  0.00073151  -0.00137723  1
  Na  Na1  1  0.00151061  0.00015883  0.25014013  1
  Na  Na2  1  -0.00073129  0.00029615  0.49997554  1
  Na  Na3  1  -0.00053506  -0.00007363  0.75068113  1
  Na  Na4  1  0.00239143  0.33434406  -0.00030361  1
  Na  Na5  1  0.00168883  0.33371983  0.25040935  1
  Na  Na6  1  0.00013609  0.33272573  0.49992762  1
  Na  Na7  1  -0.00022560  0.33299135  0.74969445  1
  Na  Na8  1  0.00183995  0.66688774  -0.00048662  1
  Na  Na9  1  0.00018775  0.66672344  0.25136063  1
  Na  Na10  1  0.00054433  0.66691517  0.50043117  1
  Na  Na11  1  0.00192105  0.66697341  0.74920162  1
  Na  Na12  1  0.49916064  -0.00005069  0.00097930  1
  Na  Na13  1  0.49788152  -0.00087136  0.25058432  1
  Na  Na14  1  0.50201906  0.00085834  0.50008801  1
  Na  Na15  1  0.50154670  0.00048762  0.74865652  1
  Na  Na16  1  0.49824879  0.33284074  0.00067020  1
  Na  Na17  1  0.49807494  0.33304453  0.25027498  1
  Na  Na18  1  0.49870483  0.33320945  0.49952017  1
  Na  Na19  1  0.50173465  0.33432266  0.74892076  1
  Na  Na20  1  0.49809789  0.66578677  -0.00059427  1
  Na  Na21  1  0.49743382  0.66522672  0.24941874  1
  Na  Na22  1  0.50140283  0.66686227  0.50075601  1
  Na  Na23  1  0.50064746  0.66646728  0.75049944  1
  Na  Na24  1  0.24979549  -0.00029257  0.12503180  1
  Na  Na25  1  0.25347031  0.00167895  0.37476221  1
  Na  Na26  1  0.25078453  0.00009466  0.62522521  1
  Na  Na27  1  0.24813036  -0.00092977  0.87502418  1
  Na  Na28  1  0.24926546  0.33373858  0.12477552  1
  Na  Na29  1  0.24912795  0.33281504  0.37447498  1
  Na  Na30  1  0.25043070  0.33386450  0.62589303  1
  Na  Na31  1  0.24859329  0.33304744  0.87548394  1
  Na  Na32  1  0.25016197  0.66701501  0.12548172  1
  Na  Na33  1  0.24853490  0.66567787  0.37387855  1
  Na  Na34  1  0.24932725  0.66570336  0.62447997  1
  Na  Na35  1  0.25049264  0.66696934  0.87598282  1
  Na  Na36  1  0.74920964  0.00015009  0.12584026  1
  Na  Na37  1  0.74719574  -0.00065691  0.37496242  1
  Na  Na38  1  0.74691930  -0.00058863  0.62426088  1
  Na  Na39  1  0.74933380  0.00048115  0.87530334  1
  Na  Na40  1  0.75155154  0.33382189  0.12516453  1
  Na  Na41  1  0.75115030  0.33361332  0.37617643  1
  Na  Na42  1  0.75010996  0.33318033  0.62374010  1
  Na  Na43  1  0.74925099  0.33297743  0.87455657  1
  Na  Na44  1  0.75137283  0.66637646  0.12564965  1
  Na  Na45  1  0.75192178  0.66740264  0.37418951  1
  Na  Na46  1  0.74776056  0.66593955  0.62542049  1
  Na  Na47  1  0.74821114  0.66544218  0.87493222  1
  Na  Na48  1  0.00227566  0.16620697  -0.00046104  1
  Na  Na49  1  0.00172417  0.16675189  0.25075531  1
  Na  Na50  1  -0.00122727  0.16784672  0.50046036  1
  Na  Na51  1  0.00037349  0.16650615  0.74979668  1
  Na  Na52  1  0.00234268  0.49959724  -0.00140994  1
  Na  Na53  1  -0.00001694  0.50070427  0.25092285  1
  Na  Na54  1  0.00195748  0.49886595  0.50020817  1
  Na  Na55  1  0.00149212  0.49993627  0.75017664  1
  Na  Na56  1  0.00275078  0.83203314  -0.00007279  1
  Na  Na57  1  0.00094647  0.83256557  0.24995325  1
  Na  Na58  1  -0.00033886  0.83261370  0.49992294  1
  Na  Na59  1  0.00022236  0.83311234  0.74957848  1
  Na  Na60  1  0.49832296  0.16783090  0.00095577  1
  Na  Na61  1  0.50017191  0.16628900  0.24990391  1
  Na  Na62  1  0.50075593  0.16667509  0.49950517  1
  Na  Na63  1  0.50193553  0.16635238  0.74898332  1
  Na  Na64  1  0.49947330  0.50017005  0.00001759  1
  Na  Na65  1  0.49639565  0.50095564  0.25094923  1
  Na  Na66  1  0.50049914  0.49968811  0.49990956  1
  Na  Na67  1  0.50040358  0.50025114  0.74908251  1
  Na  Na68  1  0.49743242  0.83383061  0.00000257  1
  Na  Na69  1  0.49888541  0.83337549  0.24973197  1
  Na  Na70  1  0.50005050  0.83390103  0.50061588  1
  Na  Na71  1  0.50159065  0.83225043  0.75006935  1
  Na  Na72  1  0.25023881  0.16632683  0.12425067  1
  Na  Na73  1  0.24973183  0.16771414  0.37466371  1
  Na  Na74  1  0.25066894  0.16683677  0.62587299  1
  Na  Na75  1  0.24847618  0.16708012  0.87494144  1
  Na  Na76  1  0.24964759  0.50022226  0.12509293  1
  Na  Na77  1  0.25085150  0.49932138  0.37438979  1
  Na  Na78  1  0.24873197  0.50048359  0.62521394  1
  Na  Na79  1  0.24832486  0.50093838  0.87584759  1
  Na  Na80  1  0.24924033  0.83300529  0.12590941  1
  Na  Na81  1  0.24962019  0.83411415  0.37436811  1
  Na  Na82  1  0.25175874  0.83239615  0.62426120  1
  Na  Na83  1  0.25064968  0.83234001  0.87556489  1
  Na  Na84  1  0.74957037  0.16724816  0.12622370  1
  Na  Na85  1  0.75004282  0.16667144  0.37571615  1
  Na  Na86  1  0.75030215  0.16676775  0.62354337  1
  Na  Na87  1  0.74953225  0.16747031  0.87444660  1
  Na  Na88  1  0.75146414  0.49972452  0.12570425  1
  Na  Na89  1  0.75023592  0.50027588  0.37439821  1
  Na  Na90  1  0.74800295  0.50047667  0.62443389  1
  Na  Na91  1  0.74908194  0.50019518  0.87517033  1
  Na  Na92  1  0.75089024  0.83272038  0.12483508  1
  Na  Na93  1  0.74921928  0.83318693  0.37529447  1
  Na  Na94  1  0.74728095  0.83359616  0.62526028  1
  Na  Na95  1  0.74778354  0.83386895  0.87511320  1
  Mn  Mn96  1  0.89076758  0.91727928  0.62741025  1
  Mn  Mn97  1  0.85795043  0.08328978  0.25203849  1
  Mn  Mn98  1  0.60801032  0.41662754  0.87290577  1
  Mn  Mn99  1  0.85847860  0.74976804  0.00167520  1
  Mn  Mn100  1  0.60764439  0.75000018  0.37198553  1
  Mn  Mn101  1  0.89284019  0.58283053  0.37783228  1
  Mn  Mn102  1  0.85686741  0.08231591  0.50198924  1
  Mn  Mn103  1  0.10880884  0.08306136  0.37335690  1
  Mn  Mn104  1  0.39158168  0.24982108  0.37768044  1
  Mn  Mn105  1  0.89155379  0.91721861  0.37693658  1
  Mn  Mn106  1  0.60719545  0.74924318  0.12297154  1
  Mn  Mn107  1  0.10834180  0.75053089  0.62247084  1
  Mn  Mn108  1  0.35760712  0.74961762  0.50209011  1
  Mn  Mn109  1  0.14267921  0.91760408  0.24796798  1
  Mn  Mn110  1  0.35777579  0.41730003  0.75234046  1
  Mn  Mn111  1  0.14238107  0.91617370  0.74697977  1
  Mn  Mn112  1  0.60695220  0.41633106  0.37202152  1
  Mn  Mn113  1  0.89256761  0.25003178  0.87658993  1
  Mn  Mn114  1  0.39352780  0.91687363  0.62732830  1
  Mn  Mn115  1  0.35701192  0.41721467  0.00224392  1
  Mn  Mn116  1  0.89240879  0.91624361  0.87704150  1
  Mn  Mn117  1  0.39228104  0.25028637  0.87621824  1
  Mn  Mn118  1  0.64245476  0.58294542  0.24747680  1
  Mn  Mn119  1  0.39260431  0.58317642  0.62707008  1
  Mn  Mn120  1  0.60826003  0.08369249  0.87302253  1
  Mn  Mn121  1  0.85878426  0.08325162  0.00252679  1
  Mn  Mn122  1  0.60680397  0.74983949  0.87359796  1
  Mn  Mn123  1  0.14229387  0.24984397  0.99751872  1
  Mn  Mn124  1  0.85879415  0.41697899  0.00196880  1
  Mn  Mn125  1  0.35736456  0.75003814  0.25280594  1
  Mn  Mn126  1  0.10787720  0.41623241  0.62270331  1
  Mn  Mn127  1  0.10749571  0.08324852  0.62245755  1
  Mn  Mn128  1  0.89212043  0.58284074  0.62731093  1
  Mn  Mn129  1  0.64225829  0.25034916  0.49714825  1
  Mn  Mn130  1  0.64154340  0.25067763  0.99847567  1
  Mn  Mn131  1  0.64136413  0.91632447  0.99827739  1
  Mn  Mn132  1  0.89327963  0.91637971  0.12710828  1
  Mn  Mn133  1  0.85664279  0.74988427  0.75267440  1
  Mn  Mn134  1  0.89334093  0.25021896  0.12762940  1
  Mn  Mn135  1  0.14223058  0.58280994  0.24737238  1
  Mn  Mn136  1  0.35820344  0.08304174  0.75254869  1
  Mn  Mn137  1  0.39198828  0.91657317  0.87707219  1
  Mn  Mn138  1  0.14284720  0.91710027  0.49734892  1
  Mn  Mn139  1  0.35701248  0.08268565  0.00186235  1
  Mn  Mn140  1  0.60731304  0.41697554  0.12398463  1
  Mn  Mn141  1  0.60672706  0.08343698  0.12317986  1
  Mn  Mn142  1  0.85804092  0.41768719  0.50227767  1
  Mn  Mn143  1  0.89275481  0.58354201  0.87650939  1
  Fe  Fe144  1  0.39211490  0.58380684  0.37759810  1
  Fe  Fe145  1  0.60783411  0.08406449  0.62295153  1
  Fe  Fe146  1  0.64218765  0.91706225  0.74851647  1
  Fe  Fe147  1  0.85638998  0.41655871  0.75115479  1
  Fe  Fe148  1  0.35660255  0.41627090  0.50155487  1
  Fe  Fe149  1  0.89348574  0.58331403  0.12567441  1
  Fe  Fe150  1  0.89377365  0.25002104  0.37606871  1
  Fe  Fe151  1  0.64203692  0.91664073  0.24797948  1
  Fe  Fe152  1  0.64228996  0.58309831  0.99910562  1
  Fe  Fe153  1  0.14249289  0.25031552  0.74768577  1
  Fe  Fe154  1  0.35802171  0.74944955  0.75153824  1
  Fe  Fe155  1  0.64179364  0.58280901  0.74841639  1
  Fe  Fe156  1  0.39162985  0.25027845  0.12772256  1
  Fe  Fe157  1  0.60747339  0.41662809  0.62275946  1
  Fe  Fe158  1  0.14291311  0.91586835  0.99842465  1
  Fe  Fe159  1  0.10862566  0.74995293  0.87233623  1
  Fe  Fe160  1  0.14259314  0.58430279  0.99835411  1
  Fe  Fe161  1  0.60647450  0.08357629  0.37266700  1
  Fe  Fe162  1  0.85873843  0.41634645  0.25168769  1
  Fe  Fe163  1  0.35630450  0.41609726  0.25163682  1
  Fe  Fe164  1  0.39303685  0.25022698  0.62664688  1
  Fe  Fe165  1  0.10771658  0.41670508  0.87219047  1
  Fe  Fe166  1  0.39165348  0.58288361  0.12638864  1
  Fe  Fe167  1  0.64293025  0.25026017  0.74729240  1
  Fe  Fe168  1  0.64202005  0.91556683  0.49753834  1
  Fe  Fe169  1  0.85653434  0.75005101  0.50172392  1
  Fe  Fe170  1  0.35624630  0.74997334  0.00207957  1
  Fe  Fe171  1  0.35822120  0.08443230  0.50201251  1
  Fe  Fe172  1  0.35721742  0.08414375  0.25164181  1
  Fe  Fe173  1  0.39338666  0.91631736  0.37715278  1
  Fe  Fe174  1  0.10686863  0.75008370  0.37380699  1
  Fe  Fe175  1  0.10815642  0.41659055  0.37329849  1
  Fe  Fe176  1  0.39138055  0.91669900  0.12720868  1
  Fe  Fe177  1  0.14305460  0.25010664  0.49893911  1
  Fe  Fe178  1  0.14344644  0.58345890  0.74849293  1
  Fe  Fe179  1  0.14289823  0.58279123  0.49807736  1
  Fe  Fe180  1  0.39221201  0.58289190  0.87674333  1
  Fe  Fe181  1  0.10859233  0.08307034  0.12320402  1
  Fe  Fe182  1  0.64252140  0.58375776  0.49765721  1
  Fe  Fe183  1  0.10745756  0.41733279  0.12352134  1
  Fe  Fe184  1  0.85812166  0.75015928  0.25144854  1
  Fe  Fe185  1  0.64315710  0.25032933  0.24879407  1
  Fe  Fe186  1  0.10740179  0.74977714  0.12329992  1
  Fe  Fe187  1  0.14288888  0.24974446  0.24826845  1
  Fe  Fe188  1  0.60759763  0.74964151  0.62314726  1
  Fe  Fe189  1  0.85619387  0.08366377  0.75112790  1
  Fe  Fe190  1  0.10746667  0.08341032  0.87197865  1
  Fe  Fe191  1  0.89249953  0.25013970  0.62703117  1
  P  P192  1  0.05534290  0.25019306  0.11141560  1
  P  P193  1  0.05535121  0.25062508  0.36096163  1
  P  P194  1  0.05369493  0.24996056  0.61034396  1
  P  P195  1  0.05456897  0.25016969  0.85896758  1
  P  P196  1  0.05313695  0.58332873  0.10974259  1
  P  P197  1  0.05537819  0.58314677  0.36172297  1
  P  P198  1  0.05540372  0.58324509  0.61029149  1
  P  P199  1  0.05594887  0.58379466  0.86023615  1
  P  P200  1  0.05467788  0.91654679  0.10945762  1
  P  P201  1  0.05333260  0.91595883  0.36011067  1
  P  P202  1  0.05270833  0.91688897  0.60934611  1
  P  P203  1  0.05525288  0.91602853  0.86077877  1
  P  P204  1  0.55243427  0.25059701  0.11189314  1
  P  P205  1  0.55337597  0.24957767  0.35918574  1
  P  P206  1  0.55390924  0.25051445  0.61045523  1
  P  P207  1  0.55389616  0.25032159  0.85888496  1
  P  P208  1  0.55184907  0.58297100  0.10968823  1
  P  P209  1  0.55272435  0.58334749  0.36069722  1
  P  P210  1  0.55544697  0.58307537  0.61052595  1
  P  P211  1  0.55338024  0.58313246  0.86064237  1
  P  P212  1  0.55220968  0.91624569  0.11144454  1
  P  P213  1  0.55382309  0.91713366  0.36043319  1
  P  P214  1  0.55600343  0.91660100  0.61067576  1
  P  P215  1  0.55338704  0.91675229  0.85934737  1
  P  P216  1  0.44485607  0.08330630  0.14073943  1
  P  P217  1  0.44583423  0.08287549  0.38938296  1
  P  P218  1  0.44700314  0.08461604  0.63845451  1
  P  P219  1  0.44715831  0.08351791  0.89024334  1
  P  P220  1  0.44510056  0.41707636  0.14079245  1
  P  P221  1  0.44392584  0.41726145  0.38964246  1
  P  P222  1  0.44640201  0.41603165  0.63833504  1
  P  P223  1  0.44652099  0.41746808  0.88992504  1
  P  P224  1  0.44435156  0.74958087  0.13867406  1
  P  P225  1  0.44657045  0.74989740  0.39024175  1
  P  P226  1  0.44771284  0.74964705  0.64049889  1
  P  P227  1  0.44393426  0.74885198  0.88960810  1
  P  P228  1  0.94925452  0.08318914  0.14004457  1
  P  P229  1  0.94693722  0.08438139  0.39001774  1
  P  P230  1  0.94541057  0.08409079  0.64072641  1
  P  P231  1  0.94680588  0.08347822  0.88846847  1
  P  P232  1  0.94822010  0.41769932  0.14033334  1
  P  P233  1  0.94739697  0.41564893  0.38905638  1
  P  P234  1  0.94603132  0.41612046  0.64073884  1
  P  P235  1  0.94710827  0.41680811  0.88817375  1
  P  P236  1  0.94794656  0.74891887  0.14018719  1
  P  P237  1  0.94566107  0.75010388  0.38980114  1
  P  P238  1  0.94510294  0.74988803  0.63919377  1
  P  P239  1  0.94868336  0.74971309  0.88952436  1
  P  P240  1  0.19762729  0.08428617  0.23466529  1
  P  P241  1  0.19885974  0.08446667  0.48537055  1
  P  P242  1  0.19563003  0.08395954  0.73561362  1
  P  P243  1  0.19469225  0.08214542  0.98526387  1
  P  P244  1  0.19583618  0.41587786  0.23558682  1
  P  P245  1  0.19708627  0.41616374  0.48469275  1
  P  P246  1  0.19550641  0.41701152  0.73630052  1
  P  P247  1  0.19427372  0.41792473  0.98577210  1
  P  P248  1  0.19466575  0.74999765  0.23572052  1
  P  P249  1  0.19628912  0.74926816  0.48385712  1
  P  P250  1  0.19757751  0.74896309  0.73569849  1
  P  P251  1  0.19555448  0.74984252  0.98624568  1
  P  P252  1  0.69485262  0.08377232  0.23671718  1
  P  P253  1  0.69391513  0.08268612  0.48503988  1
  P  P254  1  0.69670333  0.08398620  0.73424494  1
  P  P255  1  0.69683594  0.08380367  0.98540163  1
  P  P256  1  0.69843429  0.41560766  0.23550377  1
  P  P257  1  0.69522117  0.41770563  0.48550831  1
  P  P258  1  0.69660338  0.41641275  0.73416641  1
  P  P259  1  0.69676042  0.41762767  0.98556941  1
  P  P260  1  0.69782784  0.75039466  0.23493225  1
  P  P261  1  0.69596056  0.74935971  0.48582474  1
  P  P262  1  0.69504725  0.74967969  0.73504190  1
  P  P263  1  0.69643571  0.74861659  0.98541889  1
  P  P264  1  0.30383563  0.25014582  0.01536447  1
  P  P265  1  0.30323576  0.25008676  0.26370204  1
  P  P266  1  0.30300541  0.25051394  0.51572531  1
  P  P267  1  0.30302023  0.25029089  0.76407063  1
  P  P268  1  0.30322435  0.58412675  0.01448012  1
  P  P269  1  0.30496317  0.58233172  0.26434933  1
  P  P270  1  0.30312978  0.58236382  0.51374952  1
  P  P271  1  0.30313231  0.58380559  0.76562638  1
  P  P272  1  0.30240233  0.91558335  0.01550295  1
  P  P273  1  0.30535202  0.91768115  0.26468748  1
  P  P274  1  0.30530551  0.91754924  0.51390884  1
  P  P275  1  0.30360608  0.91564983  0.76488591  1
  P  P276  1  0.80363617  0.25014119  0.01534549  1
  P  P277  1  0.80359301  0.25065369  0.26587813  1
  P  P278  1  0.80552242  0.25008921  0.51406077  1
  P  P279  1  0.80325847  0.25024848  0.76299123  1
  P  P280  1  0.80313101  0.58328300  0.01554494  1
  P  P281  1  0.80580400  0.58313087  0.26356892  1
  P  P282  1  0.80217701  0.58424500  0.51498084  1
  P  P283  1  0.80166073  0.58212151  0.76465482  1
  P  P284  1  0.80321924  0.91654056  0.01536495  1
  P  P285  1  0.80202926  0.91613448  0.26478218  1
  P  P286  1  0.80123012  0.91572802  0.51479454  1
  P  P287  1  0.80139243  0.91775552  0.76490109  1
  O  O288  1  0.05890273  0.24992485  0.18822112  1
  O  O289  1  0.05970776  0.24997828  0.43772415  1
  O  O290  1  0.05881696  0.25006143  0.68697914  1
  O  O291  1  0.05721585  0.25020019  0.93587893  1
  O  O292  1  0.05619521  0.58339447  0.18652281  1
  O  O293  1  0.05913705  0.58276041  0.43852373  1
  O  O294  1  0.05977958  0.58347246  0.68705195  1
  O  O295  1  0.05947042  0.58395646  0.93706149  1
  O  O296  1  0.05707873  0.91675626  0.18628838  1
  O  O297  1  0.05647225  0.91674217  0.43687800  1
  O  O298  1  0.05637367  0.91673619  0.68614776  1
  O  O299  1  0.05921336  0.91573397  0.93752214  1
  O  O300  1  0.55815592  0.25081238  0.18845035  1
  O  O301  1  0.55658979  0.25066075  0.43599033  1
  O  O302  1  0.55866040  0.25050157  0.68714093  1
  O  O303  1  0.55634310  0.25043089  0.93577756  1
  O  O304  1  0.55611095  0.58303659  0.18644712  1
  O  O305  1  0.55813503  0.58350959  0.43733486  1
  O  O306  1  0.55902631  0.58290153  0.68739849  1
  O  O307  1  0.55812271  0.58300205  0.93729607  1
  O  O308  1  0.55761837  0.91599110  0.18813500  1
  O  O309  1  0.55844778  0.91606422  0.43719882  1
  O  O310  1  0.55961977  0.91669541  0.68752673  1
  O  O311  1  0.55584865  0.91669782  0.93623346  1
  O  O312  1  0.44218418  0.08335969  0.06390957  1
  O  O313  1  0.44101280  0.08398000  0.31272655  1
  O  O314  1  0.44216491  0.08422192  0.56174552  1
  O  O315  1  0.44448187  0.08338790  0.81337217  1
  O  O316  1  0.44258344  0.41687414  0.06397775  1
  O  O317  1  0.43959513  0.41630537  0.31290878  1
  O  O318  1  0.44116770  0.41659278  0.56170274  1
  O  O319  1  0.44389155  0.41726589  0.81308368  1
  O  O320  1  0.44051810  0.74995646  0.06188932  1
  O  O321  1  0.44346839  0.74963138  0.31341566  1
  O  O322  1  0.44345594  0.74956052  0.56380117  1
  O  O323  1  0.44068598  0.74946678  0.81275766  1
  O  O324  1  0.94560040  0.08325372  0.06329280  1
  O  O325  1  0.94391661  0.08351841  0.31322877  1
  O  O326  1  0.94236394  0.08310667  0.56390386  1
  O  O327  1  0.94071807  0.08345416  0.81190223  1
  O  O328  1  0.94496870  0.41691377  0.06353313  1
  O  O329  1  0.94261585  0.41649533  0.31237492  1
  O  O330  1  0.94330035  0.41702701  0.56387170  1
  O  O331  1  0.94121502  0.41692189  0.81161840  1
  O  O332  1  0.94450251  0.74957659  0.06344656  1
  O  O333  1  0.94097836  0.75029064  0.31302686  1
  O  O334  1  0.94011290  0.74977953  0.56241054  1
  O  O335  1  0.94373136  0.74973439  0.81283736  1
  O  O336  1  0.19139695  0.08308958  0.06212466  1
  O  O337  1  0.19426329  0.08366158  0.31141937  1
  O  O338  1  0.19481524  0.08350641  0.56202911  1
  O  O339  1  0.19132661  0.08341112  0.81242970  1
  O  O340  1  0.19063927  0.41743329  0.06261964  1
  O  O341  1  0.19161955  0.41667668  0.31231358  1
  O  O342  1  0.19379156  0.41640250  0.56146993  1
  O  O343  1  0.19195335  0.41655059  0.81310291  1
  O  O344  1  0.19112684  0.74951203  0.06300102  1
  O  O345  1  0.19035427  0.75005514  0.31241092  1
  O  O346  1  0.19390113  0.74997745  0.56074258  1
  O  O347  1  0.19317554  0.74986928  0.81242267  1
  O  O348  1  0.69317388  0.08385327  0.06221806  1
  O  O349  1  0.69093871  0.08362501  0.31350793  1
  O  O350  1  0.69026131  0.08404345  0.56189030  1
  O  O351  1  0.69383627  0.08421807  0.81101858  1
  O  O352  1  0.69356823  0.41695476  0.06231532  1
  O  O353  1  0.69411312  0.41633729  0.31218804  1
  O  O354  1  0.69101223  0.41655267  0.56224992  1
  O  O355  1  0.69357204  0.41637042  0.81094403  1
  O  O356  1  0.69358190  0.74917702  0.06220105  1
  O  O357  1  0.69390424  0.74973354  0.31167421  1
  O  O358  1  0.69151265  0.74937085  0.56249790  1
  O  O359  1  0.69230151  0.74951588  0.81184952  1
  O  O360  1  0.30747977  0.25022187  0.18699910  1
  O  O361  1  0.30613093  0.25012549  0.43893426  1
  O  O362  1  0.30848444  0.25033532  0.68742429  1
  O  O363  1  0.30685769  0.25021736  0.93856978  1
  O  O364  1  0.30847260  0.58322185  0.18753424  1
  O  O365  1  0.30772720  0.58337534  0.43706883  1
  O  O366  1  0.30684043  0.58301205  0.68883177  1
  O  O367  1  0.30775072  0.58311426  0.93783686  1
  O  O368  1  0.30855573  0.91640844  0.18782774  1
  O  O369  1  0.30937277  0.91694528  0.43710494  1
  O  O370  1  0.30725254  0.91632531  0.68807201  1
  O  O371  1  0.30596823  0.91641459  0.93877644  1
  O  O372  1  0.80737286  0.25012646  0.18909197  1
  O  O373  1  0.81009491  0.25020166  0.43735692  1
  O  O374  1  0.80772979  0.25020527  0.68628961  1
  O  O375  1  0.80693587  0.25008666  0.93850420  1
  O  O376  1  0.81016167  0.58298203  0.18685502  1
  O  O377  1  0.80647112  0.58344730  0.43824347  1
  O  O378  1  0.80561156  0.58281954  0.68801502  1
  O  O379  1  0.80694333  0.58322824  0.93878827  1
  O  O380  1  0.80647952  0.91676801  0.18812011  1
  O  O381  1  0.80532052  0.91654339  0.43810610  1
  O  O382  1  0.80472983  0.91700077  0.68817459  1
  O  O383  1  0.80657260  0.91662356  0.93853222  1
  O  O384  1  0.23390372  0.25021351  0.03992059  1
  O  O385  1  0.23308036  0.25009796  0.28801139  1
  O  O386  1  0.23291426  0.25053252  0.54046059  1
  O  O387  1  0.23268329  0.25031194  0.78763175  1
  O  O388  1  0.23285873  0.58396616  0.03838099  1
  O  O389  1  0.23484452  0.58272957  0.28832703  1
  O  O390  1  0.23282025  0.58272863  0.53764120  1
  O  O391  1  0.23309311  0.58348567  0.79011794  1
  O  O392  1  0.23232283  0.91588933  0.04003433  1
  O  O393  1  0.23537575  0.91773003  0.28915402  1
  O  O394  1  0.23535860  0.91657406  0.53843100  1
  O  O395  1  0.23391011  0.91592297  0.78977963  1
  O  O396  1  0.73396388  0.25057926  0.04050004  1
  O  O397  1  0.73351244  0.25014621  0.29046751  1
  O  O398  1  0.73516758  0.25011371  0.53734253  1
  O  O399  1  0.73295659  0.25037395  0.78705548  1
  O  O400  1  0.73311466  0.58315924  0.04027136  1
  O  O401  1  0.73569004  0.58328364  0.28783492  1
  O  O402  1  0.73210152  0.58353133  0.53917515  1
  O  O403  1  0.73144909  0.58257448  0.78892697  1
  O  O404  1  0.73349712  0.91625103  0.04041286  1
  O  O405  1  0.73183807  0.91640111  0.28904599  1
  O  O406  1  0.73107058  0.91610249  0.53893881  1
  O  O407  1  0.73129061  0.91736462  0.78955286  1
  O  O408  1  0.26763363  0.08346385  0.21000236  1
  O  O409  1  0.26890567  0.08488686  0.46073175  1
  O  O410  1  0.26569761  0.08339767  0.71158388  1
  O  O411  1  0.26460938  0.08304876  0.96056983  1
  O  O412  1  0.26612745  0.41659117  0.21165577  1
  O  O413  1  0.26709992  0.41594370  0.45986354  1
  O  O414  1  0.26532883  0.41745417  0.71141015  1
  O  O415  1  0.26428051  0.41697749  0.96141370  1
  O  O416  1  0.26487457  0.74982661  0.21208129  1
  O  O417  1  0.26590431  0.74974875  0.45838115  1
  O  O418  1  0.26774819  0.74885003  0.71130943  1
  O  O419  1  0.26596800  0.74972659  0.96253475  1
  O  O420  1  0.76483338  0.08378204  0.21210764  1
  O  O421  1  0.76401928  0.08302317  0.46094241  1
  O  O422  1  0.76659560  0.08371321  0.70892936  1
  O  O423  1  0.76647096  0.08376841  0.96022406  1
  O  O424  1  0.76860350  0.41628760  0.21126707  1
  O  O425  1  0.76533151  0.41748610  0.46153107  1
  O  O426  1  0.76657549  0.41650184  0.70908356  1
  O  O427  1  0.76635677  0.41709999  0.96005270  1
  O  O428  1  0.76798734  0.74988100  0.21062511  1
  O  O429  1  0.76616808  0.74987867  0.46154518  1
  O  O430  1  0.76480217  0.74968382  0.70977150  1
  O  O431  1  0.76589210  0.74933447  0.95950430  1
  O  O432  1  0.01931109  0.08313496  0.16469097  1
  O  O433  1  0.01656561  0.08405465  0.41540659  1
  O  O434  1  0.01520019  0.08329334  0.66559654  1
  O  O435  1  0.01749599  0.08377208  0.91111339  1
  O  O436  1  0.01830055  0.41740970  0.16508175  1
  O  O437  1  0.01769894  0.41589773  0.41295264  1
  O  O438  1  0.01583973  0.41637997  0.66550581  1
  O  O439  1  0.01767198  0.41691872  0.91114279  1
  O  O440  1  0.01813254  0.74949160  0.16466649  1
  O  O441  1  0.01611707  0.74964132  0.41322677  1
  O  O442  1  0.01537272  0.75005561  0.66261341  1
  O  O443  1  0.01892904  0.74945173  0.91323679  1
  O  O444  1  0.51457177  0.08286262  0.16595919  1
  O  O445  1  0.51630703  0.08363682  0.41282308  1
  O  O446  1  0.51747710  0.08370908  0.66185686  1
  O  O447  1  0.51651560  0.08379656  0.91618491  1
  O  O448  1  0.51469661  0.41728764  0.16652527  1
  O  O449  1  0.51412507  0.41654804  0.41335790  1
  O  O450  1  0.51680180  0.41699229  0.66187786  1
  O  O451  1  0.51595197  0.41674583  0.91568972  1
  O  O452  1  0.51418490  0.74905635  0.16368507  1
  O  O453  1  0.51620936  0.75015200  0.41544247  1
  O  O454  1  0.51797402  0.74934855  0.66429300  1
  O  O455  1  0.51384471  0.74978959  0.91426919  1
  O  O456  1  0.48189157  0.25043952  0.08874958  1
  O  O457  1  0.48337247  0.24976962  0.33492324  1
  O  O458  1  0.48368263  0.25024889  0.58621928  1
  O  O459  1  0.48433642  0.25041874  0.83328636  1
  O  O460  1  0.48160927  0.58286748  0.08576015  1
  O  O461  1  0.48222168  0.58312239  0.33764825  1
  O  O462  1  0.48534928  0.58307409  0.58622365  1
  O  O463  1  0.48307252  0.58337315  0.83671210  1
  O  O464  1  0.48175177  0.91694726  0.08808143  1
  O  O465  1  0.48335119  0.91640917  0.33704867  1
  O  O466  1  0.48593668  0.91714060  0.58633414  1
  O  O467  1  0.48387156  0.91644497  0.83371446  1
  O  O468  1  0.98561865  0.25042867  0.08612792  1
  O  O469  1  0.98506364  0.25022231  0.33691066  1
  O  O470  1  0.98322367  0.25039407  0.58718109  1
  O  O471  1  0.98482441  0.24997599  0.83390738  1
  O  O472  1  0.98322905  0.58319808  0.08445397  1
  O  O473  1  0.98543240  0.58346089  0.33730005  1
  O  O474  1  0.98527346  0.58279270  0.58635170  1
  O  O475  1  0.98597701  0.58367848  0.83553171  1
  O  O476  1  0.98515009  0.91645224  0.08357850  1
  O  O477  1  0.98373414  0.91650743  0.33469123  1
  O  O478  1  0.98290810  0.91686484  0.58466940  1
  O  O479  1  0.98531590  0.91618698  0.83606381  1
  O  O480  1  0.08912139  0.31549218  0.07894571  1
  O  O481  1  0.08880656  0.31572984  0.32782260  1
  O  O482  1  0.08733639  0.31479588  0.57681177  1
  O  O483  1  0.08869905  0.31531338  0.82660286  1
  O  O484  1  0.08732343  0.64837773  0.07715529  1
  O  O485  1  0.08901839  0.64824684  0.32888620  1
  O  O486  1  0.08903296  0.64813833  0.57699019  1
  O  O487  1  0.08982021  0.64885484  0.82725473  1
  O  O488  1  0.08924108  0.98150094  0.07727676  1
  O  O489  1  0.08786847  0.98097109  0.32777719  1
  O  O490  1  0.08674670  0.98201662  0.57686877  1
  O  O491  1  0.08890458  0.98125846  0.82801524  1
  O  O492  1  0.58533941  0.31569370  0.07813607  1
  O  O493  1  0.58748245  0.31439984  0.32610184  1
  O  O494  1  0.58711215  0.31572293  0.57714868  1
  O  O495  1  0.58840980  0.31526888  0.82657710  1
  O  O496  1  0.58553895  0.64793235  0.07657011  1
  O  O497  1  0.58571662  0.64836612  0.32693059  1
  O  O498  1  0.58900170  0.64836835  0.57769437  1
  O  O499  1  0.58704295  0.64808417  0.82742980  1
  O  O500  1  0.58577495  0.98117720  0.07821511  1
  O  O501  1  0.58669261  0.98255084  0.32744436  1
  O  O502  1  0.58992644  0.98143553  0.57765577  1
  O  O503  1  0.58776172  0.98178128  0.82705190  1
  O  O504  1  0.41036222  0.01838102  0.17302906  1
  O  O505  1  0.41300744  0.01756067  0.42258482  1
  O  O506  1  0.41352974  0.01972083  0.67198300  1
  O  O507  1  0.41288617  0.01830975  0.92237464  1
  O  O508  1  0.41065391  0.35208960  0.17327025  1
  O  O509  1  0.41012141  0.35233676  0.42305047  1
  O  O510  1  0.41361052  0.35070372  0.67175354  1
  O  O511  1  0.41178423  0.35262880  0.92205463  1
  O  O512  1  0.41036801  0.68441646  0.17120416  1
  O  O513  1  0.41256357  0.68474659  0.42281204  1
  O  O514  1  0.41374774  0.68470668  0.67344510  1
  O  O515  1  0.41047111  0.68347031  0.92219783  1
  O  O516  1  0.91519981  0.01817791  0.17268832  1
  O  O517  1  0.91245847  0.01940875  0.42251922  1
  O  O518  1  0.91065032  0.01950692  0.67359895  1
  O  O519  1  0.91430295  0.01823243  0.92233874  1
  O  O520  1  0.91417009  0.35281499  0.17348010  1
  O  O521  1  0.91400065  0.35052107  0.42190685  1
  O  O522  1  0.91186258  0.35090084  0.67275091  1
  O  O523  1  0.91433563  0.35169105  0.92197969  1
  O  O524  1  0.91435697  0.68367586  0.17269829  1
  O  O525  1  0.91215123  0.68514596  0.42321756  1
  O  O526  1  0.91210285  0.68464644  0.67260059  1
  O  O527  1  0.91503610  0.68465644  0.92249575  1
  O  O528  1  0.16322802  0.01947576  0.20189283  1
  O  O529  1  0.16537881  0.01939775  0.45202780  1
  O  O530  1  0.16199562  0.01898991  0.70233236  1
  O  O531  1  0.16136200  0.01668635  0.95290152  1
  O  O532  1  0.16256048  0.35071771  0.20266113  1
  O  O533  1  0.16306637  0.35096831  0.45231625  1
  O  O534  1  0.16197378  0.35194565  0.70307031  1
  O  O535  1  0.16014509  0.35311005  0.95263044  1
  O  O536  1  0.16120312  0.68501330  0.20227633  1
  O  O537  1  0.16209633  0.68401571  0.45197947  1
  O  O538  1  0.16386690  0.68378987  0.70307478  1
  O  O539  1  0.16222321  0.68486531  0.95268142  1
  O  O540  1  0.66116956  0.01858898  0.20381225  1
  O  O541  1  0.66034528  0.01732902  0.45270744  1
  O  O542  1  0.66219464  0.01896753  0.70211052  1
  O  O543  1  0.66264797  0.01862730  0.95313672  1
  O  O544  1  0.66490003  0.35031517  0.20286865  1
  O  O545  1  0.66172451  0.35268755  0.45214199  1
  O  O546  1  0.66249034  0.35144092  0.70131016  1
  O  O547  1  0.66233591  0.35280344  0.95287089  1
  O  O548  1  0.66383011  0.68532555  0.20222985  1
  O  O549  1  0.66290863  0.68410960  0.45237579  1
  O  O550  1  0.66086420  0.68457878  0.70258832  1
  O  O551  1  0.66236931  0.68318536  0.95353718  1
  O  O552  1  0.33780242  0.31513869  0.04807942  1
  O  O553  1  0.33659170  0.31509080  0.29707163  1
  O  O554  1  0.33695134  0.31577303  0.54815916  1
  O  O555  1  0.33612744  0.31545537  0.79746085  1
  O  O556  1  0.33671999  0.64915398  0.04760470  1
  O  O557  1  0.33880025  0.64719058  0.29784483  1
  O  O558  1  0.33664200  0.64720676  0.54743805  1
  O  O559  1  0.33708159  0.64884412  0.79809550  1
  O  O560  1  0.33650258  0.98052599  0.04837529  1
  O  O561  1  0.33931313  0.98285703  0.29688987  1
  O  O562  1  0.33845591  0.98301588  0.54667657  1
  O  O563  1  0.33757784  0.98074319  0.79763591  1
  O  O564  1  0.83808724  0.31523471  0.04747140  1
  O  O565  1  0.83764657  0.31583993  0.29829244  1
  O  O566  1  0.83894187  0.31503360  0.54754219  1
  O  O567  1  0.83664852  0.31542515  0.79624812  1
  O  O568  1  0.83732662  0.64828681  0.04818496  1
  O  O569  1  0.83925141  0.64841528  0.29646120  1
  O  O570  1  0.83558434  0.64942772  0.54770841  1
  O  O571  1  0.83553792  0.64703809  0.79783112  1
  O  O572  1  0.83720771  0.98159519  0.04799301  1
  O  O573  1  0.83568046  0.98124212  0.29791853  1
  O  O574  1  0.83484153  0.98084990  0.54779824  1
  O  O575  1  0.83513607  0.98305389  0.79715932  1
  O  O576  1  0.41090294  0.14854414  0.17331828  1
  O  O577  1  0.41222353  0.14773342  0.42319517  1
  O  O578  1  0.41412976  0.14986042  0.67181132  1
  O  O579  1  0.41246986  0.14846001  0.92215381  1
  O  O580  1  0.41056521  0.48220119  0.17271244  1
  O  O581  1  0.41065763  0.48245598  0.42275765  1
  O  O582  1  0.41280330  0.48087910  0.67195491  1
  O  O583  1  0.41242240  0.48274940  0.92211282  1
  O  O584  1  0.41087975  0.81471697  0.17184263  1
  O  O585  1  0.41248297  0.81512602  0.42236621  1
  O  O586  1  0.41410104  0.81471937  0.67342921  1
  O  O587  1  0.40953752  0.81351303  0.92273034  1
  O  O588  1  0.91536773  0.14822258  0.17277662  1
  O  O589  1  0.91293548  0.14966062  0.42192050  1
  O  O590  1  0.91176895  0.14965181  0.67283857  1
  O  O591  1  0.91399687  0.14858057  0.92227532  1
  O  O592  1  0.91430230  0.48285009  0.17264170  1
  O  O593  1  0.91403852  0.48062702  0.42280125  1
  O  O594  1  0.91171714  0.48094368  0.67358408  1
  O  O595  1  0.91423721  0.48190497  0.92198406  1
  O  O596  1  0.91378018  0.81380053  0.17325108  1
  O  O597  1  0.91232354  0.81518629  0.42310459  1
  O  O598  1  0.91166270  0.81495022  0.67242403  1
  O  O599  1  0.91521432  0.81473790  0.92270635  1
  O  O600  1  0.08908955  0.18506383  0.07857337  1
  O  O601  1  0.08915871  0.18576718  0.32751430  1
  O  O602  1  0.08682773  0.18493640  0.57668999  1
  O  O603  1  0.08896659  0.18522603  0.82660991  1
  O  O604  1  0.08745825  0.51836901  0.07733784  1
  O  O605  1  0.08875662  0.51795091  0.32853797  1
  O  O606  1  0.08924822  0.51820167  0.57729450  1
  O  O607  1  0.08983948  0.51869671  0.82744609  1
  O  O608  1  0.08903490  0.85124719  0.07747322  1
  O  O609  1  0.08728013  0.85072825  0.32797594  1
  O  O610  1  0.08694099  0.85192042  0.57695832  1
  O  O611  1  0.08879968  0.85077867  0.82769159  1
  O  O612  1  0.58542830  0.18550069  0.07824678  1
  O  O613  1  0.58733094  0.18439193  0.32706052  1
  O  O614  1  0.58747215  0.18547689  0.57730928  1
  O  O615  1  0.58837449  0.18533763  0.82663581  1
  O  O616  1  0.58581893  0.51798232  0.07695920  1
  O  O617  1  0.58592297  0.51833075  0.32709967  1
  O  O618  1  0.58913827  0.51812666  0.57738402  1
  O  O619  1  0.58685605  0.51820317  0.82702942  1
  O  O620  1  0.58490046  0.85101908  0.07779024  1
  O  O621  1  0.58751431  0.85247459  0.32656088  1
  O  O622  1  0.58906093  0.85102520  0.57773395  1
  O  O623  1  0.58804108  0.85180178  0.82732493  1
  O  O624  1  0.33780652  0.18509911  0.04790053  1
  O  O625  1  0.33664313  0.18496956  0.29693367  1
  O  O626  1  0.33740657  0.18572999  0.54849928  1
  O  O627  1  0.33625871  0.18521595  0.79746233  1
  O  O628  1  0.33669970  0.51920969  0.04813843  1
  O  O629  1  0.33834257  0.51711222  0.29708583  1
  O  O630  1  0.33618830  0.51705265  0.54684245  1
  O  O631  1  0.33711272  0.51891013  0.79880232  1
  O  O632  1  0.33621547  0.85046440  0.04811643  1
  O  O633  1  0.33912459  0.85272535  0.29803966  1
  O  O634  1  0.33937364  0.85264512  0.54692969  1
  O  O635  1  0.33739836  0.85035987  0.79706459  1
  O  O636  1  0.83759742  0.18508340  0.04801425  1
  O  O637  1  0.83791680  0.18572437  0.29858353  1
  O  O638  1  0.83875361  0.18500486  0.54741865  1
  O  O639  1  0.83648683  0.18502424  0.79627701  1
  O  O640  1  0.83749117  0.51841455  0.04827144  1
  O  O641  1  0.83920789  0.51792193  0.29686196  1
  O  O642  1  0.83621830  0.51930723  0.54789479  1
  O  O643  1  0.83525104  0.51683535  0.79723677  1
  O  O644  1  0.83750760  0.85135267  0.04744601  1
  O  O645  1  0.83570006  0.85093180  0.29741073  1
  O  O646  1  0.83481231  0.85067361  0.54756629  1
  O  O647  1  0.83536305  0.85273686  0.79780808  1
  O  O648  1  0.16390851  0.14946512  0.20212434  1
  O  O649  1  0.16476526  0.14957115  0.45311699  1
  O  O650  1  0.16234995  0.14925706  0.70271501  1
  O  O651  1  0.16041068  0.14692741  0.95218667  1
  O  O652  1  0.16208335  0.48072391  0.20203956  1
  O  O653  1  0.16311392  0.48108188  0.45171848  1
  O  O654  1  0.16171639  0.48225833  0.70382053  1
  O  O655  1  0.16098083  0.48326160  0.95310241  1
  O  O656  1  0.16134636  0.81503562  0.20245009  1
  O  O657  1  0.16160459  0.81413390  0.45147282  1
  O  O658  1  0.16414559  0.81387525  0.70200596  1
  O  O659  1  0.16244661  0.81498340  0.95280695  1
  O  O660  1  0.66133761  0.14916391  0.20400406  1
  O  O661  1  0.66005567  0.14750852  0.45166346  1
  O  O662  1  0.66267933  0.14904488  0.70137453  1
  O  O663  1  0.66277248  0.14890519  0.95291995  1
  O  O664  1  0.66434609  0.48053456  0.20256320  1
  O  O665  1  0.66175488  0.48296711  0.45276236  1
  O  O666  1  0.66222382  0.48145116  0.70188102  1
  O  O667  1  0.66279147  0.48305736  0.95348456  1
  O  O668  1  0.66395309  0.81552685  0.20247652  1
  O  O669  1  0.66221688  0.81438891  0.45272132  1
  O  O670  1  0.66091020  0.81481336  0.70268485  1
  O  O671  1  0.66154373  0.81343069  0.95325439  1
