# generated using pymatgen
data_Na2MnFe(PO4)2
_symmetry_space_group_name_H-M   'P 1'
_cell_length_a   21.09265868
_cell_length_b   18.94595667
_cell_length_c   20.05109930
_cell_angle_alpha   89.99989138
_cell_angle_beta   90.00365551
_cell_angle_gamma   90.00080180
_symmetry_Int_Tables_number   1
_chemical_formula_structural   Na2MnFe(PO4)2
_chemical_formula_sum   'Na96 Mn48 Fe48 P96 O384'
_cell_volume   8012.83226024
_cell_formula_units_Z   48
loop_
 _symmetry_equiv_pos_site_id
 _symmetry_equiv_pos_as_xyz
  1  'x, y, z'
loop_
 _atom_site_type_symbol
 _atom_site_label
 _atom_site_symmetry_multiplicity
 _atom_site_fract_x
 _atom_site_fract_y
 _atom_site_fract_z
 _atom_site_occupancy
  Na  Na0  1  0.00084364  -0.00038349  0.00009536  1
  Na  Na1  1  0.00090821  -0.00035792  0.24981074  1
  Na  Na2  1  0.00146335  -0.00047366  0.50024716  1
  Na  Na3  1  0.00310109  0.00101730  0.75001026  1
  Na  Na4  1  -0.00077147  0.33217252  -0.00038704  1
  Na  Na5  1  0.00259106  0.33448232  0.24987011  1
  Na  Na6  1  -0.00009291  0.33276178  0.50051677  1
  Na  Na7  1  -0.00043937  0.33238760  0.74998165  1
  Na  Na8  1  0.00101521  0.66778206  0.00025381  1
  Na  Na9  1  -0.00036023  0.66643312  0.24926575  1
  Na  Na10  1  0.00004400  0.66685660  0.49969922  1
  Na  Na11  1  0.00112573  0.66773723  0.75117851  1
  Na  Na12  1  0.50051263  -0.00013777  -0.00062173  1
  Na  Na13  1  0.49953004  -0.00026801  0.24937402  1
  Na  Na14  1  0.49915734  -0.00028171  0.50031490  1
  Na  Na15  1  0.50000433  -0.00029669  0.75087697  1
  Na  Na16  1  0.49809695  0.33290360  -0.00038079  1
  Na  Na17  1  0.50074695  0.33430222  0.24981385  1
  Na  Na18  1  0.50093051  0.33293291  0.50096775  1
  Na  Na19  1  0.50130561  0.33360746  0.75006513  1
  Na  Na20  1  0.49949349  0.66701996  -0.00033649  1
  Na  Na21  1  0.50160539  0.66821969  0.24912490  1
  Na  Na22  1  0.49986617  0.66679393  0.50093455  1
  Na  Na23  1  0.50020771  0.66727187  0.74904778  1
  Na  Na24  1  0.25122994  -0.00086162  0.12412181  1
  Na  Na25  1  0.25080294  -0.00053665  0.37576473  1
  Na  Na26  1  0.24925933  -0.00037953  0.62486157  1
  Na  Na27  1  0.24880144  -0.00052197  0.87447551  1
  Na  Na28  1  0.24920876  0.33305361  0.12618347  1
  Na  Na29  1  0.24802564  0.33292031  0.37346700  1
  Na  Na30  1  0.24771652  0.33237169  0.62475297  1
  Na  Na31  1  0.24981279  0.33324709  0.87562570  1
  Na  Na32  1  0.24817896  0.66635554  0.12473690  1
  Na  Na33  1  0.24959612  0.66723041  0.37569033  1
  Na  Na34  1  0.24819644  0.66686349  0.62579816  1
  Na  Na35  1  0.24852403  0.66688104  0.87438190  1
  Na  Na36  1  0.74956214  -0.00022968  0.12567349  1
  Na  Na37  1  0.74902254  0.00019339  0.37489206  1
  Na  Na38  1  0.74815147  -0.00011284  0.62559577  1
  Na  Na39  1  0.74859566  -0.00093476  0.87465419  1
  Na  Na40  1  0.74975976  0.33293818  0.12442119  1
  Na  Na41  1  0.74986478  0.33316200  0.37433908  1
  Na  Na42  1  0.75285263  0.33376293  0.62538350  1
  Na  Na43  1  0.75135158  0.33291619  0.87530974  1
  Na  Na44  1  0.74975230  0.66730742  0.12611676  1
  Na  Na45  1  0.74977828  0.66681768  0.37459033  1
  Na  Na46  1  0.74966753  0.66651718  0.62344948  1
  Na  Na47  1  0.75069317  0.66795002  0.87601885  1
  Na  Na48  1  0.00121325  0.16572231  0.00010869  1
  Na  Na49  1  -0.00103405  0.16682186  0.24991075  1
  Na  Na50  1  -0.00056203  0.16643388  0.50050829  1
  Na  Na51  1  0.00032674  0.16649522  0.74987396  1
  Na  Na52  1  0.00040464  0.49988121  0.00045837  1
  Na  Na53  1  0.00200299  0.49964954  0.24938720  1
  Na  Na54  1  0.00067525  0.50030642  0.50000623  1
  Na  Na55  1  0.00015967  0.50008542  0.75011914  1
  Na  Na56  1  0.00014214  0.83416580  -0.00029942  1
  Na  Na57  1  0.00145351  0.83371558  0.24948277  1
  Na  Na58  1  0.00239147  0.83312025  0.50022117  1
  Na  Na59  1  0.00224696  0.83324342  0.75089478  1
  Na  Na60  1  0.49959928  0.16627780  -0.00108581  1
  Na  Na61  1  0.49824521  0.16717806  0.24983436  1
  Na  Na62  1  0.50188144  0.16515918  0.50015757  1
  Na  Na63  1  0.50161953  0.16576516  0.74999181  1
  Na  Na64  1  0.49978705  0.49976871  -0.00012083  1
  Na  Na65  1  0.50122755  0.49925059  0.24916364  1
  Na  Na66  1  0.50089597  0.49971168  0.50121522  1
  Na  Na67  1  0.50072898  0.49986763  0.74977455  1
  Na  Na68  1  0.49865419  0.83446370  -0.00002756  1
  Na  Na69  1  0.50053972  0.83315326  0.24894529  1
  Na  Na70  1  0.49828723  0.83437912  0.50103217  1
  Na  Na71  1  0.49896717  0.83391176  0.75023654  1
  Na  Na72  1  0.25118106  0.16592930  0.12496713  1
  Na  Na73  1  0.24992335  0.16643553  0.37512274  1
  Na  Na74  1  0.24764668  0.16680031  0.62514065  1
  Na  Na75  1  0.24769534  0.16723338  0.87528741  1
  Na  Na76  1  0.24831972  0.50003372  0.12532613  1
  Na  Na77  1  0.24618970  0.50127184  0.37468386  1
  Na  Na78  1  0.24842251  0.49993562  0.62472819  1
  Na  Na79  1  0.24980173  0.49944449  0.87555123  1
  Na  Na80  1  0.25088815  0.83403619  0.12439194  1
  Na  Na81  1  0.25139680  0.83394250  0.37545657  1
  Na  Na82  1  0.25001342  0.83392421  0.62533621  1
  Na  Na83  1  0.24941140  0.83433113  0.87397263  1
  Na  Na84  1  0.75105716  0.16541236  0.12477597  1
  Na  Na85  1  0.74967667  0.16614436  0.37540352  1
  Na  Na86  1  0.74961213  0.16613833  0.62575181  1
  Na  Na87  1  0.74962296  0.16640780  0.87418958  1
  Na  Na88  1  0.74947955  0.49979816  0.12547895  1
  Na  Na89  1  0.75132547  0.49921290  0.37439873  1
  Na  Na90  1  0.74990052  0.50069643  0.62428076  1
  Na  Na91  1  0.75056964  0.49971785  0.87562873  1
  Na  Na92  1  0.74939338  0.83368290  0.12581746  1
  Na  Na93  1  0.74761294  0.83431624  0.37402909  1
  Na  Na94  1  0.75048704  0.83317636  0.62443376  1
  Na  Na95  1  0.75043164  0.83349156  0.87600517  1
  Mn  Mn96  1  0.85810353  0.41645773  0.25196108  1
  Mn  Mn97  1  0.10818226  0.75032738  0.12229060  1
  Mn  Mn98  1  0.35688608  0.75023817  0.75246157  1
  Mn  Mn99  1  0.14258706  0.24902320  0.24727378  1
  Mn  Mn100  1  0.39166663  0.58313455  0.62709775  1
  Mn  Mn101  1  0.85702135  0.75031136  0.25229628  1
  Mn  Mn102  1  0.10804989  0.08342651  0.37255456  1
  Mn  Mn103  1  0.60883380  0.41598176  0.62277771  1
  Mn  Mn104  1  0.89232554  0.91627041  0.37710223  1
  Mn  Mn105  1  0.89274010  0.24960975  0.12700986  1
  Mn  Mn106  1  0.85808451  0.75071306  0.50192111  1
  Mn  Mn107  1  0.10839932  0.08339046  0.12285353  1
  Mn  Mn108  1  0.35770991  0.08374120  0.50266238  1
  Mn  Mn109  1  0.64247151  0.58374800  0.99765498  1
  Mn  Mn110  1  0.35732195  0.08345984  0.00150026  1
  Mn  Mn111  1  0.39193263  0.24958654  0.87653981  1
  Mn  Mn112  1  0.39255653  0.25031400  0.37795304  1
  Mn  Mn113  1  0.89299507  0.58361563  0.12699945  1
  Mn  Mn114  1  0.35699421  0.41699016  0.50147440  1
  Mn  Mn115  1  0.35812126  0.74989149  0.25230602  1
  Mn  Mn116  1  0.64198870  0.58358089  0.24807474  1
  Mn  Mn117  1  0.60699209  0.08367999  0.12205199  1
  Mn  Mn118  1  0.85787627  0.41746749  0.75254072  1
  Mn  Mn119  1  0.10752330  0.41611770  0.87328804  1
  Mn  Mn120  1  0.89213252  0.58337173  0.87779450  1
  Mn  Mn121  1  0.89231909  0.25032597  0.37755093  1
  Mn  Mn122  1  0.64313960  0.25031135  0.49827076  1
  Mn  Mn123  1  0.85741912  0.08291544  0.25241056  1
  Mn  Mn124  1  0.89322863  0.91669256  0.62725839  1
  Mn  Mn125  1  0.64235706  0.24918075  0.99768305  1
  Mn  Mn126  1  0.64253107  0.58289583  0.49683828  1
  Mn  Mn127  1  0.60777770  0.75081183  0.62301714  1
  Mn  Mn128  1  0.39190695  0.58375284  0.87717672  1
  Mn  Mn129  1  0.35731810  0.41569762  0.75192676  1
  Mn  Mn130  1  0.89271291  0.91744518  0.87704572  1
  Mn  Mn131  1  0.85757186  0.08213464  0.75228904  1
  Mn  Mn132  1  0.89249913  0.58398566  0.62744533  1
  Mn  Mn133  1  0.60807876  0.75019605  0.87281022  1
  Mn  Mn134  1  0.64133048  0.24964311  0.24738477  1
  Mn  Mn135  1  0.14157361  0.58323018  0.74767586  1
  Mn  Mn136  1  0.35724045  0.41688144  0.25270601  1
  Mn  Mn137  1  0.39193930  0.58343066  0.37729524  1
  Mn  Mn138  1  0.10737446  0.41682955  0.62214919  1
  Mn  Mn139  1  0.60803691  0.41637292  0.87316263  1
  Mn  Mn140  1  0.39167053  0.24937623  0.62728232  1
  Mn  Mn141  1  0.39163513  0.58341805  0.12714906  1
  Mn  Mn142  1  0.10873049  0.74965530  0.37234146  1
  Mn  Mn143  1  0.64141487  0.91670025  0.49768936  1
  Fe  Fe144  1  0.14198970  0.58431176  0.24806532  1
  Fe  Fe145  1  0.39190399  0.24993237  0.12611884  1
  Fe  Fe146  1  0.39285070  0.91703722  0.12646042  1
  Fe  Fe147  1  0.64146917  0.91691678  0.24781591  1
  Fe  Fe148  1  0.64225085  0.91596753  0.74841186  1
  Fe  Fe149  1  0.60825756  0.41676568  0.37345057  1
  Fe  Fe150  1  0.35653491  0.74947976  0.00086883  1
  Fe  Fe151  1  0.64287536  0.91675481  0.99867423  1
  Fe  Fe152  1  0.60680735  0.74998391  0.12247005  1
  Fe  Fe153  1  0.64339969  0.25004996  0.74813349  1
  Fe  Fe154  1  0.14302321  0.91656539  0.99809234  1
  Fe  Fe155  1  0.14388052  0.91664190  0.24823347  1
  Fe  Fe156  1  0.64293239  0.58372491  0.74886692  1
  Fe  Fe157  1  0.89287845  0.24917871  0.87669230  1
  Fe  Fe158  1  0.89350622  0.58336365  0.37630112  1
  Fe  Fe159  1  0.60762773  0.08309219  0.87309960  1
  Fe  Fe160  1  0.14291924  0.58356673  0.99797582  1
  Fe  Fe161  1  0.14171409  0.25002180  0.49782579  1
  Fe  Fe162  1  0.14328846  0.91746714  0.74783730  1
  Fe  Fe163  1  0.10756957  0.08310471  0.87319689  1
  Fe  Fe164  1  0.85762012  0.41654169  0.00242230  1
  Fe  Fe165  1  0.14172333  0.24938871  0.74840572  1
  Fe  Fe166  1  0.10759154  0.75060389  0.62290412  1
  Fe  Fe167  1  0.85836423  0.41616658  0.50121863  1
  Fe  Fe168  1  0.10772125  0.41642996  0.12233068  1
  Fe  Fe169  1  0.35713014  0.74969297  0.50159255  1
  Fe  Fe170  1  0.35647577  0.08370150  0.75152079  1
  Fe  Fe171  1  0.39224475  0.91744984  0.62732608  1
  Fe  Fe172  1  0.85760167  0.08255402  0.00115848  1
  Fe  Fe173  1  0.10749357  0.08301757  0.62280801  1
  Fe  Fe174  1  0.85715954  0.08330143  0.50201171  1
  Fe  Fe175  1  0.10742560  0.75070905  0.87372361  1
  Fe  Fe176  1  0.35784677  0.08294816  0.25163619  1
  Fe  Fe177  1  0.89274588  0.91685579  0.12656678  1
  Fe  Fe178  1  0.85775722  0.75030045  0.75135209  1
  Fe  Fe179  1  0.60653191  0.75012248  0.37383494  1
  Fe  Fe180  1  0.14404477  0.91658388  0.49798549  1
  Fe  Fe181  1  0.60672335  0.41666964  0.12265947  1
  Fe  Fe182  1  0.39321869  0.91657964  0.37633373  1
  Fe  Fe183  1  0.14216800  0.58374401  0.49787755  1
  Fe  Fe184  1  0.60714018  0.08294812  0.37335436  1
  Fe  Fe185  1  0.60683906  0.08309092  0.62375539  1
  Fe  Fe186  1  0.89345674  0.24909691  0.62673226  1
  Fe  Fe187  1  0.14289199  0.24987134  0.99820972  1
  Fe  Fe188  1  0.10686459  0.41671077  0.37375506  1
  Fe  Fe189  1  0.39269224  0.91681024  0.87650678  1
  Fe  Fe190  1  0.85773552  0.75090153  0.00225761  1
  Fe  Fe191  1  0.35666923  0.41709169  0.00195694  1
  P  P192  1  0.05448035  0.25024865  0.10921023  1
  P  P193  1  0.05433039  0.25036720  0.36092252  1
  P  P194  1  0.05414576  0.24879069  0.61072244  1
  P  P195  1  0.05397702  0.24900719  0.86086470  1
  P  P196  1  0.05561674  0.58301859  0.11021428  1
  P  P197  1  0.05412933  0.58294297  0.36039131  1
  P  P198  1  0.05394403  0.58472854  0.60947755  1
  P  P199  1  0.05460081  0.58399435  0.86168735  1
  P  P200  1  0.05444172  0.91687824  0.11027171  1
  P  P201  1  0.05567593  0.91657659  0.36013415  1
  P  P202  1  0.05603756  0.91676880  0.61084191  1
  P  P203  1  0.05580894  0.91685716  0.86088476  1
  P  P204  1  0.55147896  0.25056189  0.10950802  1
  P  P205  1  0.55369596  0.24980202  0.36036379  1
  P  P206  1  0.55466664  0.24870502  0.61137436  1
  P  P207  1  0.55424048  0.24920334  0.85940486  1
  P  P208  1  0.55332060  0.58344564  0.10969747  1
  P  P209  1  0.55291066  0.58352804  0.36007558  1
  P  P210  1  0.55502298  0.58360311  0.61111818  1
  P  P211  1  0.55376797  0.58364561  0.85920010  1
  P  P212  1  0.55373871  0.91624556  0.11010863  1
  P  P213  1  0.55257473  0.91649678  0.35960909  1
  P  P214  1  0.55308172  0.91762681  0.61160759  1
  P  P215  1  0.55426009  0.91702518  0.86088307  1
  P  P216  1  0.44538557  0.08317847  0.13967778  1
  P  P217  1  0.44668272  0.08236870  0.38885672  1
  P  P218  1  0.44660571  0.08274508  0.64097212  1
  P  P219  1  0.44650615  0.08251770  0.88823807  1
  P  P220  1  0.44566909  0.41618375  0.13870108  1
  P  P221  1  0.44843430  0.41696884  0.39033091  1
  P  P222  1  0.44676608  0.41627299  0.64009551  1
  P  P223  1  0.44564932  0.41656841  0.89057183  1
  P  P224  1  0.44597570  0.75081763  0.13803656  1
  P  P225  1  0.44702687  0.75090376  0.39043539  1
  P  P226  1  0.44468349  0.75092524  0.63897130  1
  P  P227  1  0.44579394  0.75112493  0.89035526  1
  P  P228  1  0.94571152  0.08201213  0.13879124  1
  P  P229  1  0.94617447  0.08279566  0.39094074  1
  P  P230  1  0.94698387  0.08332855  0.63900175  1
  P  P231  1  0.94763678  0.08354640  0.89022704  1
  P  P232  1  0.94728137  0.41654825  0.13889096  1
  P  P233  1  0.94762558  0.41754262  0.39014882  1
  P  P234  1  0.94550740  0.41585821  0.63886102  1
  P  P235  1  0.94588820  0.41573368  0.89071967  1
  P  P236  1  0.94536007  0.75144570  0.13874928  1
  P  P237  1  0.94730057  0.74970555  0.38971399  1
  P  P238  1  0.94794731  0.75061251  0.64089204  1
  P  P239  1  0.94617746  0.75067495  0.88964237  1
  P  P240  1  0.19848856  0.08182952  0.23501897  1
  P  P241  1  0.19543751  0.08309535  0.48626332  1
  P  P242  1  0.19532284  0.08322684  0.73578850  1
  P  P243  1  0.19595836  0.08305851  0.98456950  1
  P  P244  1  0.19402981  0.41750405  0.23566164  1
  P  P245  1  0.19529827  0.41650031  0.48389428  1
  P  P246  1  0.19580635  0.41538020  0.73530789  1
  P  P247  1  0.19637384  0.41636461  0.98653154  1
  P  P248  1  0.19702804  0.75091887  0.23518089  1
  P  P249  1  0.19671050  0.75065354  0.48643429  1
  P  P250  1  0.19427970  0.75151851  0.73575336  1
  P  P251  1  0.19700129  0.75057438  0.98400267  1
  P  P252  1  0.69457553  0.08259659  0.23589148  1
  P  P253  1  0.69588361  0.08343954  0.48586203  1
  P  P254  1  0.69445745  0.08285636  0.73601447  1
  P  P255  1  0.69714572  0.08214219  0.98449536  1
  P  P256  1  0.69476570  0.41658280  0.23488584  1
  P  P257  1  0.69839596  0.41621339  0.48429462  1
  P  P258  1  0.69701316  0.41670175  0.73541731  1
  P  P259  1  0.69694427  0.41625065  0.98630800  1
  P  P260  1  0.69364330  0.75094913  0.23564304  1
  P  P261  1  0.69603634  0.75032864  0.48391147  1
  P  P262  1  0.69790174  0.75025041  0.73511429  1
  P  P263  1  0.69677913  0.75125856  0.98681277  1
  P  P264  1  0.30256472  0.25055177  0.01522907  1
  P  P265  1  0.30489544  0.24895276  0.26391852  1
  P  P266  1  0.30138081  0.25030082  0.51481130  1
  P  P267  1  0.30128552  0.24855485  0.76482842  1
  P  P268  1  0.30190957  0.58378091  0.01462661  1
  P  P269  1  0.30139475  0.58351471  0.26512916  1
  P  P270  1  0.30151285  0.58390166  0.51476895  1
  P  P271  1  0.30254887  0.58313083  0.76515750  1
  P  P272  1  0.30425012  0.91584892  0.01338869  1
  P  P273  1  0.30484455  0.91731829  0.26435396  1
  P  P274  1  0.30487553  0.91609457  0.51445566  1
  P  P275  1  0.30415455  0.91819298  0.76416573  1
  P  P276  1  0.80503830  0.24884228  0.01350209  1
  P  P277  1  0.80315061  0.24977825  0.26495368  1
  P  P278  1  0.80474630  0.24956463  0.51565752  1
  P  P279  1  0.80457077  0.24927662  0.76429290  1
  P  P280  1  0.80376457  0.58371431  0.01561118  1
  P  P281  1  0.80432636  0.58331079  0.26550274  1
  P  P282  1  0.80536431  0.58260170  0.51322595  1
  P  P283  1  0.80237267  0.58485151  0.76499594  1
  P  P284  1  0.80322123  0.91727837  0.01548210  1
  P  P285  1  0.80256852  0.91664982  0.26399298  1
  P  P286  1  0.80315868  0.91780580  0.51508435  1
  P  P287  1  0.80227875  0.91573560  0.76479127  1
  O  O288  1  0.05733388  0.24939077  0.18605144  1
  O  O289  1  0.05804272  0.24943193  0.43769672  1
  O  O290  1  0.05846955  0.24941910  0.68743185  1
  O  O291  1  0.05900802  0.24968757  0.93750506  1
  O  O292  1  0.05927749  0.58416988  0.18698877  1
  O  O293  1  0.05883349  0.58418641  0.43710887  1
  O  O294  1  0.05666995  0.58362834  0.68624865  1
  O  O295  1  0.05886957  0.58354037  0.93843076  1
  O  O296  1  0.05963524  0.91677930  0.18686620  1
  O  O297  1  0.06026843  0.91643314  0.43687745  1
  O  O298  1  0.05949345  0.91713049  0.68764213  1
  O  O299  1  0.05953533  0.91666502  0.93767364  1
  O  O300  1  0.55526702  0.25008098  0.18614987  1
  O  O301  1  0.55685929  0.24949935  0.43712006  1
  O  O302  1  0.55918922  0.24994004  0.68803770  1
  O  O303  1  0.55700754  0.24975934  0.93621152  1
  O  O304  1  0.55634048  0.58349199  0.18645530  1
  O  O305  1  0.55565724  0.58335179  0.43686153  1
  O  O306  1  0.55974329  0.58378768  0.68784246  1
  O  O307  1  0.55698567  0.58380110  0.93598250  1
  O  O308  1  0.55802523  0.91675046  0.18677284  1
  O  O309  1  0.55559392  0.91686597  0.43638346  1
  O  O310  1  0.55808167  0.91631913  0.68822292  1
  O  O311  1  0.55905327  0.91649701  0.93753559  1
  O  O312  1  0.44261890  0.08304377  0.06280277  1
  O  O313  1  0.44192807  0.08303863  0.31225598  1
  O  O314  1  0.44305220  0.08342960  0.56418817  1
  O  O315  1  0.44138529  0.08332165  0.81173180  1
  O  O316  1  0.44018605  0.41696953  0.06206393  1
  O  O317  1  0.44397913  0.41712659  0.31363406  1
  O  O318  1  0.44296751  0.41626147  0.56336510  1
  O  O319  1  0.44258382  0.41655903  0.81380153  1
  O  O320  1  0.44066622  0.74995837  0.06148844  1
  O  O321  1  0.44380542  0.75008531  0.31364769  1
  O  O322  1  0.44041116  0.74995256  0.56223143  1
  O  O323  1  0.44261472  0.75033460  0.81357696  1
  O  O324  1  0.94168846  0.08227674  0.06209716  1
  O  O325  1  0.94292332  0.08272880  0.31410462  1
  O  O326  1  0.94189312  0.08250505  0.56246021  1
  O  O327  1  0.94368733  0.08276423  0.81353042  1
  O  O328  1  0.94175927  0.41648431  0.06227764  1
  O  O329  1  0.94436844  0.41684036  0.31340270  1
  O  O330  1  0.94192979  0.41653168  0.56225335  1
  O  O331  1  0.94305027  0.41669109  0.81381250  1
  O  O332  1  0.94137827  0.75107384  0.06213055  1
  O  O333  1  0.94369712  0.75056891  0.31289804  1
  O  O334  1  0.94361354  0.75080516  0.56422099  1
  O  O335  1  0.94125566  0.75059760  0.81299373  1
  O  O336  1  0.19376709  0.08275361  0.06131911  1
  O  O337  1  0.19473867  0.08256953  0.31167762  1
  O  O338  1  0.19154314  0.08321898  0.56300565  1
  O  O339  1  0.19113290  0.08337532  0.81249304  1
  O  O340  1  0.19214107  0.41620001  0.06330101  1
  O  O341  1  0.18980455  0.41678758  0.31236566  1
  O  O342  1  0.19277590  0.41633788  0.56108396  1
  O  O343  1  0.19297493  0.41599536  0.81176331  1
  O  O344  1  0.19387850  0.75094182  0.06138664  1
  O  O345  1  0.19455243  0.75093166  0.31156765  1
  O  O346  1  0.19236069  0.75056074  0.56309037  1
  O  O347  1  0.19048170  0.75071384  0.81246864  1
  O  O348  1  0.69331173  0.08311954  0.06120950  1
  O  O349  1  0.69025264  0.08314111  0.31264197  1
  O  O350  1  0.69095242  0.08306847  0.56251165  1
  O  O351  1  0.69077253  0.08276878  0.81280565  1
  O  O352  1  0.69122239  0.41604146  0.06290554  1
  O  O353  1  0.69053729  0.41654541  0.31167261  1
  O  O354  1  0.69440765  0.41639565  0.56098080  1
  O  O355  1  0.69432493  0.41621658  0.81220115  1
  O  O356  1  0.69153947  0.75047245  0.06337941  1
  O  O357  1  0.68935728  0.75029755  0.31236962  1
  O  O358  1  0.69284822  0.75046412  0.56066901  1
  O  O359  1  0.69452406  0.75060191  0.81186797  1
  O  O360  1  0.30898555  0.24977145  0.18718154  1
  O  O361  1  0.30588914  0.25008707  0.43814175  1
  O  O362  1  0.30510184  0.24899013  0.68815418  1
  O  O363  1  0.30617527  0.24997908  0.93855279  1
  O  O364  1  0.30562535  0.58332399  0.18843400  1
  O  O365  1  0.30549831  0.58349339  0.43809352  1
  O  O366  1  0.30568652  0.58334795  0.68837105  1
  O  O367  1  0.30555271  0.58360790  0.93802162  1
  O  O368  1  0.30929070  0.91656514  0.18760487  1
  O  O369  1  0.30966312  0.91679108  0.43777612  1
  O  O370  1  0.30854551  0.91761238  0.68746212  1
  O  O371  1  0.30867779  0.91689305  0.93674265  1
  O  O372  1  0.80674979  0.24976378  0.18818520  1
  O  O373  1  0.80688648  0.24946176  0.43882046  1
  O  O374  1  0.80968364  0.24888011  0.68767997  1
  O  O375  1  0.80891381  0.24893475  0.93672683  1
  O  O376  1  0.80762331  0.58337679  0.18880779  1
  O  O377  1  0.80981423  0.58320021  0.43652095  1
  O  O378  1  0.80602464  0.58423762  0.68834167  1
  O  O379  1  0.80634493  0.58369390  0.93863686  1
  O  O380  1  0.80798006  0.91666927  0.18749915  1
  O  O381  1  0.80619257  0.91723130  0.43834381  1
  O  O382  1  0.80656678  0.91675021  0.68821224  1
  O  O383  1  0.80684769  0.91705075  0.93874941  1
  O  O384  1  0.23247802  0.24948751  0.03971851  1
  O  O385  1  0.23479723  0.24931347  0.28791529  1
  O  O386  1  0.23118072  0.25001725  0.53868869  1
  O  O387  1  0.23130295  0.24914141  0.78946930  1
  O  O388  1  0.23180659  0.58365820  0.03923778  1
  O  O389  1  0.23125871  0.58416960  0.28917312  1
  O  O390  1  0.23137193  0.58349492  0.53911623  1
  O  O391  1  0.23287346  0.58314280  0.79010570  1
  O  O392  1  0.23377641  0.91656925  0.03704174  1
  O  O393  1  0.23463113  0.91670229  0.28838170  1
  O  O394  1  0.23443537  0.91674934  0.53788601  1
  O  O395  1  0.23371304  0.91752497  0.78753901  1
  O  O396  1  0.73511956  0.24891195  0.03821518  1
  O  O397  1  0.73347155  0.24964732  0.28974859  1
  O  O398  1  0.73522493  0.24988332  0.54136853  1
  O  O399  1  0.73403260  0.24928619  0.78744293  1
  O  O400  1  0.73424592  0.58373531  0.04111808  1
  O  O401  1  0.73443966  0.58330673  0.29000658  1
  O  O402  1  0.73528447  0.58325087  0.53720878  1
  O  O403  1  0.73255432  0.58412953  0.79015855  1
  O  O404  1  0.73308539  0.91706512  0.03998026  1
  O  O405  1  0.73214218  0.91681630  0.28731819  1
  O  O406  1  0.73344993  0.91700974  0.54012491  1
  O  O407  1  0.73218878  0.91627487  0.78911571  1
  O  O408  1  0.26831907  0.08223491  0.21008845  1
  O  O409  1  0.26538286  0.08304563  0.46178163  1
  O  O410  1  0.26551814  0.08301383  0.71149597  1
  O  O411  1  0.26562338  0.08322491  0.95908053  1
  O  O412  1  0.26419949  0.41659622  0.21184723  1
  O  O413  1  0.26474660  0.41681186  0.45829648  1
  O  O414  1  0.26526232  0.41578218  0.70941917  1
  O  O415  1  0.26658995  0.41662527  0.96233685  1
  O  O416  1  0.26641178  0.75035379  0.20912625  1
  O  O417  1  0.26691052  0.75060361  0.46204749  1
  O  O418  1  0.26432075  0.75083786  0.71163688  1
  O  O419  1  0.26684654  0.75051546  0.95938684  1
  O  O420  1  0.76456744  0.08275377  0.21181005  1
  O  O421  1  0.76624083  0.08356067  0.46230595  1
  O  O422  1  0.76455304  0.08276943  0.71184238  1
  O  O423  1  0.76717782  0.08246631  0.95990839  1
  O  O424  1  0.76493032  0.41655060  0.21114902  1
  O  O425  1  0.76851935  0.41592304  0.46010071  1
  O  O426  1  0.76658959  0.41708720  0.70987170  1
  O  O427  1  0.76742161  0.41631572  0.96314600  1
  O  O428  1  0.76382800  0.75024160  0.21196666  1
  O  O429  1  0.76577455  0.75075201  0.45905007  1
  O  O430  1  0.76772080  0.75033907  0.70977661  1
  O  O431  1  0.76719430  0.75118180  0.96336538  1
  O  O432  1  0.01564040  0.08303135  0.16335103  1
  O  O433  1  0.01600585  0.08289678  0.41546802  1
  O  O434  1  0.01737272  0.08328651  0.66256615  1
  O  O435  1  0.01784902  0.08279522  0.91426037  1
  O  O436  1  0.01768979  0.41667416  0.16204007  1
  O  O437  1  0.01759276  0.41676751  0.41500050  1
  O  O438  1  0.01554571  0.41621326  0.66372165  1
  O  O439  1  0.01552225  0.41611651  0.91561579  1
  O  O440  1  0.01565179  0.75055503  0.16296456  1
  O  O441  1  0.01698324  0.74990170  0.41446328  1
  O  O442  1  0.01815510  0.75063189  0.66467913  1
  O  O443  1  0.01664121  0.75100287  0.91305252  1
  O  O444  1  0.51508405  0.08321806  0.16471324  1
  O  O445  1  0.51697099  0.08230918  0.41280981  1
  O  O446  1  0.51663820  0.08283016  0.66534930  1
  O  O447  1  0.51684447  0.08290310  0.91207930  1
  O  O448  1  0.51615768  0.41676793  0.16186211  1
  O  O449  1  0.51855105  0.41657250  0.41462286  1
  O  O450  1  0.51659573  0.41650664  0.66461391  1
  O  O451  1  0.51549339  0.41629949  0.91527741  1
  O  O452  1  0.51635157  0.75072694  0.16151050  1
  O  O453  1  0.51697573  0.75064407  0.41533361  1
  O  O454  1  0.51468183  0.75099121  0.66319733  1
  O  O455  1  0.51559573  0.75079368  0.91511909  1
  O  O456  1  0.48144747  0.24966310  0.08486278  1
  O  O457  1  0.48405702  0.25034554  0.33504478  1
  O  O458  1  0.48472793  0.24871866  0.58696536  1
  O  O459  1  0.48449275  0.24974026  0.83434736  1
  O  O460  1  0.48361931  0.58337153  0.08456115  1
  O  O461  1  0.48348153  0.58369437  0.33399660  1
  O  O462  1  0.48489756  0.58333303  0.58732244  1
  O  O463  1  0.48404222  0.58375721  0.83432597  1
  O  O464  1  0.48333986  0.91716648  0.08642265  1
  O  O465  1  0.48259241  0.91647994  0.33461992  1
  O  O466  1  0.48278972  0.91761480  0.58789357  1
  O  O467  1  0.48384588  0.91654919  0.83732542  1
  O  O468  1  0.98478187  0.24928707  0.08433754  1
  O  O469  1  0.98453108  0.25030961  0.33610879  1
  O  O470  1  0.98386747  0.24923710  0.58695525  1
  O  O471  1  0.98350162  0.24941505  0.83735796  1
  O  O472  1  0.98573796  0.58393976  0.08591886  1
  O  O473  1  0.98384111  0.58332925  0.33642317  1
  O  O474  1  0.98433041  0.58409562  0.58440851  1
  O  O475  1  0.98454502  0.58365352  0.83724870  1
  O  O476  1  0.98420791  0.91673312  0.08668864  1
  O  O477  1  0.98552681  0.91675067  0.33638107  1
  O  O478  1  0.98611406  0.91643126  0.58620541  1
  O  O479  1  0.98579183  0.91729308  0.83642778  1
  O  O480  1  0.08817242  0.31551301  0.07690869  1
  O  O481  1  0.08812130  0.31550800  0.32866535  1
  O  O482  1  0.08764758  0.31378601  0.57719618  1
  O  O483  1  0.08735323  0.31380295  0.82719491  1
  O  O484  1  0.08984234  0.64788949  0.07697461  1
  O  O485  1  0.08776856  0.64764235  0.32659179  1
  O  O486  1  0.08794923  0.64996878  0.57743851  1
  O  O487  1  0.08788744  0.64929801  0.82905409  1
  O  O488  1  0.08807575  0.98160948  0.07686836  1
  O  O489  1  0.08931792  0.98151059  0.32685869  1
  O  O490  1  0.08970121  0.98179316  0.57781950  1
  O  O491  1  0.08972893  0.98186268  0.82803719  1
  O  O492  1  0.58514340  0.31560084  0.07682151  1
  O  O493  1  0.58800259  0.31486199  0.32822147  1
  O  O494  1  0.58838982  0.31346795  0.57782615  1
  O  O495  1  0.58883815  0.31403635  0.82699168  1
  O  O496  1  0.58726127  0.64867557  0.07734168  1
  O  O497  1  0.58708718  0.64881085  0.32813939  1
  O  O498  1  0.58819365  0.64874216  0.57791242  1
  O  O499  1  0.58800005  0.64868042  0.82678631  1
  O  O500  1  0.58758176  0.98097267  0.07664997  1
  O  O501  1  0.58673363  0.98136102  0.32684837  1
  O  O502  1  0.58626549  0.98291042  0.57866408  1
  O  O503  1  0.58752150  0.98203760  0.82766703  1
  O  O504  1  0.41136178  0.01796869  0.17200084  1
  O  O505  1  0.41330890  0.01723293  0.42180842  1
  O  O506  1  0.41250248  0.01779100  0.67342295  1
  O  O507  1  0.41344481  0.01733694  0.92152084  1
  O  O508  1  0.41292325  0.35088630  0.17193055  1
  O  O509  1  0.41447059  0.35205307  0.42312629  1
  O  O510  1  0.41312101  0.35098220  0.67266645  1
  O  O511  1  0.41127545  0.35159890  0.92284366  1
  O  O512  1  0.41291715  0.68596071  0.17208754  1
  O  O513  1  0.41267653  0.68613976  0.42329026  1
  O  O514  1  0.41116934  0.68599610  0.67228447  1
  O  O515  1  0.41139296  0.68632877  0.92314653  1
  O  O516  1  0.91260524  0.01666938  0.17181000  1
  O  O517  1  0.91213207  0.01784556  0.42357335  1
  O  O518  1  0.91402724  0.01833054  0.67298250  1
  O  O519  1  0.91350428  0.01879681  0.92334058  1
  O  O520  1  0.91431846  0.35144819  0.17246214  1
  O  O521  1  0.91327317  0.35281329  0.42303873  1
  O  O522  1  0.91219737  0.35057356  0.67146323  1
  O  O523  1  0.91184457  0.35045464  0.92252579  1
  O  O524  1  0.91168513  0.68657578  0.17181512  1
  O  O525  1  0.91343130  0.68452361  0.42187735  1
  O  O526  1  0.91417799  0.68560244  0.67385082  1
  O  O527  1  0.91295839  0.68570006  0.92321311  1
  O  O528  1  0.16469464  0.01673650  0.20247133  1
  O  O529  1  0.16214799  0.01776445  0.45347598  1
  O  O530  1  0.16177595  0.01812713  0.70266506  1
  O  O531  1  0.16180818  0.01807109  0.95214859  1
  O  O532  1  0.16011414  0.35274018  0.20223881  1
  O  O533  1  0.16099149  0.35140814  0.45198948  1
  O  O534  1  0.16163111  0.35015253  0.70317250  1
  O  O535  1  0.16320201  0.35114298  0.95344740  1
  O  O536  1  0.16208407  0.68611696  0.20297394  1
  O  O537  1  0.16314313  0.68570246  0.45323840  1
  O  O538  1  0.16017783  0.68690244  0.70245441  1
  O  O539  1  0.16271362  0.68560308  0.95217066  1
  O  O540  1  0.66102573  0.01747307  0.20308021  1
  O  O541  1  0.66231805  0.01860021  0.45229122  1
  O  O542  1  0.66074912  0.01778475  0.70309610  1
  O  O543  1  0.66318336  0.01687350  0.95234009  1
  O  O544  1  0.66104845  0.35171954  0.20158119  1
  O  O545  1  0.66438317  0.35124537  0.45169293  1
  O  O546  1  0.66333114  0.35136265  0.70290337  1
  O  O547  1  0.66396339  0.35124848  0.95264981  1
  O  O548  1  0.65990927  0.68610781  0.20218695  1
  O  O549  1  0.66200595  0.68529807  0.45144409  1
  O  O550  1  0.66390328  0.68517386  0.70278152  1
  O  O551  1  0.66361635  0.68641233  0.95294145  1
  O  O552  1  0.33604882  0.31564711  0.04811839  1
  O  O553  1  0.33824185  0.31397373  0.29727045  1
  O  O554  1  0.33488499  0.31535556  0.54762906  1
  O  O555  1  0.33545053  0.31334365  0.79757865  1
  O  O556  1  0.33537635  0.64912806  0.04723583  1
  O  O557  1  0.33540253  0.64845828  0.29768752  1
  O  O558  1  0.33515011  0.64897308  0.54746770  1
  O  O559  1  0.33641857  0.64829909  0.79756838  1
  O  O560  1  0.33797508  0.98056536  0.04702837  1
  O  O561  1  0.33813579  0.98247439  0.29743971  1
  O  O562  1  0.33833518  0.98095814  0.54817183  1
  O  O563  1  0.33718669  0.98335902  0.79740418  1
  O  O564  1  0.83871015  0.31388750  0.04653913  1
  O  O565  1  0.83710181  0.31494624  0.29731368  1
  O  O566  1  0.83948113  0.31453272  0.54744419  1
  O  O567  1  0.83789648  0.31426496  0.79762741  1
  O  O568  1  0.83792066  0.64894209  0.04744357  1
  O  O569  1  0.83843388  0.64824114  0.29811889  1
  O  O570  1  0.83888296  0.64762181  0.54661610  1
  O  O571  1  0.83618625  0.65003254  0.79742876  1
  O  O572  1  0.83692577  0.98259238  0.04795721  1
  O  O573  1  0.83596226  0.98143224  0.29762260  1
  O  O574  1  0.83683633  0.98304342  0.54762572  1
  O  O575  1  0.83616841  0.98059030  0.79807398  1
  O  O576  1  0.41113627  0.14810211  0.17201358  1
  O  O577  1  0.41350308  0.14731131  0.42267894  1
  O  O578  1  0.41248922  0.14761396  0.67386719  1
  O  O579  1  0.41303673  0.14737343  0.92182299  1
  O  O580  1  0.41239332  0.48108231  0.17253582  1
  O  O581  1  0.41479333  0.48211822  0.42304750  1
  O  O582  1  0.41270571  0.48123131  0.67260432  1
  O  O583  1  0.41161629  0.48159903  0.92320167  1
  O  O584  1  0.41297555  0.81612257  0.17116423  1
  O  O585  1  0.41306529  0.81614817  0.42250507  1
  O  O586  1  0.41116592  0.81618336  0.67159805  1
  O  O587  1  0.41176582  0.81632922  0.92240584  1
  O  O588  1  0.91164620  0.14683898  0.17178645  1
  O  O589  1  0.91199605  0.14778844  0.42337669  1
  O  O590  1  0.91369051  0.14835291  0.67221173  1
  O  O591  1  0.91404037  0.14861126  0.92290157  1
  O  O592  1  0.91419936  0.48155587  0.17236717  1
  O  O593  1  0.91399619  0.48273442  0.42256943  1
  O  O594  1  0.91200502  0.48093760  0.67202112  1
  O  O595  1  0.91143735  0.48058776  0.92338975  1
  O  O596  1  0.91241250  0.81673151  0.17179753  1
  O  O597  1  0.91345370  0.81469171  0.42265594  1
  O  O598  1  0.91421597  0.81551597  0.67408791  1
  O  O599  1  0.91272909  0.81566898  0.92290318  1
  O  O600  1  0.08920662  0.18557616  0.07674738  1
  O  O601  1  0.08799753  0.18540316  0.32760726  1
  O  O602  1  0.08754791  0.18379157  0.57762199  1
  O  O603  1  0.08706240  0.18377313  0.82764060  1
  O  O604  1  0.08899835  0.51777548  0.07764728  1
  O  O605  1  0.08726081  0.51760710  0.32775200  1
  O  O606  1  0.08847446  0.51986726  0.57677536  1
  O  O607  1  0.08794983  0.51894290  0.82858781  1
  O  O608  1  0.08798107  0.85180149  0.07665515  1
  O  O609  1  0.08926535  0.85173199  0.32682012  1
  O  O610  1  0.08995450  0.85170199  0.57809863  1
  O  O611  1  0.08929243  0.85176506  0.82795172  1
  O  O612  1  0.58562385  0.18558942  0.07682271  1
  O  O613  1  0.58717871  0.18441383  0.32777119  1
  O  O614  1  0.58812126  0.18328957  0.57894437  1
  O  O615  1  0.58831848  0.18401291  0.82745770  1
  O  O616  1  0.58741489  0.51836205  0.07735096  1
  O  O617  1  0.58735031  0.51848543  0.32801487  1
  O  O618  1  0.58869831  0.51863885  0.57799140  1
  O  O619  1  0.58806280  0.51861853  0.82704388  1
  O  O620  1  0.58687577  0.85112810  0.07682846  1
  O  O621  1  0.58640607  0.85131621  0.32724723  1
  O  O622  1  0.58632564  0.85288351  0.57768541  1
  O  O623  1  0.58770929  0.85214198  0.82715339  1
  O  O624  1  0.33703590  0.18565513  0.04772631  1
  O  O625  1  0.33804364  0.18356614  0.29663629  1
  O  O626  1  0.33509837  0.18533162  0.54784420  1
  O  O627  1  0.33484761  0.18332820  0.79751374  1
  O  O628  1  0.33566482  0.51888391  0.04768838  1
  O  O629  1  0.33466401  0.51839572  0.29817049  1
  O  O630  1  0.33530407  0.51881245  0.54749343  1
  O  O631  1  0.33657460  0.51811696  0.79744475  1
  O  O632  1  0.33724500  0.85062331  0.04651917  1
  O  O633  1  0.33860801  0.85251855  0.29782528  1
  O  O634  1  0.33786104  0.85093178  0.54763358  1
  O  O635  1  0.33782901  0.85348207  0.79771876  1
  O  O636  1  0.83840746  0.18339278  0.04606025  1
  O  O637  1  0.83728518  0.18492185  0.29752195  1
  O  O638  1  0.83884529  0.18434405  0.54801492  1
  O  O639  1  0.83784573  0.18434452  0.79796326  1
  O  O640  1  0.83797039  0.51850164  0.04756437  1
  O  O641  1  0.83850463  0.51831536  0.29790589  1
  O  O642  1  0.83840054  0.51727964  0.54620627  1
  O  O643  1  0.83673722  0.51998563  0.79771887  1
  O  O644  1  0.83737240  0.85255532  0.04845297  1
  O  O645  1  0.83561833  0.85158732  0.29761806  1
  O  O646  1  0.83767278  0.85291297  0.54747677  1
  O  O647  1  0.83595401  0.85067170  0.79741017  1
  O  O648  1  0.16430333  0.14670775  0.20224519  1
  O  O649  1  0.16182759  0.14810432  0.45325042  1
  O  O650  1  0.16160609  0.14813898  0.70264960  1
  O  O651  1  0.16156810  0.14813524  0.95252318  1
  O  O652  1  0.16097739  0.48288687  0.20284399  1
  O  O653  1  0.16068710  0.48159079  0.45234404  1
  O  O654  1  0.16131323  0.48030280  0.70269888  1
  O  O655  1  0.16277091  0.48127928  0.95352125  1
  O  O656  1  0.16312363  0.81627004  0.20257408  1
  O  O657  1  0.16355441  0.81581497  0.45322890  1
  O  O658  1  0.16129124  0.81695925  0.70292278  1
  O  O659  1  0.16293769  0.81551141  0.95178039  1
  O  O660  1  0.66123857  0.14756038  0.20235847  1
  O  O661  1  0.66247587  0.14842814  0.45258963  1
  O  O662  1  0.66098059  0.14798384  0.70307255  1
  O  O663  1  0.66283746  0.14681283  0.95146224  1
  O  O664  1  0.66116309  0.48170431  0.20197008  1
  O  O665  1  0.66448607  0.48106149  0.45124004  1
  O  O666  1  0.66285931  0.48188266  0.70346804  1
  O  O667  1  0.66385632  0.48133773  0.95291235  1
  O  O668  1  0.66041730  0.81615015  0.20256403  1
  O  O669  1  0.66144996  0.81516775  0.45161693  1
  O  O670  1  0.66369339  0.81533411  0.70257560  1
  O  O671  1  0.66364798  0.81640465  0.95357885  1
