# generated using pymatgen
data_Na2MnFe(PO4)2
_symmetry_space_group_name_H-M   'P 1'
_cell_length_a   21.08048063
_cell_length_b   18.93218155
_cell_length_c   20.03961439
_cell_angle_alpha   89.99941160
_cell_angle_beta   90.00716005
_cell_angle_gamma   90.00068092
_symmetry_Int_Tables_number   1
_chemical_formula_structural   Na2MnFe(PO4)2
_chemical_formula_sum   'Na96 Mn48 Fe48 P96 O384'
_cell_volume   7997.79974691
_cell_formula_units_Z   48
loop_
 _symmetry_equiv_pos_site_id
 _symmetry_equiv_pos_as_xyz
  1  'x, y, z'
loop_
 _atom_site_type_symbol
 _atom_site_label
 _atom_site_symmetry_multiplicity
 _atom_site_fract_x
 _atom_site_fract_y
 _atom_site_fract_z
 _atom_site_occupancy
  Na  Na0  1  0.00179600  0.00066533  -0.00026711  1
  Na  Na1  1  0.00126817  0.00057707  0.25038627  1
  Na  Na2  1  0.00147192  0.00074349  0.49956384  1
  Na  Na3  1  0.00223949  0.00069962  0.74983828  1
  Na  Na4  1  0.00044119  0.33314415  -0.00069049  1
  Na  Na5  1  -0.00203238  0.33233512  0.25051542  1
  Na  Na6  1  -0.00253692  0.33285182  0.50124653  1
  Na  Na7  1  -0.00071486  0.33347597  0.74955244  1
  Na  Na8  1  0.00294491  0.66707095  0.00093437  1
  Na  Na9  1  -0.00047312  0.66614890  0.25006690  1
  Na  Na10  1  -0.00047144  0.66714239  0.49885571  1
  Na  Na11  1  0.00232309  0.66726625  0.74988691  1
  Na  Na12  1  0.49935673  -0.00036495  0.00116210  1
  Na  Na13  1  0.49875590  -0.00039891  0.25042901  1
  Na  Na14  1  0.49970344  -0.00004960  0.49961343  1
  Na  Na15  1  0.50026656  0.00001886  0.74909476  1
  Na  Na16  1  0.49770739  0.33307188  0.00022177  1
  Na  Na17  1  0.50068131  0.33381716  0.24980661  1
  Na  Na18  1  0.50040470  0.33333151  0.49923641  1
  Na  Na19  1  0.49852720  0.33308352  0.74980983  1
  Na  Na20  1  0.49745598  0.66566048  0.00099058  1
  Na  Na21  1  0.49972073  0.66662828  0.25065583  1
  Na  Na22  1  0.50169095  0.66701429  0.49946893  1
  Na  Na23  1  0.49969991  0.66646170  0.74960545  1
  Na  Na24  1  0.24879254  0.00010365  0.12536539  1
  Na  Na25  1  0.25096647  0.00093858  0.37599924  1
  Na  Na26  1  0.24934221  0.00016261  0.62496195  1
  Na  Na27  1  0.24701588  -0.00034648  0.87494394  1
  Na  Na28  1  0.25148650  0.33407666  0.12553129  1
  Na  Na29  1  0.25263227  0.33377278  0.37437203  1
  Na  Na30  1  0.25241031  0.33379376  0.62546190  1
  Na  Na31  1  0.24933133  0.33308438  0.87429503  1
  Na  Na32  1  0.25030586  0.66626177  0.12469250  1
  Na  Na33  1  0.25067262  0.66697197  0.37526399  1
  Na  Na34  1  0.24873783  0.66604957  0.62542547  1
  Na  Na35  1  0.25033191  0.66679698  0.87433832  1
  Na  Na36  1  0.75104895  0.00060598  0.12465965  1
  Na  Na37  1  0.74857068  -0.00096633  0.37409202  1
  Na  Na38  1  0.74954295  -0.00015862  0.62471737  1
  Na  Na39  1  0.75054106  -0.00015272  0.87563903  1
  Na  Na40  1  0.74962071  0.33285503  0.12483435  1
  Na  Na41  1  0.74939093  0.33290663  0.37338193  1
  Na  Na42  1  0.75094846  0.33347206  0.62500035  1
  Na  Na43  1  0.75194227  0.33363191  0.87663555  1
  Na  Na44  1  0.74964687  0.66714545  0.12439333  1
  Na  Na45  1  0.74855852  0.66636649  0.37439673  1
  Na  Na46  1  0.74791336  0.66571092  0.62537536  1
  Na  Na47  1  0.74939114  0.66652312  0.87622571  1
  Na  Na48  1  0.00213506  0.16631064  -0.00129825  1
  Na  Na49  1  -0.00076110  0.16702863  0.25043187  1
  Na  Na50  1  0.00072775  0.16629543  0.50011220  1
  Na  Na51  1  0.00137602  0.16673910  0.75032172  1
  Na  Na52  1  0.00252961  0.49961339  -0.00019437  1
  Na  Na53  1  0.00169960  0.49916678  0.24967935  1
  Na  Na54  1  -0.00238444  0.50049140  0.50004195  1
  Na  Na55  1  0.00008632  0.49996331  0.75000847  1
  Na  Na56  1  -0.00033532  0.83409507  0.00133561  1
  Na  Na57  1  -0.00124369  0.83349742  0.25100344  1
  Na  Na58  1  -0.00034570  0.83295839  0.49953479  1
  Na  Na59  1  0.00255370  0.83208451  0.74897623  1
  Na  Na60  1  0.49835703  0.16714090  0.00091545  1
  Na  Na61  1  0.49847484  0.16730951  0.25097976  1
  Na  Na62  1  0.49944021  0.16686259  0.49865094  1
  Na  Na63  1  0.49930031  0.16668915  0.74934778  1
  Na  Na64  1  0.49741326  0.50013689  0.00058739  1
  Na  Na65  1  0.50056601  0.49949362  0.25007226  1
  Na  Na66  1  0.50179876  0.49915770  0.50012796  1
  Na  Na67  1  0.49812213  0.50000595  0.74922319  1
  Na  Na68  1  0.49913807  0.83354234  0.00090403  1
  Na  Na69  1  0.50002582  0.83337374  0.24968107  1
  Na  Na70  1  0.49941453  0.83488582  0.49939330  1
  Na  Na71  1  0.50119951  0.83346380  0.75002671  1
  Na  Na72  1  0.24916942  0.16618354  0.12573863  1
  Na  Na73  1  0.25105394  0.16626267  0.37491059  1
  Na  Na74  1  0.24964468  0.16620105  0.62528281  1
  Na  Na75  1  0.24669229  0.16768351  0.87490077  1
  Na  Na76  1  0.25109834  0.50006373  0.12443699  1
  Na  Na77  1  0.25100793  0.50028331  0.37446179  1
  Na  Na78  1  0.25263758  0.49847919  0.62568125  1
  Na  Na79  1  0.25059723  0.49988602  0.87498284  1
  Na  Na80  1  0.25122002  0.83264301  0.12518390  1
  Na  Na81  1  0.25097679  0.83366225  0.37668093  1
  Na  Na82  1  0.25028857  0.83340724  0.62447116  1
  Na  Na83  1  0.24869107  0.83359814  0.87397083  1
  Na  Na84  1  0.75200495  0.16682449  0.12434864  1
  Na  Na85  1  0.74948853  0.16744918  0.37417820  1
  Na  Na86  1  0.75011915  0.16739555  0.62443352  1
  Na  Na87  1  0.75342713  0.16613358  0.87569962  1
  Na  Na88  1  0.74727701  0.50004573  0.12524038  1
  Na  Na89  1  0.74718620  0.50048609  0.37400812  1
  Na  Na90  1  0.74954337  0.49942947  0.62491831  1
  Na  Na91  1  0.74939851  0.49947410  0.87650187  1
  Na  Na92  1  0.74974507  0.83365829  0.12449426  1
  Na  Na93  1  0.75066760  0.83291950  0.37360915  1
  Na  Na94  1  0.74916540  0.83371649  0.62566245  1
  Na  Na95  1  0.74950183  0.83381084  0.87618928  1
  Mn  Mn96  1  0.89120782  0.58246623  0.37643496  1
  Mn  Mn97  1  0.39066382  0.24970008  0.87765506  1
  Mn  Mn98  1  0.35637150  0.08346184  0.00219787  1
  Mn  Mn99  1  0.85856862  0.41728651  0.00246855  1
  Mn  Mn100  1  0.85789618  0.74970571  0.75299019  1
  Mn  Mn101  1  0.85867914  0.74960063  0.00225718  1
  Mn  Mn102  1  0.35683285  0.08344581  0.75239720  1
  Mn  Mn103  1  0.35820298  0.74999876  0.50302615  1
  Mn  Mn104  1  0.89091934  0.58385403  0.62745269  1
  Mn  Mn105  1  0.10753711  0.75002518  0.37229452  1
  Mn  Mn106  1  0.89333941  0.91640286  0.87626269  1
  Mn  Mn107  1  0.60824069  0.08362906  0.87263542  1
  Mn  Mn108  1  0.89295504  0.58349005  0.87729854  1
  Mn  Mn109  1  0.14165052  0.91591498  0.99789558  1
  Mn  Mn110  1  0.85674864  0.41708971  0.25182433  1
  Mn  Mn111  1  0.14297510  0.25072136  0.49782115  1
  Mn  Mn112  1  0.60843620  0.75051914  0.62280259  1
  Mn  Mn113  1  0.39290551  0.58350071  0.37730582  1
  Mn  Mn114  1  0.64238041  0.91726267  0.99814464  1
  Mn  Mn115  1  0.10788923  0.41608767  0.37348226  1
  Mn  Mn116  1  0.10886820  0.41551115  0.12300007  1
  Mn  Mn117  1  0.14233371  0.25047609  0.24788362  1
  Mn  Mn118  1  0.60805396  0.08387415  0.62298936  1
  Mn  Mn119  1  0.14255021  0.58309227  0.74726360  1
  Mn  Mn120  1  0.85750952  0.08295279  0.50213911  1
  Mn  Mn121  1  0.60654296  0.41647539  0.87286401  1
  Mn  Mn122  1  0.39151128  0.91639587  0.87677981  1
  Mn  Mn123  1  0.89192223  0.91730929  0.37708817  1
  Mn  Mn124  1  0.64212344  0.24951999  0.99808476  1
  Mn  Mn125  1  0.89179295  0.24955877  0.62735071  1
  Mn  Mn126  1  0.60733731  0.08378399  0.12322967  1
  Mn  Mn127  1  0.39296699  0.58360368  0.62690551  1
  Mn  Mn128  1  0.14301227  0.91689635  0.49780425  1
  Mn  Mn129  1  0.60797142  0.41569268  0.62329772  1
  Mn  Mn130  1  0.64079098  0.58329251  0.99785870  1
  Mn  Mn131  1  0.14225461  0.58224185  0.49774324  1
  Mn  Mn132  1  0.89289423  0.58308513  0.12751352  1
  Mn  Mn133  1  0.60814556  0.75013760  0.37228429  1
  Mn  Mn134  1  0.60759362  0.08361506  0.37216424  1
  Mn  Mn135  1  0.89217076  0.91682293  0.62703634  1
  Mn  Mn136  1  0.35731466  0.75002525  0.75210786  1
  Mn  Mn137  1  0.85974108  0.08307166  0.00247338  1
  Mn  Mn138  1  0.39280277  0.24972212  0.37732552  1
  Mn  Mn139  1  0.39151238  0.91680081  0.12809402  1
  Mn  Mn140  1  0.10842947  0.75052778  0.12367813  1
  Mn  Mn141  1  0.64293334  0.24989867  0.74850617  1
  Mn  Mn142  1  0.10767173  0.41701746  0.62205655  1
  Mn  Mn143  1  0.60701308  0.74981968  0.87308569  1
  Fe  Fe144  1  0.10713907  0.75007985  0.62250492  1
  Fe  Fe145  1  0.89302664  0.91716711  0.12746232  1
  Fe  Fe146  1  0.14237680  0.25101221  0.99859117  1
  Fe  Fe147  1  0.60781353  0.41624828  0.37304763  1
  Fe  Fe148  1  0.35713928  0.41626157  0.75203030  1
  Fe  Fe149  1  0.85743658  0.41684556  0.75219709  1
  Fe  Fe150  1  0.14399835  0.58286729  0.99836529  1
  Fe  Fe151  1  0.35753186  0.75051106  0.25188544  1
  Fe  Fe152  1  0.64228239  0.91670211  0.49800139  1
  Fe  Fe153  1  0.89446078  0.25031555  0.87612896  1
  Fe  Fe154  1  0.64275220  0.91692439  0.74871212  1
  Fe  Fe155  1  0.85775323  0.08313586  0.25139170  1
  Fe  Fe156  1  0.35638067  0.41660574  0.00179342  1
  Fe  Fe157  1  0.85820484  0.08345038  0.75138897  1
  Fe  Fe158  1  0.64313923  0.24946337  0.24707114  1
  Fe  Fe159  1  0.85595686  0.41722774  0.50083882  1
  Fe  Fe160  1  0.64242891  0.25008323  0.49806380  1
  Fe  Fe161  1  0.10709077  0.08348475  0.12439525  1
  Fe  Fe162  1  0.35733517  0.08393542  0.50237995  1
  Fe  Fe163  1  0.89197777  0.24994103  0.37648227  1
  Fe  Fe164  1  0.39324537  0.91716545  0.62719875  1
  Fe  Fe165  1  0.64200806  0.58307520  0.74927794  1
  Fe  Fe166  1  0.10864017  0.74983792  0.87330910  1
  Fe  Fe167  1  0.39188817  0.58360116  0.87668855  1
  Fe  Fe168  1  0.35888303  0.41627671  0.50154941  1
  Fe  Fe169  1  0.14245982  0.25025584  0.74748465  1
  Fe  Fe170  1  0.39278366  0.24923625  0.62645140  1
  Fe  Fe171  1  0.60545088  0.41659416  0.12322796  1
  Fe  Fe172  1  0.64276641  0.91687122  0.24775565  1
  Fe  Fe173  1  0.10724803  0.08323460  0.62305177  1
  Fe  Fe174  1  0.85646253  0.74944925  0.50156222  1
  Fe  Fe175  1  0.10807785  0.41665347  0.87267898  1
  Fe  Fe176  1  0.35708372  0.74980843  0.00156977  1
  Fe  Fe177  1  0.35791379  0.41696128  0.25190985  1
  Fe  Fe178  1  0.10771694  0.08377471  0.37315878  1
  Fe  Fe179  1  0.39261853  0.91675800  0.37636848  1
  Fe  Fe180  1  0.14316613  0.91601639  0.24929484  1
  Fe  Fe181  1  0.14212108  0.91683297  0.74720784  1
  Fe  Fe182  1  0.39210113  0.58319791  0.12731216  1
  Fe  Fe183  1  0.60638938  0.74951230  0.12355464  1
  Fe  Fe184  1  0.64278704  0.58308378  0.49821915  1
  Fe  Fe185  1  0.85631182  0.75005942  0.25078222  1
  Fe  Fe186  1  0.10739130  0.08340946  0.87253206  1
  Fe  Fe187  1  0.35649138  0.08273151  0.25186931  1
  Fe  Fe188  1  0.64195265  0.58373639  0.24719751  1
  Fe  Fe189  1  0.14360286  0.58385431  0.24866419  1
  Fe  Fe190  1  0.89337253  0.24964241  0.12624282  1
  Fe  Fe191  1  0.39158062  0.25007615  0.12695045  1
  P  P192  1  0.05304839  0.24902306  0.10965765  1
  P  P193  1  0.05222118  0.24977260  0.36044157  1
  P  P194  1  0.05438195  0.24951444  0.61089698  1
  P  P195  1  0.05513817  0.25087334  0.86035549  1
  P  P196  1  0.05630746  0.58322013  0.11068315  1
  P  P197  1  0.05371320  0.58278531  0.35907899  1
  P  P198  1  0.05283809  0.58395707  0.60940898  1
  P  P199  1  0.05565796  0.58311805  0.86130011  1
  P  P200  1  0.05367770  0.91736164  0.11216761  1
  P  P201  1  0.05424760  0.91739932  0.35964896  1
  P  P202  1  0.05450645  0.91679246  0.61046641  1
  P  P203  1  0.05462994  0.91612077  0.85927954  1
  P  P204  1  0.55246888  0.25059515  0.11136903  1
  P  P205  1  0.55565248  0.25076655  0.36006655  1
  P  P206  1  0.55275651  0.24982532  0.60916527  1
  P  P207  1  0.55220223  0.25003116  0.85982496  1
  P  P208  1  0.55262527  0.58325784  0.11162488  1
  P  P209  1  0.55574121  0.58250065  0.36044998  1
  P  P210  1  0.55557713  0.58298641  0.61040486  1
  P  P211  1  0.55134891  0.58293535  0.85958349  1
  P  P212  1  0.55430528  0.91612581  0.11162108  1
  P  P213  1  0.55406505  0.91682667  0.36000610  1
  P  P214  1  0.55432417  0.91722463  0.61019861  1
  P  P215  1  0.55352908  0.91692028  0.85946325  1
  P  P216  1  0.44517842  0.08414469  0.14109742  1
  P  P217  1  0.44455619  0.08225101  0.38927086  1
  P  P218  1  0.44537968  0.08346598  0.63858601  1
  P  P219  1  0.44645992  0.08296250  0.89050950  1
  P  P220  1  0.44461637  0.41661461  0.13937316  1
  P  P221  1  0.44682241  0.41672949  0.38927714  1
  P  P222  1  0.44495991  0.41534443  0.63933392  1
  P  P223  1  0.44380863  0.41736189  0.88970471  1
  P  P224  1  0.44536795  0.74921463  0.13975006  1
  P  P225  1  0.44563787  0.75093950  0.38889810  1
  P  P226  1  0.44710380  0.75118537  0.64002585  1
  P  P227  1  0.44556760  0.74939239  0.89080194  1
  P  P228  1  0.94766385  0.08353061  0.14056345  1
  P  P229  1  0.94656228  0.08407472  0.38887763  1
  P  P230  1  0.94743617  0.08316341  0.64052047  1
  P  P231  1  0.94740234  0.08386565  0.88815521  1
  P  P232  1  0.94745418  0.41582518  0.14009082  1
  P  P233  1  0.94547442  0.41578752  0.39056657  1
  P  P234  1  0.94425950  0.41704628  0.63953930  1
  P  P235  1  0.94737525  0.41638105  0.88876522  1
  P  P236  1  0.94645098  0.75051530  0.14106132  1
  P  P237  1  0.94394164  0.74975289  0.38917163  1
  P  P238  1  0.94626283  0.75002807  0.63885623  1
  P  P239  1  0.94919766  0.74989978  0.89019189  1
  P  P240  1  0.19567582  0.08250318  0.23631423  1
  P  P241  1  0.19628887  0.08384971  0.48558118  1
  P  P242  1  0.19395920  0.08351017  0.73541338  1
  P  P243  1  0.19373173  0.08437880  0.98604883  1
  P  P244  1  0.19844431  0.41752036  0.23540050  1
  P  P245  1  0.19918854  0.41624862  0.48482191  1
  P  P246  1  0.19660075  0.41593932  0.73577833  1
  P  P247  1  0.19731289  0.41652232  0.98474676  1
  P  P248  1  0.19838227  0.75046623  0.23572147  1
  P  P249  1  0.19568636  0.74974897  0.48592832  1
  P  P250  1  0.19464690  0.75075677  0.73488931  1
  P  P251  1  0.19760115  0.74909583  0.98475894  1
  P  P252  1  0.69788100  0.08363711  0.23475110  1
  P  P253  1  0.69637785  0.08343084  0.48461058  1
  P  P254  1  0.69861747  0.08326292  0.73516819  1
  P  P255  1  0.69753582  0.08369097  0.98502125  1
  P  P256  1  0.69388371  0.41614158  0.23514977  1
  P  P257  1  0.69656996  0.41616482  0.48436801  1
  P  P258  1  0.69774151  0.41679129  0.73583521  1
  P  P259  1  0.69480964  0.41624653  0.98643240  1
  P  P260  1  0.69638177  0.75030105  0.23405390  1
  P  P261  1  0.69729805  0.75032457  0.48483852  1
  P  P262  1  0.69645807  0.74989613  0.73586556  1
  P  P263  1  0.69525447  0.75003263  0.98631476  1
  P  P264  1  0.30180492  0.25060058  0.01566702  1
  P  P265  1  0.30488391  0.24983970  0.26380882  1
  P  P266  1  0.30461093  0.24985680  0.51548016  1
  P  P267  1  0.30286014  0.24998116  0.76370569  1
  P  P268  1  0.30436851  0.58333973  0.01401909  1
  P  P269  1  0.30429760  0.58365078  0.26379510  1
  P  P270  1  0.30384854  0.58255805  0.51527613  1
  P  P271  1  0.30428969  0.58272163  0.76528185  1
  P  P272  1  0.30273213  0.91606632  0.01498098  1
  P  P273  1  0.30271141  0.91683020  0.26591508  1
  P  P274  1  0.30577242  0.91795444  0.51476183  1
  P  P275  1  0.30241800  0.91705814  0.76364617  1
  P  P276  1  0.80622688  0.25021270  0.01460861  1
  P  P277  1  0.80447387  0.24925722  0.26360064  1
  P  P278  1  0.80313253  0.25082036  0.51320589  1
  P  P279  1  0.80473456  0.25012945  0.76590289  1
  P  P280  1  0.80318230  0.58307363  0.01561620  1
  P  P281  1  0.80127882  0.58398939  0.26408619  1
  P  P282  1  0.80165518  0.58313552  0.51426424  1
  P  P283  1  0.80171892  0.58246580  0.76576021  1
  P  P284  1  0.80514563  0.91661897  0.01583610  1
  P  P285  1  0.80364893  0.91693165  0.26314130  1
  P  P286  1  0.80186776  0.91580162  0.51458437  1
  P  P287  1  0.80236930  0.91736478  0.76504911  1
  O  O288  1  0.05654567  0.25023432  0.18642554  1
  O  O289  1  0.05625550  0.25049527  0.43711442  1
  O  O290  1  0.05842470  0.25069829  0.68765371  1
  O  O291  1  0.05916385  0.25124474  0.93710398  1
  O  O292  1  0.06080618  0.58323263  0.18747943  1
  O  O293  1  0.05673966  0.58300720  0.43588073  1
  O  O294  1  0.05652117  0.58290433  0.68620638  1
  O  O295  1  0.05994907  0.58295449  0.93808414  1
  O  O296  1  0.05871223  0.91615107  0.18876818  1
  O  O297  1  0.05743779  0.91663847  0.43643286  1
  O  O298  1  0.05803336  0.91660548  0.68724832  1
  O  O299  1  0.05659143  0.91608630  0.93621054  1
  O  O300  1  0.55773306  0.24948207  0.18801725  1
  O  O301  1  0.55967318  0.24994647  0.43685989  1
  O  O302  1  0.55692742  0.24989199  0.68586474  1
  O  O303  1  0.55578116  0.25008718  0.93661081  1
  O  O304  1  0.55749219  0.58366799  0.18833819  1
  O  O305  1  0.55997106  0.58336360  0.43730713  1
  O  O306  1  0.55947001  0.58283742  0.68721053  1
  O  O307  1  0.55486206  0.58264808  0.93637737  1
  O  O308  1  0.55886195  0.91698508  0.18840558  1
  O  O309  1  0.55899755  0.91681910  0.43675399  1
  O  O310  1  0.55974110  0.91721796  0.68687901  1
  O  O311  1  0.55664919  0.91705331  0.93629310  1
  O  O312  1  0.44197344  0.08341844  0.06430139  1
  O  O313  1  0.44017070  0.08282329  0.31253069  1
  O  O314  1  0.44194130  0.08359307  0.56181724  1
  O  O315  1  0.44311519  0.08306265  0.81368249  1
  O  O316  1  0.43996732  0.41642923  0.06264969  1
  O  O317  1  0.44176907  0.41690004  0.31257928  1
  O  O318  1  0.44175904  0.41627452  0.56246032  1
  O  O319  1  0.44007829  0.41623977  0.81284729  1
  O  O320  1  0.44060795  0.74994112  0.06306962  1
  O  O321  1  0.44129458  0.75036552  0.31210933  1
  O  O322  1  0.44441069  0.75050141  0.56320082  1
  O  O323  1  0.44287618  0.75024828  0.81398210  1
  O  O324  1  0.94522601  0.08320392  0.06376090  1
  O  O325  1  0.94141544  0.08322680  0.31223579  1
  O  O326  1  0.94326576  0.08313036  0.56375694  1
  O  O327  1  0.94235126  0.08319135  0.81152690  1
  O  O328  1  0.94480512  0.41701885  0.06330314  1
  O  O329  1  0.94241597  0.41676292  0.31375549  1
  O  O330  1  0.93917691  0.41721745  0.56281632  1
  O  O331  1  0.94217174  0.41733776  0.81210123  1
  O  O332  1  0.94402942  0.74971950  0.06422691  1
  O  O333  1  0.93908835  0.74956428  0.31242668  1
  O  O334  1  0.94045173  0.74981385  0.56218798  1
  O  O335  1  0.94491813  0.74952763  0.81343688  1
  O  O336  1  0.19024121  0.08347326  0.06288813  1
  O  O337  1  0.19133418  0.08373118  0.31307382  1
  O  O338  1  0.19125117  0.08357249  0.56225453  1
  O  O339  1  0.19015496  0.08350836  0.81233478  1
  O  O340  1  0.19433217  0.41637625  0.06148908  1
  O  O341  1  0.19451547  0.41658283  0.31204111  1
  O  O342  1  0.19474757  0.41616079  0.56149683  1
  O  O343  1  0.19186179  0.41653041  0.81246932  1
  O  O344  1  0.19414937  0.74998950  0.06148539  1
  O  O345  1  0.19475361  0.75052300  0.31240478  1
  O  O346  1  0.19112677  0.74981138  0.56268993  1
  O  O347  1  0.19118523  0.75006525  0.81174263  1
  O  O348  1  0.69345572  0.08410046  0.06176137  1
  O  O349  1  0.69392690  0.08359806  0.31140355  1
  O  O350  1  0.69371792  0.08372391  0.56142942  1
  O  O351  1  0.69516845  0.08383252  0.81185288  1
  O  O352  1  0.68956267  0.41609680  0.06315186  1
  O  O353  1  0.69080693  0.41616427  0.31197411  1
  O  O354  1  0.69367490  0.41561910  0.56117177  1
  O  O355  1  0.69380642  0.41608432  0.81251336  1
  O  O356  1  0.69033390  0.74969970  0.06303494  1
  O  O357  1  0.69333968  0.75026187  0.31076824  1
  O  O358  1  0.69408149  0.75056965  0.56158951  1
  O  O359  1  0.69368443  0.75009236  0.81264604  1
  O  O360  1  0.30816177  0.24985987  0.18703657  1
  O  O361  1  0.30730514  0.24987748  0.43856639  1
  O  O362  1  0.30806558  0.24917794  0.68715288  1
  O  O363  1  0.30484044  0.24969771  0.93887685  1
  O  O364  1  0.30836294  0.58346986  0.18702468  1
  O  O365  1  0.30693969  0.58353003  0.43845790  1
  O  O366  1  0.30755658  0.58355456  0.68851625  1
  O  O367  1  0.30816882  0.58359483  0.93731319  1
  O  O368  1  0.30568636  0.91684988  0.18912070  1
  O  O369  1  0.30953553  0.91707874  0.43798958  1
  O  O370  1  0.30796074  0.91712111  0.68704132  1
  O  O371  1  0.30537555  0.91682072  0.93820380  1
  O  O372  1  0.80950925  0.24978449  0.18692576  1
  O  O373  1  0.80768475  0.24996076  0.43653441  1
  O  O374  1  0.80666181  0.24985126  0.68893941  1
  O  O375  1  0.81128154  0.25021210  0.93790763  1
  O  O376  1  0.80564935  0.58312411  0.18747499  1
  O  O377  1  0.80492027  0.58316586  0.43760234  1
  O  O378  1  0.80510430  0.58314986  0.68899500  1
  O  O379  1  0.80715150  0.58289756  0.93885028  1
  O  O380  1  0.80854260  0.91737816  0.18648983  1
  O  O381  1  0.80566727  0.91660389  0.43786742  1
  O  O382  1  0.80601123  0.91685524  0.68830694  1
  O  O383  1  0.80860777  0.91662364  0.93904257  1
  O  O384  1  0.23181714  0.25054604  0.04056945  1
  O  O385  1  0.23505383  0.24992098  0.28884220  1
  O  O386  1  0.23500021  0.24991909  0.54082096  1
  O  O387  1  0.23248391  0.25002434  0.78729825  1
  O  O388  1  0.23404888  0.58289161  0.03818112  1
  O  O389  1  0.23415039  0.58386328  0.28825289  1
  O  O390  1  0.23432643  0.58224299  0.54079954  1
  O  O391  1  0.23444027  0.58322984  0.78985486  1
  O  O392  1  0.23309556  0.91613877  0.04046521  1
  O  O393  1  0.23283193  0.91698542  0.29112798  1
  O  O394  1  0.23564672  0.91703025  0.53873944  1
  O  O395  1  0.23200442  0.91713642  0.78693492  1
  O  O396  1  0.73593668  0.25003718  0.03798796  1
  O  O397  1  0.73390099  0.24998243  0.28669350  1
  O  O398  1  0.73287819  0.25048044  0.53738381  1
  O  O399  1  0.73525527  0.25014330  0.79184461  1
  O  O400  1  0.73324629  0.58320490  0.03988341  1
  O  O401  1  0.73101882  0.58358936  0.28806861  1
  O  O402  1  0.73165809  0.58282321  0.53928615  1
  O  O403  1  0.73177582  0.58292654  0.79081930  1
  O  O404  1  0.73521606  0.91698447  0.04023764  1
  O  O405  1  0.73323286  0.91639754  0.28689233  1
  O  O406  1  0.73183102  0.91656566  0.53919311  1
  O  O407  1  0.73240703  0.91690241  0.78996062  1
  O  O408  1  0.26604230  0.08298268  0.21252928  1
  O  O409  1  0.26680060  0.08389215  0.46246120  1
  O  O410  1  0.26399413  0.08325354  0.71129016  1
  O  O411  1  0.26360675  0.08361685  0.96118161  1
  O  O412  1  0.26850225  0.41701904  0.21082841  1
  O  O413  1  0.26931164  0.41637917  0.46058360  1
  O  O414  1  0.26705147  0.41626184  0.71237545  1
  O  O415  1  0.26737739  0.41661943  0.95996132  1
  O  O416  1  0.26836634  0.75014642  0.21079163  1
  O  O417  1  0.26584447  0.75021514  0.46231544  1
  O  O418  1  0.26468000  0.74973468  0.71057941  1
  O  O419  1  0.26760121  0.74974541  0.95998782  1
  O  O420  1  0.76799375  0.08373582  0.21025085  1
  O  O421  1  0.76595067  0.08316823  0.45897884  1
  O  O422  1  0.76854222  0.08377624  0.70997119  1
  O  O423  1  0.76751158  0.08314464  0.96091546  1
  O  O424  1  0.76390259  0.41621188  0.21055322  1
  O  O425  1  0.76646064  0.41665015  0.45906719  1
  O  O426  1  0.76771425  0.41635098  0.71103368  1
  O  O427  1  0.76508852  0.41657748  0.96318985  1
  O  O428  1  0.76652118  0.75047664  0.20940723  1
  O  O429  1  0.76712961  0.74979102  0.45953101  1
  O  O430  1  0.76599862  0.74968028  0.71007430  1
  O  O431  1  0.76540779  0.75005107  0.96254784  1
  O  O432  1  0.01758844  0.08372548  0.16582378  1
  O  O433  1  0.01698876  0.08372807  0.41247914  1
  O  O434  1  0.01759793  0.08352398  0.66445868  1
  O  O435  1  0.01789872  0.08361879  0.91164045  1
  O  O436  1  0.01708104  0.41555545  0.16552381  1
  O  O437  1  0.01515869  0.41651338  0.41592718  1
  O  O438  1  0.01456683  0.41687180  0.66286320  1
  O  O439  1  0.01779856  0.41635895  0.91232634  1
  O  O440  1  0.01615887  0.74997804  0.16635951  1
  O  O441  1  0.01430472  0.75014397  0.41236889  1
  O  O442  1  0.01678250  0.74990489  0.66183865  1
  O  O443  1  0.01924939  0.75031760  0.91467348  1
  O  O444  1  0.51497631  0.08359160  0.16608755  1
  O  O445  1  0.51477452  0.08339801  0.41289921  1
  O  O446  1  0.51522422  0.08338251  0.66354118  1
  O  O447  1  0.51599844  0.08321971  0.91597623  1
  O  O448  1  0.51503964  0.41693286  0.16307226  1
  O  O449  1  0.51725187  0.41634842  0.41260166  1
  O  O450  1  0.51492368  0.41610354  0.66398108  1
  O  O451  1  0.51371170  0.41648597  0.91428836  1
  O  O452  1  0.51576499  0.74970712  0.16352005  1
  O  O453  1  0.51567587  0.75071624  0.41302836  1
  O  O454  1  0.51666981  0.75054324  0.66541036  1
  O  O455  1  0.51513198  0.74971357  0.91636378  1
  O  O456  1  0.48198443  0.25029975  0.08789851  1
  O  O457  1  0.48536597  0.25026317  0.33645745  1
  O  O458  1  0.48267177  0.24993013  0.58483948  1
  O  O459  1  0.48242033  0.24999657  0.83506240  1
  O  O460  1  0.48219673  0.58280111  0.08803769  1
  O  O461  1  0.48558225  0.58309104  0.33661610  1
  O  O462  1  0.48558100  0.58314789  0.58607195  1
  O  O463  1  0.48134313  0.58328468  0.83497131  1
  O  O464  1  0.48411960  0.91659300  0.08783675  1
  O  O465  1  0.48357805  0.91676926  0.33669934  1
  O  O466  1  0.48386027  0.91743217  0.58703483  1
  O  O467  1  0.48377972  0.91667423  0.83444481  1
  O  O468  1  0.98311751  0.24945873  0.08480284  1
  O  O469  1  0.98215132  0.24980240  0.33597199  1
  O  O470  1  0.98430263  0.24934485  0.58671802  1
  O  O471  1  0.98481866  0.25044398  0.83621047  1
  O  O472  1  0.98615257  0.58343585  0.08685754  1
  O  O473  1  0.98387119  0.58247781  0.33426531  1
  O  O474  1  0.98303924  0.58402939  0.58465963  1
  O  O475  1  0.98574568  0.58316892  0.83660085  1
  O  O476  1  0.98341239  0.91738386  0.08815307  1
  O  O477  1  0.98435470  0.91699887  0.33512942  1
  O  O478  1  0.98472278  0.91699013  0.58533049  1
  O  O479  1  0.98515061  0.91630847  0.83326526  1
  O  O480  1  0.08744789  0.31372686  0.07649457  1
  O  O481  1  0.08594499  0.31480989  0.32729106  1
  O  O482  1  0.08766813  0.31452993  0.57733471  1
  O  O483  1  0.08844650  0.31589360  0.82680721  1
  O  O484  1  0.09013716  0.64820914  0.07769990  1
  O  O485  1  0.08779783  0.64789539  0.32646659  1
  O  O486  1  0.08703319  0.64901330  0.57726664  1
  O  O487  1  0.08920717  0.64836555  0.82854937  1
  O  O488  1  0.08701510  0.98254629  0.07923912  1
  O  O489  1  0.08827766  0.98256592  0.32748507  1
  O  O490  1  0.08835308  0.98214485  0.57805534  1
  O  O491  1  0.08916748  0.98123814  0.82733695  1
  O  O492  1  0.58537752  0.31590305  0.07818392  1
  O  O493  1  0.58882619  0.31595058  0.32712961  1
  O  O494  1  0.58680498  0.31481975  0.57632624  1
  O  O495  1  0.58607326  0.31512056  0.82712116  1
  O  O496  1  0.58549577  0.64846615  0.07811215  1
  O  O497  1  0.58939458  0.64741975  0.32695510  1
  O  O498  1  0.58939614  0.64795148  0.57733987  1
  O  O499  1  0.58564441  0.64789443  0.82718841  1
  O  O500  1  0.58778632  0.98113389  0.07829561  1
  O  O501  1  0.58746572  0.98179232  0.32654719  1
  O  O502  1  0.58770859  0.98213005  0.57659409  1
  O  O503  1  0.58770720  0.98183797  0.82665982  1
  O  O504  1  0.41072623  0.01919958  0.17376200  1
  O  O505  1  0.41164381  0.01698803  0.42241942  1
  O  O506  1  0.41151788  0.01838432  0.67148783  1
  O  O507  1  0.41226316  0.01785755  0.92279672  1
  O  O508  1  0.41149927  0.35155676  0.17293330  1
  O  O509  1  0.41325040  0.35174975  0.42255936  1
  O  O510  1  0.41145544  0.34993114  0.67184452  1
  O  O511  1  0.40932788  0.35284532  0.92309181  1
  O  O512  1  0.41219158  0.68401959  0.17291437  1
  O  O513  1  0.41227603  0.68582862  0.42218503  1
  O  O514  1  0.41266354  0.68620523  0.67228922  1
  O  O515  1  0.41142754  0.68409936  0.92283938  1
  O  O516  1  0.91345864  0.01867046  0.17341550  1
  O  O517  1  0.91335893  0.01903172  0.42256153  1
  O  O518  1  0.91382037  0.01810430  0.67350162  1
  O  O519  1  0.91445275  0.01883927  0.92192561  1
  O  O520  1  0.91303475  0.35062842  0.17172594  1
  O  O521  1  0.91152956  0.35041896  0.42259631  1
  O  O522  1  0.91088004  0.35190084  0.67277601  1
  O  O523  1  0.91412837  0.35112492  0.92166104  1
  O  O524  1  0.91175303  0.68570260  0.17355154  1
  O  O525  1  0.91077258  0.68457988  0.42257004  1
  O  O526  1  0.91319151  0.68512856  0.67279721  1
  O  O527  1  0.91557702  0.68485671  0.92324731  1
  O  O528  1  0.16251190  0.01714480  0.20351053  1
  O  O529  1  0.16295322  0.01892162  0.45199277  1
  O  O530  1  0.16019542  0.01852812  0.70233542  1
  O  O531  1  0.15940667  0.01967273  0.95289198  1
  O  O532  1  0.16454352  0.35244973  0.20240838  1
  O  O533  1  0.16562408  0.35115156  0.45175643  1
  O  O534  1  0.16346232  0.35089925  0.70241958  1
  O  O535  1  0.16331075  0.35145030  0.95215393  1
  O  O536  1  0.16437977  0.68553789  0.20300701  1
  O  O537  1  0.16253612  0.68462523  0.45262954  1
  O  O538  1  0.16032359  0.68601145  0.70187728  1
  O  O539  1  0.16400122  0.68381551  0.95227648  1
  O  O540  1  0.66405952  0.01852991  0.20211194  1
  O  O541  1  0.66201467  0.01828196  0.45254500  1
  O  O542  1  0.66457916  0.01813295  0.70278724  1
  O  O543  1  0.66350579  0.01863422  0.95258134  1
  O  O544  1  0.66013708  0.35095443  0.20232866  1
  O  O545  1  0.66260752  0.35121594  0.45148376  1
  O  O546  1  0.66385869  0.35180903  0.70266577  1
  O  O547  1  0.66182742  0.35117358  0.95284099  1
  O  O548  1  0.66229538  0.68520980  0.20140049  1
  O  O549  1  0.66295000  0.68528152  0.45263914  1
  O  O550  1  0.66206894  0.68471794  0.70388410  1
  O  O551  1  0.66174638  0.68502072  0.95304086  1
  O  O552  1  0.33608868  0.31576017  0.04770841  1
  O  O553  1  0.33889000  0.31493970  0.29643884  1
  O  O554  1  0.33912205  0.31480483  0.54760687  1
  O  O555  1  0.33617531  0.31508162  0.79689263  1
  O  O556  1  0.33768474  0.64838482  0.04750586  1
  O  O557  1  0.33796428  0.64866029  0.29680291  1
  O  O558  1  0.33778777  0.64771665  0.54796739  1
  O  O559  1  0.33853697  0.64757893  0.79815162  1
  O  O560  1  0.33674337  0.98106873  0.04772371  1
  O  O561  1  0.33697078  0.98187229  0.29832772  1
  O  O562  1  0.33873764  0.98346778  0.54756644  1
  O  O563  1  0.33549893  0.98193582  0.79751278  1
  O  O564  1  0.83957267  0.31513026  0.04821106  1
  O  O565  1  0.83791747  0.31414816  0.29730733  1
  O  O566  1  0.83642209  0.31602407  0.54614407  1
  O  O567  1  0.83930311  0.31528895  0.79779663  1
  O  O568  1  0.83727208  0.64815320  0.04795844  1
  O  O569  1  0.83471630  0.64915722  0.29678503  1
  O  O570  1  0.83521488  0.64833823  0.54718745  1
  O  O571  1  0.83604177  0.64742233  0.79839854  1
  O  O572  1  0.83944857  0.98156133  0.04845787  1
  O  O573  1  0.83659246  0.98209516  0.29685758  1
  O  O574  1  0.83607116  0.98072818  0.54738648  1
  O  O575  1  0.83627099  0.98261206  0.79733266  1
  O  O576  1  0.41115881  0.14928887  0.17331710  1
  O  O577  1  0.41060823  0.14711379  0.42256801  1
  O  O578  1  0.41168467  0.14865666  0.67146767  1
  O  O579  1  0.41195626  0.14797131  0.92278115  1
  O  O580  1  0.41127952  0.48172186  0.17277824  1
  O  O581  1  0.41371298  0.48166853  0.42294286  1
  O  O582  1  0.41067918  0.48002626  0.67246140  1
  O  O583  1  0.41060544  0.48292432  0.92219347  1
  O  O584  1  0.41174519  0.81411415  0.17338322  1
  O  O585  1  0.41215464  0.81613660  0.42158727  1
  O  O586  1  0.41310072  0.81643189  0.67220693  1
  O  O587  1  0.41097050  0.81420842  0.92343578  1
  O  O588  1  0.91341020  0.14867882  0.17271626  1
  O  O589  1  0.91335021  0.14921590  0.42204911  1
  O  O590  1  0.91340663  0.14805751  0.67339962  1
  O  O591  1  0.91460214  0.14911892  0.92147595  1
  O  O592  1  0.91336223  0.48079448  0.17292923  1
  O  O593  1  0.91064987  0.48057630  0.42307906  1
  O  O594  1  0.91087063  0.48195694  0.67320154  1
  O  O595  1  0.91424028  0.48127811  0.92274130  1
  O  O596  1  0.91233810  0.81578699  0.17305832  1
  O  O597  1  0.91046161  0.81473547  0.42256374  1
  O  O598  1  0.91352939  0.81528020  0.67244716  1
  O  O599  1  0.91513155  0.81498842  0.92251710  1
  O  O600  1  0.08688527  0.18372751  0.07764231  1
  O  O601  1  0.08618082  0.18479078  0.32776185  1
  O  O602  1  0.08797518  0.18423468  0.57842076  1
  O  O603  1  0.08879732  0.18577986  0.82743215  1
  O  O604  1  0.08983833  0.51817519  0.07743454  1
  O  O605  1  0.08830075  0.51786205  0.32689553  1
  O  O606  1  0.08657532  0.51868414  0.57661928  1
  O  O607  1  0.08915090  0.51794977  0.82809920  1
  O  O608  1  0.08695535  0.85240931  0.07831380  1
  O  O609  1  0.08851481  0.85256782  0.32665138  1
  O  O610  1  0.08826582  0.85169155  0.57764515  1
  O  O611  1  0.08907479  0.85105592  0.82729854  1
  O  O612  1  0.58583537  0.18570484  0.07763144  1
  O  O613  1  0.58928980  0.18592393  0.32648271  1
  O  O614  1  0.58669045  0.18489184  0.57619014  1
  O  O615  1  0.58628911  0.18503413  0.82720417  1
  O  O616  1  0.58587647  0.51814752  0.07839364  1
  O  O617  1  0.58892099  0.51722638  0.32762821  1
  O  O618  1  0.58918596  0.51787420  0.57742395  1
  O  O619  1  0.58521887  0.51795016  0.82664553  1
  O  O620  1  0.58731739  0.85071424  0.07883443  1
  O  O621  1  0.58751719  0.85189804  0.32661548  1
  O  O622  1  0.58742752  0.85211786  0.57651057  1
  O  O623  1  0.58780605  0.85185683  0.82710782  1
  O  O624  1  0.33598447  0.18576287  0.04856170  1
  O  O625  1  0.33853201  0.18468692  0.29661353  1
  O  O626  1  0.33876843  0.18466392  0.54779668  1
  O  O627  1  0.33568352  0.18496729  0.79777705  1
  O  O628  1  0.33795987  0.51823122  0.04715009  1
  O  O629  1  0.33777832  0.51847431  0.29683189  1
  O  O630  1  0.33846598  0.51750062  0.54694163  1
  O  O631  1  0.33806530  0.51748946  0.79761839  1
  O  O632  1  0.33698880  0.85091500  0.04702793  1
  O  O633  1  0.33701555  0.85180297  0.29830998  1
  O  O634  1  0.33994273  0.85335866  0.54822871  1
  O  O635  1  0.33550063  0.85186377  0.79701476  1
  O  O636  1  0.83985342  0.18520642  0.04790496  1
  O  O637  1  0.83747626  0.18408521  0.29714794  1
  O  O638  1  0.83670876  0.18589948  0.54678280  1
  O  O639  1  0.83949714  0.18510150  0.79777752  1
  O  O640  1  0.83698160  0.51806077  0.04851692  1
  O  O641  1  0.83483573  0.51896073  0.29735951  1
  O  O642  1  0.83554701  0.51804031  0.54681842  1
  O  O643  1  0.83565570  0.51723487  0.79804925  1
  O  O644  1  0.83911108  0.85162166  0.04850900  1
  O  O645  1  0.83702593  0.85179991  0.29615722  1
  O  O646  1  0.83539446  0.85055821  0.54718507  1
  O  O647  1  0.83642117  0.85234253  0.79783201  1
  O  O648  1  0.16193271  0.14726542  0.20264096  1
  O  O649  1  0.16300743  0.14885159  0.45204263  1
  O  O650  1  0.16046090  0.14870715  0.70249683  1
  O  O651  1  0.16036852  0.14989198  0.95360338  1
  O  O652  1  0.16496552  0.48266338  0.20275961  1
  O  O653  1  0.16520996  0.48111685  0.45201803  1
  O  O654  1  0.16347165  0.48097435  0.70211774  1
  O  O655  1  0.16335007  0.48154915  0.95210050  1
  O  O656  1  0.16478444  0.81576993  0.20297603  1
  O  O657  1  0.16214613  0.81475826  0.45277544  1
  O  O658  1  0.16135178  0.81607081  0.70205622  1
  O  O659  1  0.16315320  0.81387193  0.95192607  1
  O  O660  1  0.66405704  0.14877082  0.20189570  1
  O  O661  1  0.66228575  0.14859243  0.45230498  1
  O  O662  1  0.66439377  0.14825825  0.70244188  1
  O  O663  1  0.66406404  0.14878621  0.95198710  1
  O  O664  1  0.65984221  0.48120511  0.20246069  1
  O  O665  1  0.66216417  0.48123634  0.45224405  1
  O  O666  1  0.66387344  0.48194485  0.70338425  1
  O  O667  1  0.66131020  0.48129999  0.95321277  1
  O  O668  1  0.66220568  0.81528604  0.20157633  1
  O  O669  1  0.66354687  0.81547708  0.45208400  1
  O  O670  1  0.66240339  0.81511308  0.70339764  1
  O  O671  1  0.66192857  0.81518275  0.95329205  1
