# generated using pymatgen
data_Na2MnFe(PO4)2
_symmetry_space_group_name_H-M   'P 1'
_cell_length_a   21.08608771
_cell_length_b   18.93835924
_cell_length_c   20.04505960
_cell_angle_alpha   89.99996937
_cell_angle_beta   90.00259754
_cell_angle_gamma   90.00104346
_symmetry_Int_Tables_number   1
_chemical_formula_structural   Na2MnFe(PO4)2
_chemical_formula_sum   'Na96 Mn48 Fe48 P96 O384'
_cell_volume   8004.71198646
_cell_formula_units_Z   48
loop_
 _symmetry_equiv_pos_site_id
 _symmetry_equiv_pos_as_xyz
  1  'x, y, z'
loop_
 _atom_site_type_symbol
 _atom_site_label
 _atom_site_symmetry_multiplicity
 _atom_site_fract_x
 _atom_site_fract_y
 _atom_site_fract_z
 _atom_site_occupancy
  Na  Na0  1  0.00163814  0.00052455  0.00118094  1
  Na  Na1  1  0.00282740  0.00052926  0.24896444  1
  Na  Na2  1  -0.00035744  -0.00060553  0.49953705  1
  Na  Na3  1  0.00036566  0.00055644  0.75033810  1
  Na  Na4  1  0.00039705  0.33346357  0.00053907  1
  Na  Na5  1  0.00000967  0.33393592  0.24983538  1
  Na  Na6  1  -0.00048359  0.33371089  0.49925375  1
  Na  Na7  1  0.00142231  0.33431807  0.75017894  1
  Na  Na8  1  0.00162714  0.66696426  -0.00033323  1
  Na  Na9  1  0.00206182  0.66708168  0.25076058  1
  Na  Na10  1  0.00110454  0.66730951  0.50034601  1
  Na  Na11  1  0.00038109  0.66680409  0.74940068  1
  Na  Na12  1  0.49817208  0.00030507  -0.00015186  1
  Na  Na13  1  0.49733918  -0.00068993  0.25006523  1
  Na  Na14  1  0.50008730  0.00014024  0.50097809  1
  Na  Na15  1  0.50090762  0.00096023  0.74918226  1
  Na  Na16  1  0.50021222  0.33345926  -0.00056056  1
  Na  Na17  1  0.49921367  0.33266468  0.25120187  1
  Na  Na18  1  0.49957228  0.33294890  0.50029432  1
  Na  Na19  1  0.50187361  0.33395114  0.74932886  1
  Na  Na20  1  0.50036155  0.66690951  0.00143177  1
  Na  Na21  1  0.49972629  0.66645842  0.25045723  1
  Na  Na22  1  0.50072460  0.66677509  0.49941852  1
  Na  Na23  1  0.49978755  0.66613635  0.74873858  1
  Na  Na24  1  0.24963049  -0.00025657  0.12468758  1
  Na  Na25  1  0.25129966  0.00040338  0.37498813  1
  Na  Na26  1  0.25089585  0.00011651  0.62453439  1
  Na  Na27  1  0.25052894  0.00089705  0.87562411  1
  Na  Na28  1  0.24779371  0.33249062  0.12439996  1
  Na  Na29  1  0.24953058  0.33354320  0.37515432  1
  Na  Na30  1  0.25078742  0.33410952  0.62585788  1
  Na  Na31  1  0.24788333  0.33254076  0.87474025  1
  Na  Na32  1  0.25133993  0.66676459  0.12514159  1
  Na  Na33  1  0.25019311  0.66632130  0.37404209  1
  Na  Na34  1  0.25149169  0.66631229  0.62551054  1
  Na  Na35  1  0.25206566  0.66659617  0.87504234  1
  Na  Na36  1  0.75062494  0.00088925  0.12573214  1
  Na  Na37  1  0.74828794  -0.00090444  0.37461824  1
  Na  Na38  1  0.74870397  -0.00012355  0.62515782  1
  Na  Na39  1  0.74863059  -0.00025947  0.87437051  1
  Na  Na40  1  0.75260584  0.33432626  0.12484104  1
  Na  Na41  1  0.75123170  0.33425247  0.37442592  1
  Na  Na42  1  0.74756386  0.33271270  0.62467371  1
  Na  Na43  1  0.74978252  0.33321617  0.87579685  1
  Na  Na44  1  0.74734958  0.66655903  0.12487513  1
  Na  Na45  1  0.74690607  0.66597773  0.37399004  1
  Na  Na46  1  0.74933462  0.66743234  0.62552559  1
  Na  Na47  1  0.74727045  0.66606933  0.87602688  1
  Na  Na48  1  0.00019580  0.16711777  0.00079744  1
  Na  Na49  1  0.00162386  0.16647462  0.24926238  1
  Na  Na50  1  0.00166701  0.16600967  0.49975459  1
  Na  Na51  1  0.00100883  0.16620332  0.75074765  1
  Na  Na52  1  0.00202392  0.49930792  -0.00013524  1
  Na  Na53  1  0.00058783  0.49993443  0.25040813  1
  Na  Na54  1  -0.00007129  0.49986387  0.49925629  1
  Na  Na55  1  0.00171911  0.49923907  0.74962019  1
  Na  Na56  1  0.00038589  0.83370911  0.00065496  1
  Na  Na57  1  0.00287049  0.83192727  0.25000978  1
  Na  Na58  1  -0.00072905  0.83340991  0.50036065  1
  Na  Na59  1  -0.00127595  0.83382943  0.74947793  1
  Na  Na60  1  0.49953429  0.16668697  -0.00067110  1
  Na  Na61  1  0.50011075  0.16585256  0.25017188  1
  Na  Na62  1  0.49948652  0.16705690  0.50059739  1
  Na  Na63  1  0.49974318  0.16673483  0.74954006  1
  Na  Na64  1  0.49841492  0.50124214  0.00080707  1
  Na  Na65  1  0.50034880  0.49961046  0.25155395  1
  Na  Na66  1  0.50063207  0.50009584  0.49968410  1
  Na  Na67  1  0.50059176  0.49987536  0.74915065  1
  Na  Na68  1  0.49859862  0.83358375  0.00002596  1
  Na  Na69  1  0.49905291  0.83270036  0.25081810  1
  Na  Na70  1  0.49906145  0.83394359  0.50008809  1
  Na  Na71  1  0.50265611  0.83178836  0.74880877  1
  Na  Na72  1  0.24903591  0.16700195  0.12493543  1
  Na  Na73  1  0.24945672  0.16727266  0.37523607  1
  Na  Na74  1  0.25218026  0.16568253  0.62565473  1
  Na  Na75  1  0.24985640  0.16632713  0.87437777  1
  Na  Na76  1  0.24887552  0.50054366  0.12395235  1
  Na  Na77  1  0.25068129  0.49999344  0.37459671  1
  Na  Na78  1  0.25007282  0.50013204  0.62621029  1
  Na  Na79  1  0.24938455  0.50022923  0.87512322  1
  Na  Na80  1  0.25164794  0.83258264  0.12520710  1
  Na  Na81  1  0.25032518  0.83314701  0.37449630  1
  Na  Na82  1  0.25176971  0.83262786  0.62390735  1
  Na  Na83  1  0.25178404  0.83274685  0.87577637  1
  Na  Na84  1  0.75189232  0.16592886  0.12581013  1
  Na  Na85  1  0.74778428  0.16758026  0.37335648  1
  Na  Na86  1  0.74798218  0.16691068  0.62510026  1
  Na  Na87  1  0.74895602  0.16704348  0.87493934  1
  Na  Na88  1  0.74987697  0.50008831  0.12466017  1
  Na  Na89  1  0.74951588  0.49958927  0.37521699  1
  Na  Na90  1  0.74707061  0.50108758  0.62474455  1
  Na  Na91  1  0.75021419  0.49908150  0.87574028  1
  Na  Na92  1  0.74820213  0.83310184  0.12506291  1
  Na  Na93  1  0.74952044  0.83298533  0.37424067  1
  Na  Na94  1  0.74931966  0.83359478  0.62594639  1
  Na  Na95  1  0.74780351  0.83361492  0.87509935  1
  Mn  Mn96  1  0.39256900  0.25062380  0.87735055  1
  Mn  Mn97  1  0.60800187  0.74932924  0.62164455  1
  Mn  Mn98  1  0.89211294  0.58341178  0.87701650  1
  Mn  Mn99  1  0.85742824  0.08367956  0.75216360  1
  Mn  Mn100  1  0.89239573  0.24942768  0.37725396  1
  Mn  Mn101  1  0.89175511  0.24942372  0.62675411  1
  Mn  Mn102  1  0.35731955  0.41608769  0.00258415  1
  Mn  Mn103  1  0.14339690  0.91640120  0.99747146  1
  Mn  Mn104  1  0.64128800  0.58275967  0.99795437  1
  Mn  Mn105  1  0.10793298  0.41698852  0.37310038  1
  Mn  Mn106  1  0.89162549  0.91709121  0.87760165  1
  Mn  Mn107  1  0.60747216  0.08393886  0.62225128  1
  Mn  Mn108  1  0.89237285  0.24994326  0.87704043  1
  Mn  Mn109  1  0.14220214  0.24951525  0.74717845  1
  Mn  Mn110  1  0.89183181  0.58428647  0.37722831  1
  Mn  Mn111  1  0.14262016  0.58352463  0.24722208  1
  Mn  Mn112  1  0.89173356  0.58337589  0.62683222  1
  Mn  Mn113  1  0.35810576  0.41617362  0.75236606  1
  Mn  Mn114  1  0.60801260  0.41630784  0.37255720  1
  Mn  Mn115  1  0.89302502  0.58374129  0.12703073  1
  Mn  Mn116  1  0.64215929  0.25095684  0.24686819  1
  Mn  Mn117  1  0.35892055  0.75053493  0.75243163  1
  Mn  Mn118  1  0.35739116  0.41653460  0.25132812  1
  Mn  Mn119  1  0.14220516  0.91637419  0.74765404  1
  Mn  Mn120  1  0.64084405  0.91631221  0.24738434  1
  Mn  Mn121  1  0.85672396  0.74946623  0.75258608  1
  Mn  Mn122  1  0.39312298  0.91611913  0.87682427  1
  Mn  Mn123  1  0.10901025  0.08271885  0.37292510  1
  Mn  Mn124  1  0.14280934  0.91581925  0.49779639  1
  Mn  Mn125  1  0.35710799  0.08344638  0.25223054  1
  Mn  Mn126  1  0.14318445  0.25062030  0.49853425  1
  Mn  Mn127  1  0.10862867  0.75037387  0.87273730  1
  Mn  Mn128  1  0.64102597  0.91765674  0.99834551  1
  Mn  Mn129  1  0.85703164  0.08315422  0.50199828  1
  Mn  Mn130  1  0.39167324  0.24936255  0.37758779  1
  Mn  Mn131  1  0.60687760  0.08358430  0.12229388  1
  Mn  Mn132  1  0.85761964  0.74941355  0.25176187  1
  Mn  Mn133  1  0.89265416  0.91632694  0.37660935  1
  Mn  Mn134  1  0.39264662  0.58340337  0.37788958  1
  Mn  Mn135  1  0.39250726  0.91687938  0.62759566  1
  Mn  Mn136  1  0.85720637  0.75013051  0.00260972  1
  Mn  Mn137  1  0.89323248  0.91630103  0.12728196  1
  Mn  Mn138  1  0.85701679  0.41685834  0.75139279  1
  Mn  Mn139  1  0.10778147  0.75031724  0.62222487  1
  Mn  Mn140  1  0.85828395  0.08321088  0.25238021  1
  Mn  Mn141  1  0.60818864  0.41697049  0.87287058  1
  Mn  Mn142  1  0.14278467  0.58386142  0.74763533  1
  Mn  Mn143  1  0.64275318  0.24961957  0.99912251  1
  Fe  Fe144  1  0.60657559  0.75031517  0.87385495  1
  Fe  Fe145  1  0.10896938  0.74958831  0.12276918  1
  Fe  Fe146  1  0.10755953  0.41641934  0.62233972  1
  Fe  Fe147  1  0.60696542  0.75120010  0.37337718  1
  Fe  Fe148  1  0.89185797  0.91715997  0.62612830  1
  Fe  Fe149  1  0.60536363  0.74998495  0.12366047  1
  Fe  Fe150  1  0.14350570  0.58339259  0.49912594  1
  Fe  Fe151  1  0.14372762  0.58324761  0.99798404  1
  Fe  Fe152  1  0.85630311  0.41702992  0.50208432  1
  Fe  Fe153  1  0.85785801  0.08328369  0.00139645  1
  Fe  Fe154  1  0.10711448  0.41653332  0.87355162  1
  Fe  Fe155  1  0.10764068  0.08334883  0.87336404  1
  Fe  Fe156  1  0.85741003  0.41753083  0.25108195  1
  Fe  Fe157  1  0.35791143  0.08367104  0.50225326  1
  Fe  Fe158  1  0.85679179  0.74987378  0.50085960  1
  Fe  Fe159  1  0.35713074  0.08310047  0.75213351  1
  Fe  Fe160  1  0.14219216  0.24985622  0.24764034  1
  Fe  Fe161  1  0.14386540  0.91664800  0.24841104  1
  Fe  Fe162  1  0.10763864  0.08335744  0.62344914  1
  Fe  Fe163  1  0.85830238  0.41634265  0.00233436  1
  Fe  Fe164  1  0.60715435  0.41651067  0.12382414  1
  Fe  Fe165  1  0.64260632  0.91658085  0.49776331  1
  Fe  Fe166  1  0.35720062  0.08361704  0.00149560  1
  Fe  Fe167  1  0.60734405  0.08315239  0.87348647  1
  Fe  Fe168  1  0.35838308  0.74976241  0.00220497  1
  Fe  Fe169  1  0.64215955  0.58276602  0.24800523  1
  Fe  Fe170  1  0.39256511  0.91668833  0.37704134  1
  Fe  Fe171  1  0.64257716  0.58371901  0.49806420  1
  Fe  Fe172  1  0.39186956  0.91685154  0.12706331  1
  Fe  Fe173  1  0.39322682  0.58248750  0.62603122  1
  Fe  Fe174  1  0.35755923  0.74910356  0.50102409  1
  Fe  Fe175  1  0.10718843  0.41699137  0.12290432  1
  Fe  Fe176  1  0.64209422  0.24974159  0.49777348  1
  Fe  Fe177  1  0.39169408  0.25059343  0.12637086  1
  Fe  Fe178  1  0.35735904  0.75008120  0.25207337  1
  Fe  Fe179  1  0.64194608  0.25013536  0.74816278  1
  Fe  Fe180  1  0.60645983  0.08267030  0.37379314  1
  Fe  Fe181  1  0.10831189  0.75000104  0.37372680  1
  Fe  Fe182  1  0.60702054  0.41651261  0.62289432  1
  Fe  Fe183  1  0.10775982  0.08365060  0.12237685  1
  Fe  Fe184  1  0.64135665  0.58298183  0.74813503  1
  Fe  Fe185  1  0.64224196  0.91686424  0.74817858  1
  Fe  Fe186  1  0.14241376  0.25017284  0.99814248  1
  Fe  Fe187  1  0.39312064  0.58317472  0.87657369  1
  Fe  Fe188  1  0.39273371  0.58281828  0.12681622  1
  Fe  Fe189  1  0.39329255  0.25079512  0.62667415  1
  Fe  Fe190  1  0.89408223  0.25004730  0.12642885  1
  Fe  Fe191  1  0.35761991  0.41705422  0.50239079  1
  P  P192  1  0.05476570  0.25041634  0.11070983  1
  P  P193  1  0.05458091  0.25026632  0.35926443  1
  P  P194  1  0.05342549  0.24976945  0.60986867  1
  P  P195  1  0.05494687  0.24995466  0.86148681  1
  P  P196  1  0.05486851  0.58336678  0.10934178  1
  P  P197  1  0.05512749  0.58419059  0.36153852  1
  P  P198  1  0.05413368  0.58269313  0.60910866  1
  P  P199  1  0.05484564  0.58277529  0.86090743  1
  P  P200  1  0.05612037  0.91625314  0.11141431  1
  P  P201  1  0.05490061  0.91541649  0.35931117  1
  P  P202  1  0.05220466  0.91767821  0.60989439  1
  P  P203  1  0.05347125  0.91757671  0.86017752  1
  P  P204  1  0.55140217  0.25097757  0.11008405  1
  P  P205  1  0.55429356  0.24884922  0.36109695  1
  P  P206  1  0.55400389  0.25082130  0.61042433  1
  P  P207  1  0.55424937  0.24920257  0.85965001  1
  P  P208  1  0.55316457  0.58278035  0.11211603  1
  P  P209  1  0.55562101  0.58434987  0.36082216  1
  P  P210  1  0.55401972  0.58229795  0.60994356  1
  P  P211  1  0.55243034  0.58417671  0.85968511  1
  P  P212  1  0.55075726  0.91610491  0.11030723  1
  P  P213  1  0.55297003  0.91693052  0.36151347  1
  P  P214  1  0.55516670  0.91672785  0.61010084  1
  P  P215  1  0.55377382  0.91681866  0.85938330  1
  P  P216  1  0.44446232  0.08404133  0.13866361  1
  P  P217  1  0.44663360  0.08246748  0.39073344  1
  P  P218  1  0.44463938  0.08449368  0.63951737  1
  P  P219  1  0.44624686  0.08338909  0.88908714  1
  P  P220  1  0.44763561  0.41642299  0.14018872  1
  P  P221  1  0.44590121  0.41640712  0.39089938  1
  P  P222  1  0.44659463  0.41686123  0.63852712  1
  P  P223  1  0.44703361  0.41755309  0.89008035  1
  P  P224  1  0.44508107  0.74975958  0.13974980  1
  P  P225  1  0.44604155  0.75069915  0.38937429  1
  P  P226  1  0.44555627  0.74878722  0.63806699  1
  P  P227  1  0.44744657  0.74893942  0.89049027  1
  P  P228  1  0.94721887  0.08395965  0.13865471  1
  P  P229  1  0.94752840  0.08302614  0.39001626  1
  P  P230  1  0.94750913  0.08269655  0.63983644  1
  P  P231  1  0.94760679  0.08353175  0.89096152  1
  P  P232  1  0.94650713  0.41638252  0.13926582  1
  P  P233  1  0.94445603  0.41714576  0.38949116  1
  P  P234  1  0.94649079  0.41663571  0.63864554  1
  P  P235  1  0.94715300  0.41668270  0.89034721  1
  P  P236  1  0.94897832  0.74962951  0.14010187  1
  P  P237  1  0.94768203  0.75002339  0.39055165  1
  P  P238  1  0.94457175  0.75079833  0.63859816  1
  P  P239  1  0.94686281  0.75008860  0.89026377  1
  P  P240  1  0.19597946  0.08307695  0.23444465  1
  P  P241  1  0.19754112  0.08336380  0.48653613  1
  P  P242  1  0.19625942  0.08295820  0.73528770  1
  P  P243  1  0.19613887  0.08431362  0.98558739  1
  P  P244  1  0.19581168  0.41620926  0.23404896  1
  P  P245  1  0.19726610  0.41771822  0.48643130  1
  P  P246  1  0.19487719  0.41664915  0.73555865  1
  P  P247  1  0.19469378  0.41665793  0.98567263  1
  P  P248  1  0.19675406  0.75074387  0.23559088  1
  P  P249  1  0.19791253  0.74870760  0.48455330  1
  P  P250  1  0.19758597  0.75020249  0.73452782  1
  P  P251  1  0.19798586  0.74891761  0.98618313  1
  P  P252  1  0.69498367  0.08322830  0.23580529  1
  P  P253  1  0.69556557  0.08325130  0.48406034  1
  P  P254  1  0.69470471  0.08355426  0.73612505  1
  P  P255  1  0.69732774  0.08368826  0.98465416  1
  P  P256  1  0.69709254  0.41739179  0.23411319  1
  P  P257  1  0.69586829  0.41659396  0.48617732  1
  P  P258  1  0.69518708  0.41662747  0.73446072  1
  P  P259  1  0.69693380  0.41604712  0.98671799  1
  P  P260  1  0.69387111  0.74918816  0.23531419  1
  P  P261  1  0.69687270  0.75038188  0.48432431  1
  P  P262  1  0.69402672  0.74973024  0.73661081  1
  P  P263  1  0.69362162  0.75035400  0.98595050  1
  P  P264  1  0.30235486  0.24939318  0.01506138  1
  P  P265  1  0.30265878  0.25026518  0.26380661  1
  P  P266  1  0.30447832  0.25048726  0.51600126  1
  P  P267  1  0.30481364  0.24938593  0.76394744  1
  P  P268  1  0.30476612  0.58353738  0.01429517  1
  P  P269  1  0.30513262  0.58370131  0.26362299  1
  P  P270  1  0.30331472  0.58323502  0.51544484  1
  P  P271  1  0.30581254  0.58297678  0.76477281  1
  P  P272  1  0.30490611  0.91674205  0.01527450  1
  P  P273  1  0.30454348  0.91597038  0.26441877  1
  P  P274  1  0.30528118  0.91625843  0.51345547  1
  P  P275  1  0.30348507  0.91756742  0.76525237  1
  P  P276  1  0.80493351  0.24945405  0.01564666  1
  P  P277  1  0.80520347  0.25112187  0.26332229  1
  P  P278  1  0.80150410  0.25028677  0.51454266  1
  P  P279  1  0.80157899  0.25031065  0.76481053  1
  P  P280  1  0.80319076  0.58284972  0.01524416  1
  P  P281  1  0.80202610  0.58284015  0.26451186  1
  P  P282  1  0.80165304  0.58382713  0.51457710  1
  P  P283  1  0.80095416  0.58310328  0.76513744  1
  P  P284  1  0.80279095  0.91768737  0.01542404  1
  P  P285  1  0.80299039  0.91617883  0.26476710  1
  P  P286  1  0.80226191  0.91577161  0.51498618  1
  P  P287  1  0.80277305  0.91680359  0.76396880  1
  O  O288  1  0.05875219  0.25023465  0.18744486  1
  O  O289  1  0.05807411  0.25043351  0.43603861  1
  O  O290  1  0.05605335  0.25005419  0.68667942  1
  O  O291  1  0.05845448  0.24988191  0.93826620  1
  O  O292  1  0.05718980  0.58352058  0.18621891  1
  O  O293  1  0.05955257  0.58346848  0.43819357  1
  O  O294  1  0.05715057  0.58340759  0.68591979  1
  O  O295  1  0.05930092  0.58372098  0.93761919  1
  O  O296  1  0.06005708  0.91602693  0.18812806  1
  O  O297  1  0.05751353  0.91617353  0.43614616  1
  O  O298  1  0.05591052  0.91690679  0.68657371  1
  O  O299  1  0.05722193  0.91674514  0.93695068  1
  O  O300  1  0.55522975  0.25024406  0.18679960  1
  O  O301  1  0.55847607  0.24995031  0.43786716  1
  O  O302  1  0.55849310  0.25007116  0.68710847  1
  O  O303  1  0.55736914  0.24973506  0.93642144  1
  O  O304  1  0.55747835  0.58240164  0.18878724  1
  O  O305  1  0.55983808  0.58353244  0.43764312  1
  O  O306  1  0.55819128  0.58311717  0.68665815  1
  O  O307  1  0.55569119  0.58322689  0.93648989  1
  O  O308  1  0.55434801  0.91662749  0.18700671  1
  O  O309  1  0.55780123  0.91662319  0.43817170  1
  O  O310  1  0.55940273  0.91666361  0.68685297  1
  O  O311  1  0.55553685  0.91732613  0.93622443  1
  O  O312  1  0.44067637  0.08428132  0.06187364  1
  O  O313  1  0.44281778  0.08327796  0.31397320  1
  O  O314  1  0.44077049  0.08355149  0.56270995  1
  O  O315  1  0.44161257  0.08341186  0.81240721  1
  O  O316  1  0.44397899  0.41654353  0.06349729  1
  O  O317  1  0.44232569  0.41632626  0.31415943  1
  O  O318  1  0.44204048  0.41699630  0.56186621  1
  O  O319  1  0.44417430  0.41655080  0.81332613  1
  O  O320  1  0.44118256  0.74972228  0.06294995  1
  O  O321  1  0.44139714  0.74984274  0.31268363  1
  O  O322  1  0.44136026  0.74930657  0.56135707  1
  O  O323  1  0.44451079  0.74976501  0.81371429  1
  O  O324  1  0.94221772  0.08323111  0.06206138  1
  O  O325  1  0.94433784  0.08327477  0.31323068  1
  O  O326  1  0.94347422  0.08333856  0.56315244  1
  O  O327  1  0.94327039  0.08352821  0.81423727  1
  O  O328  1  0.94188494  0.41706198  0.06254505  1
  O  O329  1  0.94039753  0.41763701  0.31268839  1
  O  O330  1  0.94042610  0.41679773  0.56201369  1
  O  O331  1  0.94311561  0.41677129  0.81360357  1
  O  O332  1  0.94413166  0.74973452  0.06348925  1
  O  O333  1  0.94359964  0.74950546  0.31385565  1
  O  O334  1  0.93999471  0.74988697  0.56187131  1
  O  O335  1  0.94303915  0.74978250  0.81344581  1
  O  O336  1  0.19132716  0.08378683  0.06228710  1
  O  O337  1  0.19399559  0.08331728  0.31132996  1
  O  O338  1  0.19238322  0.08304727  0.56314972  1
  O  O339  1  0.19139001  0.08313376  0.81198851  1
  O  O340  1  0.19094324  0.41663807  0.06243808  1
  O  O341  1  0.19343807  0.41700108  0.31089519  1
  O  O342  1  0.19234338  0.41694698  0.56309032  1
  O  O343  1  0.19056330  0.41655851  0.81232324  1
  O  O344  1  0.19322844  0.74938776  0.06285343  1
  O  O345  1  0.19221550  0.74987706  0.31224273  1
  O  O346  1  0.19413332  0.74964653  0.56124671  1
  O  O347  1  0.19432375  0.75017479  0.81133512  1
  O  O348  1  0.69322398  0.08356500  0.06140704  1
  O  O349  1  0.69006958  0.08281856  0.31246406  1
  O  O350  1  0.69298263  0.08349665  0.56090887  1
  O  O351  1  0.69100994  0.08344574  0.81286714  1
  O  O352  1  0.69136061  0.41637440  0.06328900  1
  O  O353  1  0.69332202  0.41637113  0.31082785  1
  O  O354  1  0.69108438  0.41648164  0.56282971  1
  O  O355  1  0.69322007  0.41661493  0.81132891  1
  O  O356  1  0.68872756  0.75035682  0.06270911  1
  O  O357  1  0.68990197  0.75061409  0.31208073  1
  O  O358  1  0.69379367  0.75047250  0.56115461  1
  O  O359  1  0.69019566  0.74960177  0.81334636  1
  O  O360  1  0.30779272  0.25047204  0.18717945  1
  O  O361  1  0.30634768  0.25043793  0.43907579  1
  O  O362  1  0.30935540  0.25058753  0.68728708  1
  O  O363  1  0.30635930  0.25009820  0.93836275  1
  O  O364  1  0.30927109  0.58285071  0.18688498  1
  O  O365  1  0.30651118  0.58305359  0.43862508  1
  O  O366  1  0.31017818  0.58264497  0.68805431  1
  O  O367  1  0.30935514  0.58301371  0.93760029  1
  O  O368  1  0.30884904  0.91652197  0.18767308  1
  O  O369  1  0.30866313  0.91665604  0.43662008  1
  O  O370  1  0.30649646  0.91678223  0.68846647  1
  O  O371  1  0.30778574  0.91669573  0.93849662  1
  O  O372  1  0.81016138  0.25001215  0.18664222  1
  O  O373  1  0.80558340  0.24982511  0.43786470  1
  O  O374  1  0.80553665  0.24994716  0.68812016  1
  O  O375  1  0.80703225  0.24967339  0.93880144  1
  O  O376  1  0.80622200  0.58383659  0.18787672  1
  O  O377  1  0.80523005  0.58370394  0.43791208  1
  O  O378  1  0.80525231  0.58346898  0.68844808  1
  O  O379  1  0.80628060  0.58337389  0.93847379  1
  O  O380  1  0.80700040  0.91626570  0.18802431  1
  O  O381  1  0.80624462  0.91637564  0.43830169  1
  O  O382  1  0.80792321  0.91716766  0.68733068  1
  O  O383  1  0.80549655  0.91686768  0.93857950  1
  O  O384  1  0.23210669  0.24996589  0.03899558  1
  O  O385  1  0.23233274  0.25003166  0.28739472  1
  O  O386  1  0.23500049  0.25014642  0.54187207  1
  O  O387  1  0.23475002  0.24948630  0.78788198  1
  O  O388  1  0.23437250  0.58310686  0.03792193  1
  O  O389  1  0.23512274  0.58350690  0.28774504  1
  O  O390  1  0.23340497  0.58339988  0.54047751  1
  O  O391  1  0.23568269  0.58337527  0.78853098  1
  O  O392  1  0.23516224  0.91633832  0.04029058  1
  O  O393  1  0.23426228  0.91681213  0.28824954  1
  O  O394  1  0.23545004  0.91593738  0.53844623  1
  O  O395  1  0.23408727  0.91706030  0.79099642  1
  O  O396  1  0.73537276  0.24977177  0.04149019  1
  O  O397  1  0.73499482  0.25110829  0.28693709  1
  O  O398  1  0.73131901  0.24979934  0.53878533  1
  O  O399  1  0.73156413  0.25043805  0.78928962  1
  O  O400  1  0.73335285  0.58320723  0.04005216  1
  O  O401  1  0.73193410  0.58264612  0.28886097  1
  O  O402  1  0.73152100  0.58411747  0.53922663  1
  O  O403  1  0.73085425  0.58257050  0.78944351  1
  O  O404  1  0.73316674  0.91750671  0.04088087  1
  O  O405  1  0.73305195  0.91594096  0.28896425  1
  O  O406  1  0.73201328  0.91657554  0.53915797  1
  O  O407  1  0.73233896  0.91667116  0.78736787  1
  O  O408  1  0.26558695  0.08324665  0.20896168  1
  O  O409  1  0.26790134  0.08392437  0.46280140  1
  O  O410  1  0.26666487  0.08319924  0.71191720  1
  O  O411  1  0.26664453  0.08368946  0.96219513  1
  O  O412  1  0.26536917  0.41672028  0.20845150  1
  O  O413  1  0.26755575  0.41700361  0.46253670  1
  O  O414  1  0.26512200  0.41672425  0.71208966  1
  O  O415  1  0.26470932  0.41638337  0.96120042  1
  O  O416  1  0.26718114  0.74996502  0.21198295  1
  O  O417  1  0.26802466  0.74927066  0.46004189  1
  O  O418  1  0.26730094  0.74984944  0.70974431  1
  O  O419  1  0.26841696  0.74955854  0.96258532  1
  O  O420  1  0.76519873  0.08338738  0.21231693  1
  O  O421  1  0.76517918  0.08325206  0.45852439  1
  O  O422  1  0.76453651  0.08351778  0.71121276  1
  O  O423  1  0.76736963  0.08364319  0.96022987  1
  O  O424  1  0.76725757  0.41729850  0.20995084  1
  O  O425  1  0.76617122  0.41679751  0.46221731  1
  O  O426  1  0.76464948  0.41683256  0.70847624  1
  O  O427  1  0.76737800  0.41580106  0.96339573  1
  O  O428  1  0.76392609  0.74987382  0.21104573  1
  O  O429  1  0.76683422  0.74983003  0.45932479  1
  O  O430  1  0.76388269  0.75017104  0.71188472  1
  O  O431  1  0.76377565  0.74998924  0.96229066  1
  O  O432  1  0.01776956  0.08378025  0.16192861  1
  O  O433  1  0.01727811  0.08267482  0.41488202  1
  O  O434  1  0.01751399  0.08315455  0.66453680  1
  O  O435  1  0.01780373  0.08384025  0.91498170  1
  O  O436  1  0.01696556  0.41694768  0.16275981  1
  O  O437  1  0.01470106  0.41688311  0.41316774  1
  O  O438  1  0.01703732  0.41672165  0.66150796  1
  O  O439  1  0.01735825  0.41622631  0.91441221  1
  O  O440  1  0.01927855  0.74927529  0.16376658  1
  O  O441  1  0.01785239  0.75035490  0.41476168  1
  O  O442  1  0.01472972  0.75030243  0.66251943  1
  O  O443  1  0.01672637  0.75048395  0.91478100  1
  O  O444  1  0.51431008  0.08333665  0.16344256  1
  O  O445  1  0.51662403  0.08322673  0.41534735  1
  O  O446  1  0.51482126  0.08386475  0.66319506  1
  O  O447  1  0.51664955  0.08323753  0.91277303  1
  O  O448  1  0.51744779  0.41627155  0.16554944  1
  O  O449  1  0.51587333  0.41662206  0.41506693  1
  O  O450  1  0.51683356  0.41673343  0.66256102  1
  O  O451  1  0.51664490  0.41743717  0.91542340  1
  O  O452  1  0.51540803  0.74934573  0.16383782  1
  O  O453  1  0.51643364  0.75055865  0.41305146  1
  O  O454  1  0.51562275  0.74906252  0.66208414  1
  O  O455  1  0.51731445  0.75008512  0.91554421  1
  O  O456  1  0.48150083  0.25048692  0.08511536  1
  O  O457  1  0.48420824  0.24928581  0.33699906  1
  O  O458  1  0.48360870  0.25023560  0.58686486  1
  O  O459  1  0.48450447  0.25020755  0.83462291  1
  O  O460  1  0.48292121  0.58365457  0.08790187  1
  O  O461  1  0.48538055  0.58325867  0.33725604  1
  O  O462  1  0.48378154  0.58294958  0.58585853  1
  O  O463  1  0.48254094  0.58323983  0.83467292  1
  O  O464  1  0.48078020  0.91664554  0.08559104  1
  O  O465  1  0.48268728  0.91630594  0.33748225  1
  O  O466  1  0.48500217  0.91698431  0.58658348  1
  O  O467  1  0.48437504  0.91644499  0.83312453  1
  O  O468  1  0.98445847  0.25032885  0.08667014  1
  O  O469  1  0.98479493  0.25021700  0.33458013  1
  O  O470  1  0.98396471  0.24982105  0.58399808  1
  O  O471  1  0.98513569  0.25008868  0.83641809  1
  O  O472  1  0.98525439  0.58328821  0.08389466  1
  O  O473  1  0.98515329  0.58375487  0.33712905  1
  O  O474  1  0.98432423  0.58326372  0.58422212  1
  O  O475  1  0.98492655  0.58298308  0.83625885  1
  O  O476  1  0.98618172  0.91672994  0.08683603  1
  O  O477  1  0.98535681  0.91619778  0.33373215  1
  O  O478  1  0.98223034  0.91701557  0.58508934  1
  O  O479  1  0.98374481  0.91723219  0.83526949  1
  O  O480  1  0.08807053  0.31557141  0.07758121  1
  O  O481  1  0.08862032  0.31529050  0.32662721  1
  O  O482  1  0.08783026  0.31478779  0.57751115  1
  O  O483  1  0.08877241  0.31500926  0.82877542  1
  O  O484  1  0.08952474  0.64826569  0.07708337  1
  O  O485  1  0.08862312  0.64948904  0.32874535  1
  O  O486  1  0.08870502  0.64754424  0.57656693  1
  O  O487  1  0.08857510  0.64770106  0.82756997  1
  O  O488  1  0.08990950  0.98139658  0.07865182  1
  O  O489  1  0.08995218  0.98003694  0.32694551  1
  O  O490  1  0.08606414  0.98287695  0.57749048  1
  O  O491  1  0.08723918  0.98306400  0.82819688  1
  O  O492  1  0.58539274  0.31613502  0.07781865  1
  O  O493  1  0.58788123  0.31387158  0.32777094  1
  O  O494  1  0.58715048  0.31596430  0.57721282  1
  O  O495  1  0.58886491  0.31401227  0.82711441  1
  O  O496  1  0.58681917  0.64776911  0.07915172  1
  O  O497  1  0.58839251  0.64978716  0.32801391  1
  O  O498  1  0.58789664  0.64707365  0.57643544  1
  O  O499  1  0.58589295  0.64957464  0.82739039  1
  O  O500  1  0.58483129  0.98098697  0.07742126  1
  O  O501  1  0.58567385  0.98229293  0.32813304  1
  O  O502  1  0.58879427  0.98165655  0.57700188  1
  O  O503  1  0.58819946  0.98185068  0.82720473  1
  O  O504  1  0.41058929  0.01890195  0.17135208  1
  O  O505  1  0.41301054  0.01721492  0.42315864  1
  O  O506  1  0.41087298  0.01965692  0.67292392  1
  O  O507  1  0.41265524  0.01848988  0.92232983  1
  O  O508  1  0.41340895  0.35130009  0.17253023  1
  O  O509  1  0.41190075  0.35148663  0.42355151  1
  O  O510  1  0.41327439  0.35179720  0.67189863  1
  O  O511  1  0.41281449  0.35260854  0.92275596  1
  O  O512  1  0.41145087  0.68481662  0.17288854  1
  O  O513  1  0.41272948  0.68565600  0.42297217  1
  O  O514  1  0.41233904  0.68358167  0.67093780  1
  O  O515  1  0.41394189  0.68360823  0.92294512  1
  O  O516  1  0.91409195  0.01904139  0.17251326  1
  O  O517  1  0.91324735  0.01800549  0.42217623  1
  O  O518  1  0.91367289  0.01748888  0.67231835  1
  O  O519  1  0.91388295  0.01855705  0.92400334  1
  O  O520  1  0.91338469  0.35113458  0.17223718  1
  O  O521  1  0.91083461  0.35210087  0.42251515  1
  O  O522  1  0.91360978  0.35150014  0.67229408  1
  O  O523  1  0.91320884  0.35174465  0.92320829  1
  O  O524  1  0.91529692  0.68461722  0.17320991  1
  O  O525  1  0.91381740  0.68512620  0.42368725  1
  O  O526  1  0.91104333  0.68578846  0.67207906  1
  O  O527  1  0.91314081  0.68493235  0.92288759  1
  O  O528  1  0.16194474  0.01777587  0.20247639  1
  O  O529  1  0.16468904  0.01818573  0.45294554  1
  O  O530  1  0.16303525  0.01797930  0.70174459  1
  O  O531  1  0.16272730  0.01936588  0.95204339  1
  O  O532  1  0.16156891  0.35109658  0.20205857  1
  O  O533  1  0.16354806  0.35289072  0.45297940  1
  O  O534  1  0.16142749  0.35169146  0.70213991  1
  O  O535  1  0.16083572  0.35163113  0.95279800  1
  O  O536  1  0.16306780  0.68602668  0.20182271  1
  O  O537  1  0.16429600  0.68346891  0.45207073  1
  O  O538  1  0.16333138  0.68531456  0.70207336  1
  O  O539  1  0.16497746  0.68380473  0.95285573  1
  O  O540  1  0.66167921  0.01823139  0.20227849  1
  O  O541  1  0.66124301  0.01798917  0.45204029  1
  O  O542  1  0.66087387  0.01859434  0.70317499  1
  O  O543  1  0.66298858  0.01886932  0.95193405  1
  O  O544  1  0.66318923  0.35260711  0.20075419  1
  O  O545  1  0.66271984  0.35153875  0.45264293  1
  O  O546  1  0.66074371  0.35150706  0.70238110  1
  O  O547  1  0.66363327  0.35108009  0.95339474  1
  O  O548  1  0.66058400  0.68358783  0.20299739  1
  O  O549  1  0.66222854  0.68558362  0.45214519  1
  O  O550  1  0.66075611  0.68434591  0.70354981  1
  O  O551  1  0.65976402  0.68543691  0.95281572  1
  O  O552  1  0.33624961  0.31424289  0.04838561  1
  O  O553  1  0.33595887  0.31517593  0.29730076  1
  O  O554  1  0.33873869  0.31570472  0.54809137  1
  O  O555  1  0.33812290  0.31432829  0.79763214  1
  O  O556  1  0.33820360  0.64851850  0.04756128  1
  O  O557  1  0.33857841  0.64890117  0.29649343  1
  O  O558  1  0.33758652  0.64832175  0.54761873  1
  O  O559  1  0.33968589  0.64786971  0.79788013  1
  O  O560  1  0.33858588  0.98208673  0.04767931  1
  O  O561  1  0.33845479  0.98072383  0.29778650  1
  O  O562  1  0.33885328  0.98133033  0.54644225  1
  O  O563  1  0.33758999  0.98279839  0.79722580  1
  O  O564  1  0.83976927  0.31434128  0.04770111  1
  O  O565  1  0.83834583  0.31656159  0.29595882  1
  O  O566  1  0.83503930  0.31537764  0.54741928  1
  O  O567  1  0.83547165  0.31539218  0.79734019  1
  O  O568  1  0.83714397  0.64784935  0.04804434  1
  O  O569  1  0.83548627  0.64793760  0.29779344  1
  O  O570  1  0.83543144  0.64892649  0.54715550  1
  O  O571  1  0.83444016  0.64813953  0.79827458  1
  O  O572  1  0.83706678  0.98299583  0.04713173  1
  O  O573  1  0.83669088  0.98124640  0.29756593  1
  O  O574  1  0.83638288  0.98062711  0.54819145  1
  O  O575  1  0.83587319  0.98189502  0.79748755  1
  O  O576  1  0.41123293  0.14938026  0.17169149  1
  O  O577  1  0.41228873  0.14725926  0.42357099  1
  O  O578  1  0.41146846  0.14976519  0.67228890  1
  O  O579  1  0.41277260  0.14833110  0.92252152  1
  O  O580  1  0.41380603  0.48159163  0.17280247  1
  O  O581  1  0.41194686  0.48146086  0.42360932  1
  O  O582  1  0.41336485  0.48198386  0.67174093  1
  O  O583  1  0.41285191  0.48263985  0.92210237  1
  O  O584  1  0.41189311  0.81501472  0.17285015  1
  O  O585  1  0.41243354  0.81557566  0.42240165  1
  O  O586  1  0.41229737  0.81388039  0.67150294  1
  O  O587  1  0.41265714  0.81356910  0.92311141  1
  O  O588  1  0.91424625  0.14921309  0.17187066  1
  O  O589  1  0.91371274  0.14809731  0.42269724  1
  O  O590  1  0.91358362  0.14771255  0.67283638  1
  O  O591  1  0.91359627  0.14848112  0.92366188  1
  O  O592  1  0.91295951  0.48123142  0.17294420  1
  O  O593  1  0.91095524  0.48209732  0.42287106  1
  O  O594  1  0.91350822  0.48173538  0.67234989  1
  O  O595  1  0.91359239  0.48169239  0.92342733  1
  O  O596  1  0.91553968  0.81467991  0.17321903  1
  O  O597  1  0.91354888  0.81502510  0.42305953  1
  O  O598  1  0.91135592  0.81625860  0.67125990  1
  O  O599  1  0.91276640  0.81511090  0.92274538  1
  O  O600  1  0.08843893  0.18551500  0.07737165  1
  O  O601  1  0.08885058  0.18525164  0.32685564  1
  O  O602  1  0.08774939  0.18443526  0.57814642  1
  O  O603  1  0.08866739  0.18471597  0.82878346  1
  O  O604  1  0.08919171  0.51819557  0.07732630  1
  O  O605  1  0.08884985  0.51935480  0.32810423  1
  O  O606  1  0.08822527  0.51757951  0.57676454  1
  O  O607  1  0.08825430  0.51731426  0.82847040  1
  O  O608  1  0.08947889  0.85102978  0.07826746  1
  O  O609  1  0.08906845  0.85001612  0.32757057  1
  O  O610  1  0.08648211  0.85279526  0.57704554  1
  O  O611  1  0.08761668  0.85269044  0.82733081  1
  O  O612  1  0.58553912  0.18604672  0.07728495  1
  O  O613  1  0.58748578  0.18355541  0.32844755  1
  O  O614  1  0.58757365  0.18598067  0.57682959  1
  O  O615  1  0.58779628  0.18387103  0.82720019  1
  O  O616  1  0.58605880  0.51757466  0.07852495  1
  O  O617  1  0.58958884  0.51958530  0.32747474  1
  O  O618  1  0.58739282  0.51712723  0.57710013  1
  O  O619  1  0.58705478  0.51950152  0.82693845  1
  O  O620  1  0.58434195  0.85090520  0.07794003  1
  O  O621  1  0.58655070  0.85201894  0.32814836  1
  O  O622  1  0.58848188  0.85171730  0.57665221  1
  O  O623  1  0.58831259  0.85163341  0.82769995  1
  O  O624  1  0.33595699  0.18432561  0.04781393  1
  O  O625  1  0.33595171  0.18520883  0.29724696  1
  O  O626  1  0.33928245  0.18561125  0.54787654  1
  O  O627  1  0.33814774  0.18408300  0.79668410  1
  O  O628  1  0.33824443  0.51859592  0.04793981  1
  O  O629  1  0.33862387  0.51882798  0.29701422  1
  O  O630  1  0.33739773  0.51830807  0.54830374  1
  O  O631  1  0.33908354  0.51796099  0.79826207  1
  O  O632  1  0.33926461  0.85180984  0.04775402  1
  O  O633  1  0.33777638  0.85075610  0.29743874  1
  O  O634  1  0.33912801  0.85102454  0.54581091  1
  O  O635  1  0.33808448  0.85262936  0.79752909  1
  O  O636  1  0.83916567  0.18417656  0.04762895  1
  O  O637  1  0.83838058  0.18616841  0.29715474  1
  O  O638  1  0.83518184  0.18518610  0.54752776  1
  O  O639  1  0.83549668  0.18537043  0.79766735  1
  O  O640  1  0.83713274  0.51760773  0.04736035  1
  O  O641  1  0.83599639  0.51781628  0.29696482  1
  O  O642  1  0.83518251  0.51870291  0.54759244  1
  O  O643  1  0.83508484  0.51806531  0.79752303  1
  O  O644  1  0.83706965  0.85267823  0.04793301  1
  O  O645  1  0.83688972  0.85108893  0.29732437  1
  O  O646  1  0.83564157  0.85047536  0.54766584  1
  O  O647  1  0.83587532  0.85178019  0.79746717  1
  O  O648  1  0.16146497  0.14797045  0.20210877  1
  O  O649  1  0.16400795  0.14830850  0.45334594  1
  O  O650  1  0.16273907  0.14781680  0.70173767  1
  O  O651  1  0.16305596  0.14942019  0.95229795  1
  O  O652  1  0.16123884  0.48106553  0.20159742  1
  O  O653  1  0.16427450  0.48296821  0.45323689  1
  O  O654  1  0.16142028  0.48157645  0.70226056  1
  O  O655  1  0.16124463  0.48190908  0.95278000  1
  O  O656  1  0.16394390  0.81608841  0.20242514  1
  O  O657  1  0.16374306  0.81351850  0.45152555  1
  O  O658  1  0.16378258  0.81532070  0.70190253  1
  O  O659  1  0.16459239  0.81390828  0.95275779  1
  O  O660  1  0.66168625  0.14836030  0.20255085  1
  O  O661  1  0.66106102  0.14817738  0.45185442  1
  O  O662  1  0.66107767  0.14881771  0.70331458  1
  O  O663  1  0.66329898  0.14873250  0.95213806  1
  O  O664  1  0.66303105  0.48244989  0.20172690  1
  O  O665  1  0.66260372  0.48177437  0.45306155  1
  O  O666  1  0.66040820  0.48160132  0.70249967  1
  O  O667  1  0.66378152  0.48106770  0.95304522  1
  O  O668  1  0.65946554  0.81364972  0.20179648  1
  O  O669  1  0.66295672  0.81554993  0.45169469  1
  O  O670  1  0.66015862  0.81465171  0.70362563  1
  O  O671  1  0.66027622  0.81541760  0.95270501  1
