# generated using pymatgen
data_Na2MnFe(PO4)2
_symmetry_space_group_name_H-M   'P 1'
_cell_length_a   21.08206129
_cell_length_b   18.93462367
_cell_length_c   20.04182852
_cell_angle_alpha   90.00000377
_cell_angle_beta   89.99942499
_cell_angle_gamma   90.00116626
_symmetry_Int_Tables_number   1
_chemical_formula_structural   Na2MnFe(PO4)2
_chemical_formula_sum   'Na96 Mn48 Fe48 P96 O384'
_cell_volume   8000.31507946
_cell_formula_units_Z   48
loop_
 _symmetry_equiv_pos_site_id
 _symmetry_equiv_pos_as_xyz
  1  'x, y, z'
loop_
 _atom_site_type_symbol
 _atom_site_label
 _atom_site_symmetry_multiplicity
 _atom_site_fract_x
 _atom_site_fract_y
 _atom_site_fract_z
 _atom_site_occupancy
  Na  Na0  1  0.00179786  0.00081044  -0.00082089  1
  Na  Na1  1  -0.00197435  -0.00023724  0.25042424  1
  Na  Na2  1  -0.00213803  -0.00024633  0.50072918  1
  Na  Na3  1  0.00195174  0.00080456  0.74987411  1
  Na  Na4  1  -0.00033452  0.33268921  -0.00046954  1
  Na  Na5  1  -0.00106178  0.33308548  0.25035632  1
  Na  Na6  1  0.00133807  0.33343025  0.50007587  1
  Na  Na7  1  0.00189056  0.33331939  0.74975529  1
  Na  Na8  1  0.00017144  0.66639070  -0.00020659  1
  Na  Na9  1  0.00020214  0.66638197  0.24999366  1
  Na  Na10  1  0.00063371  0.66684582  0.50057779  1
  Na  Na11  1  -0.00170603  0.66547480  0.75022457  1
  Na  Na12  1  0.49856391  0.00074437  -0.00011692  1
  Na  Na13  1  0.49828170  0.00056345  0.24924495  1
  Na  Na14  1  0.49850308  0.00055282  0.50118555  1
  Na  Na15  1  0.49681750  -0.00018482  0.74930281  1
  Na  Na16  1  0.49990233  0.33285936  -0.00077962  1
  Na  Na17  1  0.50121736  0.33262836  0.25080813  1
  Na  Na18  1  0.49935290  0.33273652  0.49982574  1
  Na  Na19  1  0.49889431  0.33301155  0.75034296  1
  Na  Na20  1  0.50178849  0.66792411  -0.00083861  1
  Na  Na21  1  0.50013565  0.66567402  0.25051126  1
  Na  Na22  1  0.50047815  0.66641616  0.50001360  1
  Na  Na23  1  0.49880518  0.66618894  0.75004425  1
  Na  Na24  1  0.25021354  0.00012708  0.12394981  1
  Na  Na25  1  0.25197965  0.00146434  0.37632908  1
  Na  Na26  1  0.25162682  0.00096676  0.62579019  1
  Na  Na27  1  0.25056207  0.00030428  0.87408889  1
  Na  Na28  1  0.24952793  0.33314777  0.12599958  1
  Na  Na29  1  0.24956229  0.33316200  0.37477910  1
  Na  Na30  1  0.24993210  0.33366363  0.62455085  1
  Na  Na31  1  0.24757269  0.33226512  0.87437247  1
  Na  Na32  1  0.24909698  0.66628740  0.12520500  1
  Na  Na33  1  0.25066604  0.66679017  0.37541652  1
  Na  Na34  1  0.25214995  0.66706044  0.62519057  1
  Na  Na35  1  0.25002703  0.66605795  0.87397417  1
  Na  Na36  1  0.75073818  0.00126982  0.12507549  1
  Na  Na37  1  0.75115720  0.00103396  0.37561465  1
  Na  Na38  1  0.75145967  0.00107597  0.62568615  1
  Na  Na39  1  0.74857881  -0.00018137  0.87447987  1
  Na  Na40  1  0.75133431  0.33312290  0.12498375  1
  Na  Na41  1  0.74984900  0.33271153  0.37495272  1
  Na  Na42  1  0.75124613  0.33337154  0.62563439  1
  Na  Na43  1  0.75094654  0.33246205  0.87380556  1
  Na  Na44  1  0.74994898  0.66636807  0.12355935  1
  Na  Na45  1  0.74910089  0.66600027  0.37517877  1
  Na  Na46  1  0.74928571  0.66669110  0.62650581  1
  Na  Na47  1  0.74926554  0.66658197  0.87467153  1
  Na  Na48  1  0.00139405  0.16607635  -0.00102176  1
  Na  Na49  1  -0.00190246  0.16742169  0.25149910  1
  Na  Na50  1  0.00023706  0.16622654  0.50028901  1
  Na  Na51  1  0.00046265  0.16682670  0.74978304  1
  Na  Na52  1  -0.00217816  0.50056168  0.00022215  1
  Na  Na53  1  -0.00178679  0.49985285  0.24957113  1
  Na  Na54  1  -0.00086960  0.49967802  0.49976157  1
  Na  Na55  1  -0.00048577  0.49977281  0.74993005  1
  Na  Na56  1  0.00258839  0.83294852  -0.00062317  1
  Na  Na57  1  0.00120116  0.83294149  0.24963172  1
  Na  Na58  1  0.00028485  0.83411607  0.50119519  1
  Na  Na59  1  0.00240768  0.83322891  0.75051348  1
  Na  Na60  1  0.50004554  0.16627455  -0.00029559  1
  Na  Na61  1  0.50056146  0.16679507  0.24990109  1
  Na  Na62  1  0.50002947  0.16699209  0.49938579  1
  Na  Na63  1  0.49837205  0.16685580  0.75031364  1
  Na  Na64  1  0.49897943  0.49992777  -0.00062409  1
  Na  Na65  1  0.49867150  0.50020143  0.25067939  1
  Na  Na66  1  0.49756558  0.50060482  0.50084109  1
  Na  Na67  1  0.49627072  0.50076373  0.74934563  1
  Na  Na68  1  0.50058182  0.83332968  -0.00104327  1
  Na  Na69  1  0.50193613  0.83261489  0.25037073  1
  Na  Na70  1  0.49934506  0.83412009  0.50051925  1
  Na  Na71  1  0.50075386  0.83285086  0.75004363  1
  Na  Na72  1  0.25210793  0.16579332  0.12513078  1
  Na  Na73  1  0.25068874  0.16682515  0.37545151  1
  Na  Na74  1  0.25005977  0.16646732  0.62537759  1
  Na  Na75  1  0.24848965  0.16742504  0.87405472  1
  Na  Na76  1  0.24903554  0.50057382  0.12545692  1
  Na  Na77  1  0.25105224  0.49921331  0.37603151  1
  Na  Na78  1  0.25209513  0.49925839  0.62446502  1
  Na  Na79  1  0.25177832  0.49936237  0.87421587  1
  Na  Na80  1  0.24814297  0.83399340  0.12426885  1
  Na  Na81  1  0.24938566  0.83382355  0.37512501  1
  Na  Na82  1  0.25144824  0.83290782  0.62555284  1
  Na  Na83  1  0.24827975  0.83446082  0.87413136  1
  Na  Na84  1  0.74999168  0.16661190  0.12506175  1
  Na  Na85  1  0.74938685  0.16714788  0.37475372  1
  Na  Na86  1  0.75122294  0.16578509  0.62599965  1
  Na  Na87  1  0.74851573  0.16716116  0.87382535  1
  Na  Na88  1  0.75340640  0.49900169  0.12436443  1
  Na  Na89  1  0.75185244  0.49936633  0.37479123  1
  Na  Na90  1  0.75112451  0.50004754  0.62599903  1
  Na  Na91  1  0.75285052  0.49956372  0.87473738  1
  Na  Na92  1  0.74846717  0.83364794  0.12413604  1
  Na  Na93  1  0.74890156  0.83334286  0.37606996  1
  Na  Na94  1  0.74915436  0.83354172  0.62590163  1
  Na  Na95  1  0.74771478  0.83395317  0.87433866  1
  Mn  Mn96  1  0.35821990  0.75015656  0.50259858  1
  Mn  Mn97  1  0.14204017  0.91753568  0.24825808  1
  Mn  Mn98  1  0.85799752  0.08369059  0.00128747  1
  Mn  Mn99  1  0.89230644  0.91672114  0.12677948  1
  Mn  Mn100  1  0.89181750  0.25011111  0.37813412  1
  Mn  Mn101  1  0.14254299  0.91717926  0.49837527  1
  Mn  Mn102  1  0.89204553  0.58395863  0.37774254  1
  Mn  Mn103  1  0.89171765  0.91582283  0.37738381  1
  Mn  Mn104  1  0.35806343  0.41635484  0.25236631  1
  Mn  Mn105  1  0.85888268  0.41612761  0.75187007  1
  Mn  Mn106  1  0.39230306  0.91633018  0.37730007  1
  Mn  Mn107  1  0.39287730  0.25036122  0.37746213  1
  Mn  Mn108  1  0.10803012  0.74966560  0.12230217  1
  Mn  Mn109  1  0.85775898  0.74987022  0.50310904  1
  Mn  Mn110  1  0.14258497  0.58284456  0.49808600  1
  Mn  Mn111  1  0.14289093  0.58320665  0.74728243  1
  Mn  Mn112  1  0.64223291  0.91734009  0.49849752  1
  Mn  Mn113  1  0.60737902  0.08315048  0.12261345  1
  Mn  Mn114  1  0.10777041  0.08298207  0.37307766  1
  Mn  Mn115  1  0.64120726  0.91785648  0.99706717  1
  Mn  Mn116  1  0.14213260  0.24935891  0.24767267  1
  Mn  Mn117  1  0.64285019  0.58204466  0.99735359  1
  Mn  Mn118  1  0.35722793  0.41598309  0.00275445  1
  Mn  Mn119  1  0.10798498  0.74971076  0.62298747  1
  Mn  Mn120  1  0.60857411  0.41705153  0.12236877  1
  Mn  Mn121  1  0.89330256  0.24980900  0.87722231  1
  Mn  Mn122  1  0.60808337  0.75031002  0.37294997  1
  Mn  Mn123  1  0.39153499  0.91649787  0.12702673  1
  Mn  Mn124  1  0.35825590  0.75052487  0.25199358  1
  Mn  Mn125  1  0.60697612  0.41693434  0.62262072  1
  Mn  Mn126  1  0.85766823  0.75037542  0.00166367  1
  Mn  Mn127  1  0.10785018  0.08380923  0.12328974  1
  Mn  Mn128  1  0.39191000  0.58316549  0.12678199  1
  Mn  Mn129  1  0.89322483  0.91613331  0.87682446  1
  Mn  Mn130  1  0.10667037  0.41637394  0.12285167  1
  Mn  Mn131  1  0.64192154  0.58321266  0.74799184  1
  Mn  Mn132  1  0.85731104  0.75112226  0.75249132  1
  Mn  Mn133  1  0.85782148  0.75033941  0.25227061  1
  Mn  Mn134  1  0.35719925  0.75019081  0.00218239  1
  Mn  Mn135  1  0.64233907  0.58235642  0.24752148  1
  Mn  Mn136  1  0.10779352  0.41699578  0.87290983  1
  Mn  Mn137  1  0.39128946  0.24981620  0.87762194  1
  Mn  Mn138  1  0.60766538  0.41700371  0.87269820  1
  Mn  Mn139  1  0.60676202  0.08341851  0.62286991  1
  Mn  Mn140  1  0.64204200  0.91720817  0.24753798  1
  Mn  Mn141  1  0.14224221  0.58331832  0.24853898  1
  Mn  Mn142  1  0.64211410  0.24961247  0.74727015  1
  Mn  Mn143  1  0.60822547  0.41628831  0.37368625  1
  Fe  Fe144  1  0.64351674  0.25019923  0.24768310  1
  Fe  Fe145  1  0.35785617  0.08341524  0.25203678  1
  Fe  Fe146  1  0.39241803  0.58400127  0.87718594  1
  Fe  Fe147  1  0.60765363  0.08329032  0.37388235  1
  Fe  Fe148  1  0.10800829  0.74974111  0.87291476  1
  Fe  Fe149  1  0.64171487  0.91740472  0.74819189  1
  Fe  Fe150  1  0.10707909  0.41728365  0.37346898  1
  Fe  Fe151  1  0.89358213  0.24965500  0.62625828  1
  Fe  Fe152  1  0.89281919  0.58344250  0.12666016  1
  Fe  Fe153  1  0.35644112  0.08371608  0.00094751  1
  Fe  Fe154  1  0.60621248  0.08277152  0.87295611  1
  Fe  Fe155  1  0.60771418  0.74972709  0.12330933  1
  Fe  Fe156  1  0.14175929  0.58309631  0.99766927  1
  Fe  Fe157  1  0.35777133  0.08424234  0.50205578  1
  Fe  Fe158  1  0.10772920  0.41643846  0.62288376  1
  Fe  Fe159  1  0.89200524  0.24970246  0.12632091  1
  Fe  Fe160  1  0.10785134  0.74958797  0.37371546  1
  Fe  Fe161  1  0.14227388  0.24977222  0.99911274  1
  Fe  Fe162  1  0.64300965  0.25043238  0.49947524  1
  Fe  Fe163  1  0.39245933  0.91643863  0.62746546  1
  Fe  Fe164  1  0.89276830  0.91689386  0.62791601  1
  Fe  Fe165  1  0.64274701  0.25028005  0.99868939  1
  Fe  Fe166  1  0.39269326  0.58323960  0.37709814  1
  Fe  Fe167  1  0.85742466  0.41606805  0.25198697  1
  Fe  Fe168  1  0.85763897  0.08280520  0.75191206  1
  Fe  Fe169  1  0.14400085  0.91702431  0.74781481  1
  Fe  Fe170  1  0.85778104  0.41566958  0.00159029  1
  Fe  Fe171  1  0.10868848  0.08280992  0.87265693  1
  Fe  Fe172  1  0.39253153  0.91629498  0.87636214  1
  Fe  Fe173  1  0.39177149  0.25026147  0.62646653  1
  Fe  Fe174  1  0.85697880  0.08360137  0.25166221  1
  Fe  Fe175  1  0.35702347  0.41564043  0.50196835  1
  Fe  Fe176  1  0.89232642  0.58329899  0.62631736  1
  Fe  Fe177  1  0.35792514  0.75026080  0.75222183  1
  Fe  Fe178  1  0.60648426  0.75051692  0.87304758  1
  Fe  Fe179  1  0.60625351  0.74975141  0.62381670  1
  Fe  Fe180  1  0.35661782  0.41620909  0.75143953  1
  Fe  Fe181  1  0.14270133  0.91705563  0.99748899  1
  Fe  Fe182  1  0.85717474  0.08394372  0.50233600  1
  Fe  Fe183  1  0.35626299  0.08380142  0.75189813  1
  Fe  Fe184  1  0.64264559  0.58218454  0.49909833  1
  Fe  Fe185  1  0.89318136  0.58389175  0.87665038  1
  Fe  Fe186  1  0.39268005  0.25040837  0.12630115  1
  Fe  Fe187  1  0.14308345  0.24991327  0.49888700  1
  Fe  Fe188  1  0.85780282  0.41618355  0.50206209  1
  Fe  Fe189  1  0.39279584  0.58353686  0.62675497  1
  Fe  Fe190  1  0.14292727  0.24978544  0.74725582  1
  Fe  Fe191  1  0.10708161  0.08364056  0.62315019  1
  P  P192  1  0.05191775  0.24976197  0.10968399  1
  P  P193  1  0.05475288  0.25075924  0.36172708  1
  P  P194  1  0.05467463  0.24954168  0.61070051  1
  P  P195  1  0.05623295  0.24915350  0.86013944  1
  P  P196  1  0.05264927  0.58271519  0.10950863  1
  P  P197  1  0.05340043  0.58291832  0.36045752  1
  P  P198  1  0.05228202  0.58233646  0.61022047  1
  P  P199  1  0.05371043  0.58374320  0.86067044  1
  P  P200  1  0.05415904  0.91737161  0.10900491  1
  P  P201  1  0.05326154  0.91613578  0.36047717  1
  P  P202  1  0.05373295  0.91789748  0.61177965  1
  P  P203  1  0.05644058  0.91669849  0.86010859  1
  P  P204  1  0.55393220  0.25005733  0.11019052  1
  P  P205  1  0.55627441  0.24907950  0.36092981  1
  P  P206  1  0.55196803  0.24997502  0.60959765  1
  P  P207  1  0.55425549  0.24912033  0.86109504  1
  P  P208  1  0.55330461  0.58354698  0.10947796  1
  P  P209  1  0.55368023  0.58244309  0.36153399  1
  P  P210  1  0.55240770  0.58381562  0.61004287  1
  P  P211  1  0.55190717  0.58353588  0.85984856  1
  P  P212  1  0.55279872  0.91633981  0.10967037  1
  P  P213  1  0.55347068  0.91839289  0.36037895  1
  P  P214  1  0.55263885  0.91638220  0.61169723  1
  P  P215  1  0.55228456  0.91756944  0.85921332  1
  P  P216  1  0.44420790  0.08469971  0.13889816  1
  P  P217  1  0.44636565  0.08372146  0.38979406  1
  P  P218  1  0.44387784  0.08436501  0.63951124  1
  P  P219  1  0.44491559  0.08256501  0.88907712  1
  P  P220  1  0.44707396  0.41551981  0.14005703  1
  P  P221  1  0.44611260  0.41700891  0.39103068  1
  P  P222  1  0.44421653  0.41590474  0.63924667  1
  P  P223  1  0.44479113  0.41708201  0.88880581  1
  P  P224  1  0.44811545  0.74992904  0.13976367  1
  P  P225  1  0.44696551  0.74925197  0.39027551  1
  P  P226  1  0.44668934  0.74997457  0.64059454  1
  P  P227  1  0.44594161  0.75048561  0.88855015  1
  P  P228  1  0.94601422  0.08439441  0.14047126  1
  P  P229  1  0.94460559  0.08331558  0.39021376  1
  P  P230  1  0.94582367  0.08377950  0.63953040  1
  P  P231  1  0.94787659  0.08282613  0.88837873  1
  P  P232  1  0.94418577  0.41596996  0.13914785  1
  P  P233  1  0.94579152  0.41652660  0.38986061  1
  P  P234  1  0.94692363  0.41594046  0.63839944  1
  P  P235  1  0.94627210  0.41709862  0.89039374  1
  P  P236  1  0.94679341  0.74946991  0.13967477  1
  P  P237  1  0.94820875  0.74999921  0.39067464  1
  P  P238  1  0.94663179  0.75020907  0.64050148  1
  P  P239  1  0.94828831  0.74991627  0.88965744  1
  P  P240  1  0.19833444  0.08339612  0.23498536  1
  P  P241  1  0.19682946  0.08429892  0.48679978  1
  P  P242  1  0.19574411  0.08316870  0.73545564  1
  P  P243  1  0.19700491  0.08377953  0.98439742  1
  P  P244  1  0.19539994  0.41672848  0.23617760  1
  P  P245  1  0.19583929  0.41566194  0.48581161  1
  P  P246  1  0.19682767  0.41639220  0.73416212  1
  P  P247  1  0.19621128  0.41655988  0.98521723  1
  P  P248  1  0.19584164  0.75007828  0.23594961  1
  P  P249  1  0.19648416  0.75002587  0.48483951  1
  P  P250  1  0.19733960  0.75044205  0.73604688  1
  P  P251  1  0.19581131  0.74969529  0.98382021  1
  P  P252  1  0.69647286  0.08436193  0.23628321  1
  P  P253  1  0.69720534  0.08438912  0.48535167  1
  P  P254  1  0.69594160  0.08237575  0.73599501  1
  P  P255  1  0.69567963  0.08478659  0.98391244  1
  P  P256  1  0.69812317  0.41577866  0.23500759  1
  P  P257  1  0.69827035  0.41666061  0.48588278  1
  P  P258  1  0.69685808  0.41662384  0.73481569  1
  P  P259  1  0.69854616  0.41549786  0.98453694  1
  P  P260  1  0.69619982  0.74967442  0.23401418  1
  P  P261  1  0.69509742  0.74887424  0.48714657  1
  P  P262  1  0.69373621  0.75109342  0.73582769  1
  P  P263  1  0.69446849  0.74993967  0.98468769  1
  P  P264  1  0.30208835  0.24925630  0.01539879  1
  P  P265  1  0.30478317  0.24925678  0.26414194  1
  P  P266  1  0.30300878  0.25020734  0.51532209  1
  P  P267  1  0.30307202  0.25015416  0.76332038  1
  P  P268  1  0.30244291  0.58353889  0.01382516  1
  P  P269  1  0.30414821  0.58333534  0.26611601  1
  P  P270  1  0.30536739  0.58238545  0.51456901  1
  P  P271  1  0.30584511  0.58316758  0.76391023  1
  P  P272  1  0.30306206  0.91726644  0.01290891  1
  P  P273  1  0.30334023  0.91765761  0.26514751  1
  P  P274  1  0.30438303  0.91762597  0.51614651  1
  P  P275  1  0.30475936  0.91682394  0.76410643  1
  P  P276  1  0.80300911  0.24998718  0.01491116  1
  P  P277  1  0.80403323  0.24986309  0.26393140  1
  P  P278  1  0.80295193  0.24990117  0.51589997  1
  P  P279  1  0.80550358  0.24865534  0.76349832  1
  P  P280  1  0.80576867  0.58272400  0.01371040  1
  P  P281  1  0.80469459  0.58279765  0.26379163  1
  P  P282  1  0.80265060  0.58262641  0.51603762  1
  P  P283  1  0.80551938  0.58368910  0.76471097  1
  P  P284  1  0.80282795  0.91704675  0.01448110  1
  P  P285  1  0.80297060  0.91734449  0.26509504  1
  P  P286  1  0.80392660  0.91743079  0.51638631  1
  P  P287  1  0.80323642  0.91767366  0.76419882  1
  O  O288  1  0.05579636  0.24971523  0.18644429  1
  O  O289  1  0.05914879  0.24973414  0.43845128  1
  O  O290  1  0.05919703  0.24973997  0.68746746  1
  O  O291  1  0.06003553  0.24960124  0.93694712  1
  O  O292  1  0.05667394  0.58266890  0.18619667  1
  O  O293  1  0.05643553  0.58270403  0.43722133  1
  O  O294  1  0.05623077  0.58259771  0.68692273  1
  O  O295  1  0.05820985  0.58305473  0.93735582  1
  O  O296  1  0.05688348  0.91755587  0.18582631  1
  O  O297  1  0.05635272  0.91741829  0.43728410  1
  O  O298  1  0.05930984  0.91727293  0.68839611  1
  O  O299  1  0.06007328  0.91721835  0.93696081  1
  O  O300  1  0.55901098  0.25013928  0.18691562  1
  O  O301  1  0.56054898  0.25012704  0.43771805  1
  O  O302  1  0.55590812  0.24986970  0.68634379  1
  O  O303  1  0.55865236  0.24997665  0.93779300  1
  O  O304  1  0.55631669  0.58234700  0.18630613  1
  O  O305  1  0.55875143  0.58192551  0.43820047  1
  O  O306  1  0.55603048  0.58269355  0.68670883  1
  O  O307  1  0.55624648  0.58258906  0.93649929  1
  O  O308  1  0.55599338  0.91738747  0.18645860  1
  O  O309  1  0.55631025  0.91826953  0.43721644  1
  O  O310  1  0.55729396  0.91750438  0.68831417  1
  O  O311  1  0.55557426  0.91798889  0.93595358  1
  O  O312  1  0.43988064  0.08404003  0.06209892  1
  O  O313  1  0.44192794  0.08393964  0.31306710  1
  O  O314  1  0.44052439  0.08464234  0.56264770  1
  O  O315  1  0.43995072  0.08383433  0.81236550  1
  O  O316  1  0.44376032  0.41584054  0.06322859  1
  O  O317  1  0.44345120  0.41595980  0.31423606  1
  O  O318  1  0.44065741  0.41536394  0.56246465  1
  O  O319  1  0.44044876  0.41595600  0.81206131  1
  O  O320  1  0.44399742  0.75028429  0.06301829  1
  O  O321  1  0.44416037  0.74974007  0.31350550  1
  O  O322  1  0.44365980  0.75027446  0.56386813  1
  O  O323  1  0.44139681  0.75044170  0.81187145  1
  O  O324  1  0.94360806  0.08387751  0.06361298  1
  O  O325  1  0.94004435  0.08368230  0.31346557  1
  O  O326  1  0.94109686  0.08378317  0.56280944  1
  O  O327  1  0.94258594  0.08280957  0.81178156  1
  O  O328  1  0.94088469  0.41549589  0.06232087  1
  O  O329  1  0.94089917  0.41603786  0.31315819  1
  O  O330  1  0.94205681  0.41581746  0.56170223  1
  O  O331  1  0.94394741  0.41594932  0.81353258  1
  O  O332  1  0.94367814  0.75025253  0.06291521  1
  O  O333  1  0.94419095  0.74999304  0.31398543  1
  O  O334  1  0.94386161  0.75058729  0.56371606  1
  O  O335  1  0.94403849  0.75078477  0.81300402  1
  O  O336  1  0.19392682  0.08358519  0.06110400  1
  O  O337  1  0.19421101  0.08368353  0.31169940  1
  O  O338  1  0.19177681  0.08345949  0.56343898  1
  O  O339  1  0.19179508  0.08318812  0.81217788  1
  O  O340  1  0.19326916  0.41700821  0.06200292  1
  O  O341  1  0.19120187  0.41684348  0.31294329  1
  O  O342  1  0.19104774  0.41679988  0.56256254  1
  O  O343  1  0.19309938  0.41732219  0.81085259  1
  O  O344  1  0.19326243  0.74943648  0.06070713  1
  O  O345  1  0.19162185  0.74978835  0.31273124  1
  O  O346  1  0.19342813  0.74974699  0.56171285  1
  O  O347  1  0.19217696  0.74948787  0.81263023  1
  O  O348  1  0.69285656  0.08362578  0.06073508  1
  O  O349  1  0.69203491  0.08342763  0.31291189  1
  O  O350  1  0.69320467  0.08358285  0.56206041  1
  O  O351  1  0.69062847  0.08277198  0.81256927  1
  O  O352  1  0.69499297  0.41650436  0.06125519  1
  O  O353  1  0.69416688  0.41668441  0.31168165  1
  O  O354  1  0.69421426  0.41685657  0.56252171  1
  O  O355  1  0.69348861  0.41669596  0.81157503  1
  O  O356  1  0.69045175  0.74994501  0.06147613  1
  O  O357  1  0.69319384  0.74962728  0.31092562  1
  O  O358  1  0.69055555  0.74966894  0.56390080  1
  O  O359  1  0.68937893  0.75021834  0.81265354  1
  O  O360  1  0.30873975  0.25027482  0.18744094  1
  O  O361  1  0.30663985  0.25017379  0.43861753  1
  O  O362  1  0.30750596  0.25015240  0.68674107  1
  O  O363  1  0.30535216  0.25018517  0.93855758  1
  O  O364  1  0.30685791  0.58331383  0.18921768  1
  O  O365  1  0.30912042  0.58337043  0.43781424  1
  O  O366  1  0.30974194  0.58372219  0.68706347  1
  O  O367  1  0.30796320  0.58372264  0.93716206  1
  O  O368  1  0.30583702  0.91653127  0.18828994  1
  O  O369  1  0.30713629  0.91684682  0.43933446  1
  O  O370  1  0.30927583  0.91622760  0.68738362  1
  O  O371  1  0.30799871  0.91638018  0.93626757  1
  O  O372  1  0.80816070  0.24959690  0.18729919  1
  O  O373  1  0.80594021  0.25002107  0.43908116  1
  O  O374  1  0.81004885  0.24938029  0.68681819  1
  O  O375  1  0.80686343  0.24922938  0.93817348  1
  O  O376  1  0.80878725  0.58376364  0.18703359  1
  O  O377  1  0.80621742  0.58348180  0.43925862  1
  O  O378  1  0.80989473  0.58366816  0.68791942  1
  O  O379  1  0.80971154  0.58416175  0.93687066  1
  O  O380  1  0.80598429  0.91669773  0.18831658  1
  O  O381  1  0.80662054  0.91622838  0.43956828  1
  O  O382  1  0.80863354  0.91691028  0.68756186  1
  O  O383  1  0.80652821  0.91656442  0.93770036  1
  O  O384  1  0.23205687  0.24952215  0.04017830  1
  O  O385  1  0.23490377  0.24975474  0.28879221  1
  O  O386  1  0.23290955  0.25016746  0.53989052  1
  O  O387  1  0.23268136  0.24979888  0.78708486  1
  O  O388  1  0.23206088  0.58350017  0.03728991  1
  O  O389  1  0.23449659  0.58297738  0.29131569  1
  O  O390  1  0.23534872  0.58302268  0.53906445  1
  O  O391  1  0.23568055  0.58277414  0.78787934  1
  O  O392  1  0.23268649  0.91702060  0.03660514  1
  O  O393  1  0.23401309  0.91808190  0.29121448  1
  O  O394  1  0.23470478  0.91701350  0.54143043  1
  O  O395  1  0.23425517  0.91742486  0.78745141  1
  O  O396  1  0.73299038  0.24975894  0.03957516  1
  O  O397  1  0.73390221  0.25005483  0.28835856  1
  O  O398  1  0.73291397  0.24982227  0.54089422  1
  O  O399  1  0.73535939  0.24934332  0.78725592  1
  O  O400  1  0.73569283  0.58274445  0.03786853  1
  O  O401  1  0.73480253  0.58276414  0.28841540  1
  O  O402  1  0.73260890  0.58283250  0.54079451  1
  O  O403  1  0.73531108  0.58332776  0.78839894  1
  O  O404  1  0.73303530  0.91767147  0.03917503  1
  O  O405  1  0.73342456  0.91725160  0.29071399  1
  O  O406  1  0.73409714  0.91741315  0.54137684  1
  O  O407  1  0.73279377  0.91720571  0.78748627  1
  O  O408  1  0.26824795  0.08312870  0.21036795  1
  O  O409  1  0.26726553  0.08437910  0.46324533  1
  O  O410  1  0.26624210  0.08332015  0.71197144  1
  O  O411  1  0.26701051  0.08398675  0.95924390  1
  O  O412  1  0.26537378  0.41667317  0.21193353  1
  O  O413  1  0.26633218  0.41589563  0.46245464  1
  O  O414  1  0.26703628  0.41653580  0.71009423  1
  O  O415  1  0.26574926  0.41588126  0.95954347  1
  O  O416  1  0.26568142  0.75010145  0.21120279  1
  O  O417  1  0.26629810  0.75022613  0.46018332  1
  O  O418  1  0.26783359  0.75027310  0.71269943  1
  O  O419  1  0.26547053  0.75009529  0.95843318  1
  O  O420  1  0.76667197  0.08429693  0.21205753  1
  O  O421  1  0.76745696  0.08400179  0.46127141  1
  O  O422  1  0.76636320  0.08293354  0.71257120  1
  O  O423  1  0.76539737  0.08378916  0.95870374  1
  O  O424  1  0.76816306  0.41582090  0.21055423  1
  O  O425  1  0.76834614  0.41617355  0.46116542  1
  O  O426  1  0.76673260  0.41653954  0.71031375  1
  O  O427  1  0.76852822  0.41567071  0.95972695  1
  O  O428  1  0.76584747  0.75001212  0.20887770  1
  O  O429  1  0.76513304  0.74953496  0.46280702  1
  O  O430  1  0.76398384  0.75059664  0.71227792  1
  O  O431  1  0.76455167  0.75007911  0.96050859  1
  O  O432  1  0.01555718  0.08377732  0.16627084  1
  O  O433  1  0.01477970  0.08317221  0.41392626  1
  O  O434  1  0.01636479  0.08386937  0.66295083  1
  O  O435  1  0.01831446  0.08287774  0.91168391  1
  O  O436  1  0.01408609  0.41631113  0.16400892  1
  O  O437  1  0.01616387  0.41678221  0.41331378  1
  O  O438  1  0.01727214  0.41601644  0.66239765  1
  O  O439  1  0.01588291  0.41670323  0.91572580  1
  O  O440  1  0.01651372  0.74949121  0.16473830  1
  O  O441  1  0.01817953  0.75001889  0.41540728  1
  O  O442  1  0.01632385  0.74971762  0.66587396  1
  O  O443  1  0.01839963  0.74999809  0.91387650  1
  O  O444  1  0.51436431  0.08386732  0.16281625  1
  O  O445  1  0.51659126  0.08403421  0.41386627  1
  O  O446  1  0.51387723  0.08381939  0.66399213  1
  O  O447  1  0.51530392  0.08305131  0.91257492  1
  O  O448  1  0.51662812  0.41620469  0.16553180  1
  O  O449  1  0.51581389  0.41654084  0.41624091  1
  O  O450  1  0.51417810  0.41659468  0.66393460  1
  O  O451  1  0.51479945  0.41666205  0.91306034  1
  O  O452  1  0.51806035  0.74942537  0.16446078  1
  O  O453  1  0.51650817  0.75009309  0.41580801  1
  O  O454  1  0.51673436  0.74955388  0.66538835  1
  O  O455  1  0.51635645  0.75077569  0.91219531  1
  O  O456  1  0.48356290  0.24969303  0.08654873  1
  O  O457  1  0.48605325  0.24993054  0.33725731  1
  O  O458  1  0.48181226  0.24985928  0.58546464  1
  O  O459  1  0.48406378  0.24947102  0.83716094  1
  O  O460  1  0.48370741  0.58370629  0.08401711  1
  O  O461  1  0.48333328  0.58260984  0.33788958  1
  O  O462  1  0.48208898  0.58362341  0.58602533  1
  O  O463  1  0.48173132  0.58362536  0.83570898  1
  O  O464  1  0.48314577  0.91691618  0.08436730  1
  O  O465  1  0.48396982  0.91714692  0.33475721  1
  O  O466  1  0.48221663  0.91700277  0.58803614  1
  O  O467  1  0.48216584  0.91683430  0.83468840  1
  O  O468  1  0.98191450  0.24966677  0.08512614  1
  O  O469  1  0.98459429  0.25049903  0.33782868  1
  O  O470  1  0.98426552  0.24943426  0.58692390  1
  O  O471  1  0.98612312  0.25017757  0.83608171  1
  O  O472  1  0.98240777  0.58306052  0.08557370  1
  O  O473  1  0.98380532  0.58287156  0.33506081  1
  O  O474  1  0.98220069  0.58306890  0.58563946  1
  O  O475  1  0.98339433  0.58318511  0.83681107  1
  O  O476  1  0.98452222  0.91708858  0.08363491  1
  O  O477  1  0.98367204  0.91624827  0.33509698  1
  O  O478  1  0.98321016  0.91755874  0.58863615  1
  O  O479  1  0.98640138  0.91682501  0.83574763  1
  O  O480  1  0.08596483  0.31467341  0.07688484  1
  O  O481  1  0.08794991  0.31610937  0.32895433  1
  O  O482  1  0.08816355  0.31447818  0.57736683  1
  O  O483  1  0.09030174  0.31398315  0.82694664  1
  O  O484  1  0.08676986  0.64748665  0.07653060  1
  O  O485  1  0.08744573  0.64824075  0.32837696  1
  O  O486  1  0.08650411  0.64733137  0.57777930  1
  O  O487  1  0.08692394  0.64888359  0.82743836  1
  O  O488  1  0.08836847  0.98245975  0.07661872  1
  O  O489  1  0.08724896  0.98124134  0.32767577  1
  O  O490  1  0.08655870  0.98313656  0.57821227  1
  O  O491  1  0.09035709  0.98157722  0.82696024  1
  O  O492  1  0.58733177  0.31504434  0.07665648  1
  O  O493  1  0.59025949  0.31378140  0.32738072  1
  O  O494  1  0.58597178  0.31496027  0.57682415  1
  O  O495  1  0.58788079  0.31393816  0.82755552  1
  O  O496  1  0.58774273  0.64860009  0.07769121  1
  O  O497  1  0.58704018  0.64753154  0.32838321  1
  O  O498  1  0.58616202  0.64897915  0.57771211  1
  O  O499  1  0.58555126  0.64874942  0.82734630  1
  O  O500  1  0.58694135  0.98138581  0.07701469  1
  O  O501  1  0.58693626  0.98382888  0.32794516  1
  O  O502  1  0.58604805  0.98119662  0.57792668  1
  O  O503  1  0.58580505  0.98274960  0.82614440  1
  O  O504  1  0.41022184  0.01991322  0.17220721  1
  O  O505  1  0.41267971  0.01880381  0.42296494  1
  O  O506  1  0.40975504  0.01939778  0.67218743  1
  O  O507  1  0.41179735  0.01715441  0.92186450  1
  O  O508  1  0.41322062  0.35020166  0.17229081  1
  O  O509  1  0.41163230  0.35210975  0.42369152  1
  O  O510  1  0.41076185  0.35076238  0.67255556  1
  O  O511  1  0.41118460  0.35209255  0.92220707  1
  O  O512  1  0.41393206  0.68499774  0.17223936  1
  O  O513  1  0.41315312  0.68399878  0.42255069  1
  O  O514  1  0.41248151  0.68495252  0.67298208  1
  O  O515  1  0.41288994  0.68533983  0.92197516  1
  O  O516  1  0.91112705  0.01958166  0.17276252  1
  O  O517  1  0.91080850  0.01847487  0.42331721  1
  O  O518  1  0.91246932  0.01881520  0.67320781  1
  O  O519  1  0.91462084  0.01797640  0.92199089  1
  O  O520  1  0.91064532  0.35083568  0.17226633  1
  O  O521  1  0.91251961  0.35160259  0.42366300  1
  O  O522  1  0.91391563  0.35071353  0.67179182  1
  O  O523  1  0.91175810  0.35224635  0.92300631  1
  O  O524  1  0.91282438  0.68424064  0.17187950  1
  O  O525  1  0.91430226  0.68492909  0.42342958  1
  O  O526  1  0.91225611  0.68500028  0.67219776  1
  O  O527  1  0.91442900  0.68483752  0.92209832  1
  O  O528  1  0.16428898  0.01853314  0.20225230  1
  O  O529  1  0.16385382  0.01921919  0.45305670  1
  O  O530  1  0.16253790  0.01810148  0.70206145  1
  O  O531  1  0.16317549  0.01877688  0.95140068  1
  O  O532  1  0.16170893  0.35167671  0.20317555  1
  O  O533  1  0.16257849  0.35047130  0.45291796  1
  O  O534  1  0.16292975  0.35126791  0.70164812  1
  O  O535  1  0.16182041  0.35131457  0.95344732  1
  O  O536  1  0.16221653  0.68496201  0.20291170  1
  O  O537  1  0.16236804  0.68500753  0.45232178  1
  O  O538  1  0.16421368  0.68549901  0.70220793  1
  O  O539  1  0.16158968  0.68461291  0.95136122  1
  O  O540  1  0.66302785  0.01958003  0.20246826  1
  O  O541  1  0.66320291  0.01952080  0.45219175  1
  O  O542  1  0.66289243  0.01727914  0.70242532  1
  O  O543  1  0.66061430  0.02030960  0.95106027  1
  O  O544  1  0.66434059  0.35057097  0.20252559  1
  O  O545  1  0.66430310  0.35153799  0.45337361  1
  O  O546  1  0.66284026  0.35164716  0.70222507  1
  O  O547  1  0.66451824  0.35032563  0.95242914  1
  O  O548  1  0.66208828  0.68456456  0.20161242  1
  O  O549  1  0.66202294  0.68342797  0.45430183  1
  O  O550  1  0.66007659  0.68617648  0.70243758  1
  O  O551  1  0.66078599  0.68490689  0.95160233  1
  O  O552  1  0.33636233  0.31391827  0.04851091  1
  O  O553  1  0.33866795  0.31400584  0.29759304  1
  O  O554  1  0.33682917  0.31526895  0.54813040  1
  O  O555  1  0.33602025  0.31529325  0.79686443  1
  O  O556  1  0.33563616  0.64860199  0.04729492  1
  O  O557  1  0.33842124  0.64840452  0.29836870  1
  O  O558  1  0.33944674  0.64709153  0.54800158  1
  O  O559  1  0.33918226  0.64826197  0.79734192  1
  O  O560  1  0.33619405  0.98257786  0.04574435  1
  O  O561  1  0.33812018  0.98273579  0.29675165  1
  O  O562  1  0.33840787  0.98290346  0.54809483  1
  O  O563  1  0.33815856  0.98200111  0.79707227  1
  O  O564  1  0.83699414  0.31506556  0.04741250  1
  O  O565  1  0.83757104  0.31499882  0.29711284  1
  O  O566  1  0.83727075  0.31483604  0.54834751  1
  O  O567  1  0.83920633  0.31355475  0.79678597  1
  O  O568  1  0.83941889  0.64752554  0.04732741  1
  O  O569  1  0.83817160  0.64774980  0.29737579  1
  O  O570  1  0.83677877  0.64748440  0.54905088  1
  O  O571  1  0.83878413  0.64882478  0.79802172  1
  O  O572  1  0.83708347  0.98210851  0.04664784  1
  O  O573  1  0.83718683  0.98255393  0.29703609  1
  O  O574  1  0.83805345  0.98280539  0.54819995  1
  O  O575  1  0.83651995  0.98281308  0.79737231  1
  O  O576  1  0.41127833  0.15006486  0.17201318  1
  O  O577  1  0.41254386  0.14861975  0.42310707  1
  O  O578  1  0.41039823  0.14953786  0.67259203  1
  O  O579  1  0.41126782  0.14726731  0.92297965  1
  O  O580  1  0.41249807  0.48052728  0.17213670  1
  O  O581  1  0.41175353  0.48205145  0.42297018  1
  O  O582  1  0.41004938  0.48098554  0.67162872  1
  O  O583  1  0.41139580  0.48245239  0.92142187  1
  O  O584  1  0.41451624  0.81513692  0.17258155  1
  O  O585  1  0.41244127  0.81416764  0.42264727  1
  O  O586  1  0.41286237  0.81501291  0.67354121  1
  O  O587  1  0.41275356  0.81567690  0.92174844  1
  O  O588  1  0.91191004  0.14968429  0.17259633  1
  O  O589  1  0.91124629  0.14841504  0.42369952  1
  O  O590  1  0.91264391  0.14893665  0.67281266  1
  O  O591  1  0.91473887  0.14791662  0.92186158  1
  O  O592  1  0.91023929  0.48117807  0.17161574  1
  O  O593  1  0.91207928  0.48140491  0.42305523  1
  O  O594  1  0.91348579  0.48104394  0.67146997  1
  O  O595  1  0.91202787  0.48229674  0.92205257  1
  O  O596  1  0.91294904  0.81461935  0.17237778  1
  O  O597  1  0.91413549  0.81487388  0.42345979  1
  O  O598  1  0.91284047  0.81546231  0.67313550  1
  O  O599  1  0.91467215  0.81492572  0.92285302  1
  O  O600  1  0.08613621  0.18488710  0.07694946  1
  O  O601  1  0.08809189  0.18572036  0.32817306  1
  O  O602  1  0.08808891  0.18437438  0.57758125  1
  O  O603  1  0.08940842  0.18391885  0.82701793  1
  O  O604  1  0.08603844  0.51759582  0.07636264  1
  O  O605  1  0.08736192  0.51768886  0.32802026  1
  O  O606  1  0.08582221  0.51725322  0.57735585  1
  O  O607  1  0.08716748  0.51877476  0.82721434  1
  O  O608  1  0.08888117  0.85251085  0.07682038  1
  O  O609  1  0.08743021  0.85084360  0.32874206  1
  O  O610  1  0.08703380  0.85289991  0.57833717  1
  O  O611  1  0.09013381  0.85141090  0.82747898  1
  O  O612  1  0.58754543  0.18515260  0.07686951  1
  O  O613  1  0.58920759  0.18364911  0.32796632  1
  O  O614  1  0.58606619  0.18510921  0.57680284  1
  O  O615  1  0.58731148  0.18365704  0.82810722  1
  O  O616  1  0.58729254  0.51839251  0.07669206  1
  O  O617  1  0.58682078  0.51741676  0.32782529  1
  O  O618  1  0.58612207  0.51892807  0.57658101  1
  O  O619  1  0.58540040  0.51853608  0.82652178  1
  O  O620  1  0.58668447  0.85105023  0.07770783  1
  O  O621  1  0.58834254  0.85350703  0.32844207  1
  O  O622  1  0.58561497  0.85103629  0.57880453  1
  O  O623  1  0.58677534  0.85269520  0.82691699  1
  O  O624  1  0.33622205  0.18406823  0.04726352  1
  O  O625  1  0.33824977  0.18388356  0.29680174  1
  O  O626  1  0.33703504  0.18539075  0.54826327  1
  O  O627  1  0.33639975  0.18513387  0.79682794  1
  O  O628  1  0.33568553  0.51845539  0.04720600  1
  O  O629  1  0.33872644  0.51845893  0.29842754  1
  O  O630  1  0.33873734  0.51695210  0.54699590  1
  O  O631  1  0.33941895  0.51792563  0.79657404  1
  O  O632  1  0.33619083  0.85238228  0.04688806  1
  O  O633  1  0.33741736  0.85250753  0.29761678  1
  O  O634  1  0.33899794  0.85277046  0.54872362  1
  O  O635  1  0.33779243  0.85184693  0.79792071  1
  O  O636  1  0.83705448  0.18510718  0.04794710  1
  O  O637  1  0.83746150  0.18490329  0.29738678  1
  O  O638  1  0.83716238  0.18486561  0.54830504  1
  O  O639  1  0.83856142  0.18334645  0.79669602  1
  O  O640  1  0.83935564  0.51732312  0.04596061  1
  O  O641  1  0.83835418  0.51743701  0.29622821  1
  O  O642  1  0.83686342  0.51749407  0.54825177  1
  O  O643  1  0.83955912  0.51880366  0.79752681  1
  O  O644  1  0.83645293  0.85190345  0.04726764  1
  O  O645  1  0.83696556  0.85220050  0.29780647  1
  O  O646  1  0.83823149  0.85262567  0.54930196  1
  O  O647  1  0.83648621  0.85270487  0.79791682  1
  O  O648  1  0.16463396  0.14844340  0.20196976  1
  O  O649  1  0.16351005  0.14933378  0.45358110  1
  O  O650  1  0.16221816  0.14809066  0.70210948  1
  O  O651  1  0.16284097  0.14886580  0.95204893  1
  O  O652  1  0.16185505  0.48170927  0.20301776  1
  O  O653  1  0.16243932  0.48055939  0.45212341  1
  O  O654  1  0.16305684  0.48125188  0.70079552  1
  O  O655  1  0.16247337  0.48171166  0.95234179  1
  O  O656  1  0.16212854  0.81519178  0.20317391  1
  O  O657  1  0.16223562  0.81505769  0.45262856  1
  O  O658  1  0.16423009  0.81571286  0.70298335  1
  O  O659  1  0.16136730  0.81481049  0.95182021  1
  O  O660  1  0.66305496  0.14958121  0.20328519  1
  O  O661  1  0.66359834  0.14960127  0.45283630  1
  O  O662  1  0.66257840  0.14731892  0.70234914  1
  O  O663  1  0.66194538  0.15029159  0.95207054  1
  O  O664  1  0.66454482  0.48071027  0.20166472  1
  O  O665  1  0.66474217  0.48180942  0.45284287  1
  O  O666  1  0.66296475  0.48172582  0.70229487  1
  O  O667  1  0.66465355  0.48048867  0.95150207  1
  O  O668  1  0.66156586  0.81460461  0.20179171  1
  O  O669  1  0.66142796  0.81395995  0.45403002  1
  O  O670  1  0.66037134  0.81634812  0.70300227  1
  O  O671  1  0.66052890  0.81492693  0.95172445  1
