# generated using pymatgen
data_Na2MnFe(PO4)2
_symmetry_space_group_name_H-M   'P 1'
_cell_length_a   21.07983100
_cell_length_b   18.93140310
_cell_length_c   20.03950024
_cell_angle_alpha   90.00009905
_cell_angle_beta   90.00191316
_cell_angle_gamma   90.00227307
_symmetry_Int_Tables_number   1
_chemical_formula_structural   Na2MnFe(PO4)2
_chemical_formula_sum   'Na96 Mn48 Fe48 P96 O384'
_cell_volume   7997.17893768
_cell_formula_units_Z   48
loop_
 _symmetry_equiv_pos_site_id
 _symmetry_equiv_pos_as_xyz
  1  'x, y, z'
loop_
 _atom_site_type_symbol
 _atom_site_label
 _atom_site_symmetry_multiplicity
 _atom_site_fract_x
 _atom_site_fract_y
 _atom_site_fract_z
 _atom_site_occupancy
  Na  Na0  1  -0.00092472  0.00008450  -0.00095501  1
  Na  Na1  1  -0.00226316  -0.00099327  0.25029104  1
  Na  Na2  1  -0.00044670  -0.00000601  0.50047617  1
  Na  Na3  1  -0.00130402  -0.00026880  0.74972179  1
  Na  Na4  1  -0.00139680  0.33217566  0.00071023  1
  Na  Na5  1  0.00167808  0.33376750  0.24888320  1
  Na  Na6  1  0.00202575  0.33396401  0.50063097  1
  Na  Na7  1  0.00109369  0.33417548  0.75042209  1
  Na  Na8  1  0.00094777  0.66650504  -0.00065781  1
  Na  Na9  1  0.00221981  0.66726829  0.25020368  1
  Na  Na10  1  -0.00110266  0.66624430  0.49989482  1
  Na  Na11  1  -0.00028452  0.66679143  0.75104830  1
  Na  Na12  1  0.50178596  0.00040253  0.00093245  1
  Na  Na13  1  0.50011631  -0.00014809  0.24991044  1
  Na  Na14  1  0.50107933  -0.00043425  0.49926614  1
  Na  Na15  1  0.50209552  -0.00059457  0.75061971  1
  Na  Na16  1  0.49704340  0.33318463  -0.00060589  1
  Na  Na17  1  0.49823480  0.33405539  0.24928860  1
  Na  Na18  1  0.49888935  0.33352729  0.50103515  1
  Na  Na19  1  0.49861688  0.33283448  0.74941011  1
  Na  Na20  1  0.49883513  0.66676929  0.00004237  1
  Na  Na21  1  0.49894309  0.66708226  0.24989953  1
  Na  Na22  1  0.49915077  0.66713756  0.49968605  1
  Na  Na23  1  0.49802504  0.66639056  0.74996008  1
  Na  Na24  1  0.25119605  0.00088037  0.12476677  1
  Na  Na25  1  0.25133550  0.00001899  0.37520393  1
  Na  Na26  1  0.25087585  0.00018825  0.62522614  1
  Na  Na27  1  0.24949571  -0.00034009  0.87535194  1
  Na  Na28  1  0.25244308  0.33405258  0.12465616  1
  Na  Na29  1  0.25106600  0.33351835  0.37509134  1
  Na  Na30  1  0.24991435  0.33356909  0.62470106  1
  Na  Na31  1  0.25102478  0.33372419  0.87556581  1
  Na  Na32  1  0.24980732  0.66696551  0.12492348  1
  Na  Na33  1  0.25024161  0.66692680  0.37476303  1
  Na  Na34  1  0.25067185  0.66769240  0.62490293  1
  Na  Na35  1  0.24942286  0.66649380  0.87451090  1
  Na  Na36  1  0.75009376  -0.00050932  0.12435679  1
  Na  Na37  1  0.74924562  -0.00111423  0.37410763  1
  Na  Na38  1  0.74971620  -0.00029188  0.62532259  1
  Na  Na39  1  0.74948358  -0.00034990  0.87554738  1
  Na  Na40  1  0.75020974  0.33362247  0.12515989  1
  Na  Na41  1  0.74834584  0.33314698  0.37328448  1
  Na  Na42  1  0.74956924  0.33346593  0.62454401  1
  Na  Na43  1  0.75216383  0.33434101  0.87665019  1
  Na  Na44  1  0.75031215  0.66692797  0.12594812  1
  Na  Na45  1  0.74954977  0.66640694  0.37354760  1
  Na  Na46  1  0.75164420  0.66743646  0.62490589  1
  Na  Na47  1  0.75124500  0.66705846  0.87655315  1
  Na  Na48  1  -0.00113299  0.16703755  -0.00019448  1
  Na  Na49  1  0.00100357  0.16617924  0.25023854  1
  Na  Na50  1  -0.00030913  0.16733503  0.49990218  1
  Na  Na51  1  -0.00113231  0.16763783  0.75009278  1
  Na  Na52  1  0.00098011  0.49954827  0.00032244  1
  Na  Na53  1  0.00153482  0.50003433  0.24883791  1
  Na  Na54  1  0.00274846  0.49898773  0.50006516  1
  Na  Na55  1  0.00004982  0.49975974  0.75158211  1
  Na  Na56  1  -0.00059194  0.83373253  -0.00082255  1
  Na  Na57  1  -0.00116744  0.83351386  0.25014495  1
  Na  Na58  1  -0.00182340  0.83355950  0.50104512  1
  Na  Na59  1  -0.00013894  0.83313050  0.74917304  1
  Na  Na60  1  0.49782731  0.16775954  0.00030194  1
  Na  Na61  1  0.49658464  0.16779712  0.24950473  1
  Na  Na62  1  0.49930994  0.16713835  0.50048148  1
  Na  Na63  1  0.50140871  0.16589955  0.74976155  1
  Na  Na64  1  0.49793143  0.49976442  -0.00110688  1
  Na  Na65  1  0.49873725  0.49921949  0.24992955  1
  Na  Na66  1  0.49803850  0.49991245  0.49979632  1
  Na  Na67  1  0.49763862  0.49980133  0.75025265  1
  Na  Na68  1  0.50041464  0.83366221  0.00072892  1
  Na  Na69  1  0.50205147  0.83231879  0.24975759  1
  Na  Na70  1  0.50075881  0.83357577  0.49966852  1
  Na  Na71  1  0.50125457  0.83349686  0.75025504  1
  Na  Na72  1  0.25108104  0.16673407  0.12410975  1
  Na  Na73  1  0.25063795  0.16666655  0.37444859  1
  Na  Na74  1  0.24878632  0.16764020  0.62434934  1
  Na  Na75  1  0.25114442  0.16612913  0.87622977  1
  Na  Na76  1  0.25066661  0.49965944  0.12576165  1
  Na  Na77  1  0.25011170  0.50019751  0.37477959  1
  Na  Na78  1  0.25107162  0.49884803  0.62562715  1
  Na  Na79  1  0.24959304  0.49981273  0.87386178  1
  Na  Na80  1  0.25064787  0.83291042  0.12490015  1
  Na  Na81  1  0.25238251  0.83232395  0.37567769  1
  Na  Na82  1  0.24927896  0.83417978  0.62527926  1
  Na  Na83  1  0.25008853  0.83288913  0.87514412  1
  Na  Na84  1  0.75229905  0.16629922  0.12423319  1
  Na  Na85  1  0.75165268  0.16639572  0.37456651  1
  Na  Na86  1  0.75061191  0.16670537  0.62579304  1
  Na  Na87  1  0.75058898  0.16713983  0.87604328  1
  Na  Na88  1  0.75084252  0.49883470  0.12605759  1
  Na  Na89  1  0.74751833  0.50053493  0.37311584  1
  Na  Na90  1  0.75090983  0.49922032  0.62454249  1
  Na  Na91  1  0.75160999  0.49913946  0.87633370  1
  Na  Na92  1  0.74756937  0.83450283  0.12510730  1
  Na  Na93  1  0.74903735  0.83342067  0.37321232  1
  Na  Na94  1  0.74960236  0.83339970  0.62443207  1
  Na  Na95  1  0.75036462  0.83318015  0.87655400  1
  Mn  Mn96  1  0.89204400  0.58271643  0.62704987  1
  Mn  Mn97  1  0.14268441  0.91658352  0.49767616  1
  Mn  Mn98  1  0.85752868  0.08313534  0.50218273  1
  Mn  Mn99  1  0.89292129  0.58303028  0.37686129  1
  Mn  Mn100  1  0.64204929  0.25003765  0.99800304  1
  Mn  Mn101  1  0.35798128  0.08364596  0.75272338  1
  Mn  Mn102  1  0.89150203  0.91643049  0.62755352  1
  Mn  Mn103  1  0.60789346  0.08428102  0.37177083  1
  Mn  Mn104  1  0.10832828  0.41631048  0.12228962  1
  Mn  Mn105  1  0.60825550  0.74927054  0.62297622  1
  Mn  Mn106  1  0.39260563  0.91744146  0.87718150  1
  Mn  Mn107  1  0.10776279  0.08311429  0.37218292  1
  Mn  Mn108  1  0.64146638  0.24907865  0.24733223  1
  Mn  Mn109  1  0.85810502  0.41721144  0.50108674  1
  Mn  Mn110  1  0.64166062  0.24993907  0.49698916  1
  Mn  Mn111  1  0.39267394  0.91641842  0.12740842  1
  Mn  Mn112  1  0.14291029  0.25046759  0.99782172  1
  Mn  Mn113  1  0.85770627  0.41630563  0.25246196  1
  Mn  Mn114  1  0.85766847  0.75025581  0.25157758  1
  Mn  Mn115  1  0.60739760  0.41610743  0.87273035  1
  Mn  Mn116  1  0.14207407  0.58318082  0.74694048  1
  Mn  Mn117  1  0.10791727  0.75008593  0.37331221  1
  Mn  Mn118  1  0.14265654  0.24994048  0.49748436  1
  Mn  Mn119  1  0.64102777  0.58348800  0.24667040  1
  Mn  Mn120  1  0.35852061  0.08275557  0.50274614  1
  Mn  Mn121  1  0.10744956  0.08328049  0.62333336  1
  Mn  Mn122  1  0.14196560  0.91644549  0.99815505  1
  Mn  Mn123  1  0.39170344  0.58323050  0.37728426  1
  Mn  Mn124  1  0.60730856  0.08432086  0.12286096  1
  Mn  Mn125  1  0.89242765  0.58290110  0.87793774  1
  Mn  Mn126  1  0.60754783  0.41715253  0.62350140  1
  Mn  Mn127  1  0.39318458  0.91693671  0.37677488  1
  Mn  Mn128  1  0.64206455  0.58306216  0.99864420  1
  Mn  Mn129  1  0.85791965  0.74946233  0.00346181  1
  Mn  Mn130  1  0.35720844  0.75039195  0.75199590  1
  Mn  Mn131  1  0.39190080  0.24928471  0.62833568  1
  Mn  Mn132  1  0.60779948  0.74983333  0.87266211  1
  Mn  Mn133  1  0.39115113  0.58325004  0.87786216  1
  Mn  Mn134  1  0.10757019  0.75038592  0.87275949  1
  Mn  Mn135  1  0.64251762  0.58301027  0.74774756  1
  Mn  Mn136  1  0.64140858  0.58361283  0.49784357  1
  Mn  Mn137  1  0.14192496  0.91695121  0.24774364  1
  Mn  Mn138  1  0.10758495  0.08380890  0.87260431  1
  Mn  Mn139  1  0.89313419  0.25070070  0.37683905  1
  Mn  Mn140  1  0.60878638  0.08311314  0.62307134  1
  Mn  Mn141  1  0.14295286  0.58374992  0.49838075  1
  Mn  Mn142  1  0.85787586  0.08368299  0.00253269  1
  Mn  Mn143  1  0.89209570  0.25100640  0.62749188  1
  Fe  Fe144  1  0.39212837  0.25004483  0.37635656  1
  Fe  Fe145  1  0.39161118  0.58331651  0.12636583  1
  Fe  Fe146  1  0.60727836  0.74927744  0.37320640  1
  Fe  Fe147  1  0.14248469  0.24947857  0.74923977  1
  Fe  Fe148  1  0.35828093  0.74992310  0.50254998  1
  Fe  Fe149  1  0.39189906  0.25046409  0.12687431  1
  Fe  Fe150  1  0.35699059  0.08304896  0.25156878  1
  Fe  Fe151  1  0.89337867  0.24957941  0.12746009  1
  Fe  Fe152  1  0.60751781  0.08416454  0.87368713  1
  Fe  Fe153  1  0.14197283  0.91729213  0.74813113  1
  Fe  Fe154  1  0.85803658  0.08332219  0.25112623  1
  Fe  Fe155  1  0.14350188  0.58338066  0.24790167  1
  Fe  Fe156  1  0.14325007  0.58329790  0.99921168  1
  Fe  Fe157  1  0.89410882  0.58355256  0.12680848  1
  Fe  Fe158  1  0.39345270  0.91633951  0.62717284  1
  Fe  Fe159  1  0.35721114  0.74985813  0.00208670  1
  Fe  Fe160  1  0.85765897  0.75007316  0.75159390  1
  Fe  Fe161  1  0.60587961  0.41676207  0.37350584  1
  Fe  Fe162  1  0.10744107  0.41595491  0.87372666  1
  Fe  Fe163  1  0.64338013  0.91730470  0.24787070  1
  Fe  Fe164  1  0.10722504  0.08265347  0.12390460  1
  Fe  Fe165  1  0.10667095  0.74969021  0.62304338  1
  Fe  Fe166  1  0.64333496  0.25031512  0.74956013  1
  Fe  Fe167  1  0.85803041  0.41710923  0.00253037  1
  Fe  Fe168  1  0.10791249  0.75086659  0.12367815  1
  Fe  Fe169  1  0.89247074  0.25012606  0.87627441  1
  Fe  Fe170  1  0.35805807  0.08285928  0.00192573  1
  Fe  Fe171  1  0.35688304  0.41721867  0.00160229  1
  Fe  Fe172  1  0.10776439  0.41717938  0.62370646  1
  Fe  Fe173  1  0.89176520  0.91632042  0.37691865  1
  Fe  Fe174  1  0.14394075  0.24981825  0.24807148  1
  Fe  Fe175  1  0.60625421  0.74872803  0.12313307  1
  Fe  Fe176  1  0.64371679  0.91669502  0.74864001  1
  Fe  Fe177  1  0.35635033  0.41600838  0.75165509  1
  Fe  Fe178  1  0.85671298  0.74967830  0.50097655  1
  Fe  Fe179  1  0.35716634  0.41720007  0.50212905  1
  Fe  Fe180  1  0.10909754  0.41660655  0.37290157  1
  Fe  Fe181  1  0.39202183  0.58395191  0.62670267  1
  Fe  Fe182  1  0.35696361  0.41675883  0.25204324  1
  Fe  Fe183  1  0.39238583  0.24910290  0.87589718  1
  Fe  Fe184  1  0.64275139  0.91615470  0.49807840  1
  Fe  Fe185  1  0.89210146  0.91708807  0.87614482  1
  Fe  Fe186  1  0.35727363  0.75043781  0.25156550  1
  Fe  Fe187  1  0.64295038  0.91679732  0.99830107  1
  Fe  Fe188  1  0.85687238  0.08360242  0.75215925  1
  Fe  Fe189  1  0.85828453  0.41643160  0.75207162  1
  Fe  Fe190  1  0.60545686  0.41701667  0.12311982  1
  Fe  Fe191  1  0.89249863  0.91650669  0.12628404  1
  P  P192  1  0.05412198  0.24870882  0.11125519  1
  P  P193  1  0.05499384  0.25084367  0.35888442  1
  P  P194  1  0.05482841  0.25084229  0.61150489  1
  P  P195  1  0.05275922  0.25077915  0.86012108  1
  P  P196  1  0.05506339  0.58416758  0.11055486  1
  P  P197  1  0.05510952  0.58265597  0.35922922  1
  P  P198  1  0.05346706  0.58345151  0.61038528  1
  P  P199  1  0.05527266  0.58219428  0.86179437  1
  P  P200  1  0.05195890  0.91693691  0.11015028  1
  P  P201  1  0.05160935  0.91623172  0.36018127  1
  P  P202  1  0.05422419  0.91603356  0.61102852  1
  P  P203  1  0.05239826  0.91700497  0.85917633  1
  P  P204  1  0.55119579  0.25125873  0.10993493  1
  P  P205  1  0.55126450  0.25110380  0.35952345  1
  P  P206  1  0.55469722  0.25017551  0.61145077  1
  P  P207  1  0.55251890  0.24940727  0.85966847  1
  P  P208  1  0.55086878  0.58278187  0.10987776  1
  P  P209  1  0.55273702  0.58319888  0.35983683  1
  P  P210  1  0.55137905  0.58318580  0.61007255  1
  P  P211  1  0.55270283  0.58302096  0.85982133  1
  P  P212  1  0.55564490  0.91597671  0.11098806  1
  P  P213  1  0.55593318  0.91578486  0.36012824  1
  P  P214  1  0.55498154  0.91626355  0.61052840  1
  P  P215  1  0.55563315  0.91763807  0.86098400  1
  P  P216  1  0.44473454  0.08383405  0.13954621  1
  P  P217  1  0.44562416  0.08408681  0.38870610  1
  P  P218  1  0.44735836  0.08167619  0.64052064  1
  P  P219  1  0.44762607  0.08378417  0.89059422  1
  P  P220  1  0.44437909  0.41722189  0.13893672  1
  P  P221  1  0.44493434  0.41581850  0.38940122  1
  P  P222  1  0.44423513  0.41754505  0.63979235  1
  P  P223  1  0.44400419  0.41518336  0.88898865  1
  P  P224  1  0.44544688  0.74922243  0.13938951  1
  P  P225  1  0.44614839  0.75024907  0.38924199  1
  P  P226  1  0.44579622  0.75055482  0.63905787  1
  P  P227  1  0.44574404  0.75061658  0.89089610  1
  P  P228  1  0.94717854  0.08314663  0.14023428  1
  P  P229  1  0.94546461  0.08273976  0.38894729  1
  P  P230  1  0.94541170  0.08365064  0.64091270  1
  P  P231  1  0.94490493  0.08354622  0.88850377  1
  P  P232  1  0.94586697  0.41681418  0.13878889  1
  P  P233  1  0.94936706  0.41676994  0.38966870  1
  P  P234  1  0.94776408  0.41700809  0.64081612  1
  P  P235  1  0.94611389  0.41559355  0.89008685  1
  P  P236  1  0.94829802  0.74963371  0.13970629  1
  P  P237  1  0.94583308  0.75048133  0.39054146  1
  P  P238  1  0.94570280  0.74949937  0.63952417  1
  P  P239  1  0.94503724  0.75099144  0.88895957  1
  P  P240  1  0.19744590  0.08404110  0.23429427  1
  P  P241  1  0.19699062  0.08309508  0.48468478  1
  P  P242  1  0.19667849  0.08381066  0.73537731  1
  P  P243  1  0.19668537  0.08326637  0.98646966  1
  P  P244  1  0.19702925  0.41622646  0.23605334  1
  P  P245  1  0.19658513  0.41709863  0.48554396  1
  P  P246  1  0.19572836  0.41509787  0.73599254  1
  P  P247  1  0.19742600  0.41753350  0.98472401  1
  P  P248  1  0.19727777  0.74982109  0.23481537  1
  P  P249  1  0.19746885  0.75001210  0.48623992  1
  P  P250  1  0.19531938  0.75098336  0.73428663  1
  P  P251  1  0.19650329  0.74935830  0.98636401  1
  P  P252  1  0.69821243  0.08291617  0.23435354  1
  P  P253  1  0.69660335  0.08252386  0.48453387  1
  P  P254  1  0.69675796  0.08384715  0.73720987  1
  P  P255  1  0.69588192  0.08305486  0.98481464  1
  P  P256  1  0.69371276  0.41624916  0.23491488  1
  P  P257  1  0.69576384  0.41696182  0.48354913  1
  P  P258  1  0.69840222  0.41582558  0.73566196  1
  P  P259  1  0.69634856  0.41674043  0.98671220  1
  P  P260  1  0.69429880  0.75074132  0.23516724  1
  P  P261  1  0.69695228  0.75034543  0.48388556  1
  P  P262  1  0.69825250  0.75044618  0.73552079  1
  P  P263  1  0.69517458  0.75008097  0.98687384  1
  P  P264  1  0.30570443  0.25000249  0.01397690  1
  P  P265  1  0.30439931  0.24991787  0.26392332  1
  P  P266  1  0.30493488  0.25079057  0.51385733  1
  P  P267  1  0.30229809  0.25036320  0.76577103  1
  P  P268  1  0.30258849  0.58325110  0.01541808  1
  P  P269  1  0.30369126  0.58370871  0.26346376  1
  P  P270  1  0.30433937  0.58338254  0.51557103  1
  P  P271  1  0.30415461  0.58284525  0.76364890  1
  P  P272  1  0.30367453  0.91657578  0.01500070  1
  P  P273  1  0.30345283  0.91657704  0.26480340  1
  P  P274  1  0.30485333  0.91575229  0.51589398  1
  P  P275  1  0.30287609  0.91681294  0.76420941  1
  P  P276  1  0.80563710  0.25108676  0.01486614  1
  P  P277  1  0.80463524  0.24917256  0.26361368  1
  P  P278  1  0.80317344  0.25056167  0.51477657  1
  P  P279  1  0.80301910  0.25040524  0.76588967  1
  P  P280  1  0.80432433  0.58237268  0.01683874  1
  P  P281  1  0.80440803  0.58341583  0.26354808  1
  P  P282  1  0.80297201  0.58395607  0.51422536  1
  P  P283  1  0.80373379  0.58314574  0.76546861  1
  P  P284  1  0.80399351  0.91673603  0.01464334  1
  P  P285  1  0.80465954  0.91730915  0.26366674  1
  P  P286  1  0.80308508  0.91545904  0.51351082  1
  P  P287  1  0.80282198  0.91655895  0.76566067  1
  O  O288  1  0.05959090  0.24959219  0.18783760  1
  O  O289  1  0.05760871  0.25017895  0.43577204  1
  O  O290  1  0.05869891  0.25002477  0.68824859  1
  O  O291  1  0.05660406  0.24991381  0.93686540  1
  O  O292  1  0.06004896  0.58346832  0.18727552  1
  O  O293  1  0.05789629  0.58336273  0.43604972  1
  O  O294  1  0.05575427  0.58365965  0.68722340  1
  O  O295  1  0.05958834  0.58281358  0.93854441  1
  O  O296  1  0.05554979  0.91677257  0.18684440  1
  O  O297  1  0.05587643  0.91638245  0.43687360  1
  O  O298  1  0.05840217  0.91693219  0.68777732  1
  O  O299  1  0.05649702  0.91702122  0.93593816  1
  O  O300  1  0.55508282  0.25028570  0.18659540  1
  O  O301  1  0.55496753  0.25021948  0.43626642  1
  O  O302  1  0.55976975  0.25009469  0.68816440  1
  O  O303  1  0.55601867  0.25046790  0.93639814  1
  O  O304  1  0.55433544  0.58288346  0.18660445  1
  O  O305  1  0.55541152  0.58337602  0.43661276  1
  O  O306  1  0.55565331  0.58315766  0.68677601  1
  O  O307  1  0.55636334  0.58298285  0.93657598  1
  O  O308  1  0.55943726  0.91720901  0.18778963  1
  O  O309  1  0.55953177  0.91646224  0.43698278  1
  O  O310  1  0.56032989  0.91619842  0.68727741  1
  O  O311  1  0.55937334  0.91674302  0.93779670  1
  O  O312  1  0.44114344  0.08280568  0.06272544  1
  O  O313  1  0.44109834  0.08319293  0.31193719  1
  O  O314  1  0.44431789  0.08247457  0.56371935  1
  O  O315  1  0.44411359  0.08268143  0.81384056  1
  O  O316  1  0.44017748  0.41743336  0.06217796  1
  O  O317  1  0.44028531  0.41665537  0.31259801  1
  O  O318  1  0.44070799  0.41676887  0.56295257  1
  O  O319  1  0.43989622  0.41600904  0.81222996  1
  O  O320  1  0.44064828  0.75004305  0.06268131  1
  O  O321  1  0.44112820  0.75037887  0.31250842  1
  O  O322  1  0.44240321  0.75064710  0.56222241  1
  O  O323  1  0.44236385  0.75074456  0.81408615  1
  O  O324  1  0.94381624  0.08330661  0.06344245  1
  O  O325  1  0.94154059  0.08314605  0.31217238  1
  O  O326  1  0.94262315  0.08361449  0.56405279  1
  O  O327  1  0.94071158  0.08358032  0.81176798  1
  O  O328  1  0.94224216  0.41677250  0.06201409  1
  O  O329  1  0.94478643  0.41677356  0.31299681  1
  O  O330  1  0.94377520  0.41678487  0.56411971  1
  O  O331  1  0.94150673  0.41645727  0.81333856  1
  O  O332  1  0.94481194  0.74945474  0.06297199  1
  O  O333  1  0.94299797  0.74994946  0.31373122  1
  O  O334  1  0.94068943  0.74964926  0.56287685  1
  O  O335  1  0.94095419  0.75040519  0.81218051  1
  O  O336  1  0.19126475  0.08321431  0.06308001  1
  O  O337  1  0.19375174  0.08313906  0.31102681  1
  O  O338  1  0.19310918  0.08316406  0.56142288  1
  O  O339  1  0.19398193  0.08351658  0.81223644  1
  O  O340  1  0.19398895  0.41652892  0.06152785  1
  O  O341  1  0.19302663  0.41630422  0.31275905  1
  O  O342  1  0.19176117  0.41693074  0.56224870  1
  O  O343  1  0.19129249  0.41588352  0.81269867  1
  O  O344  1  0.19151583  0.75051616  0.06304198  1
  O  O345  1  0.19376960  0.75052883  0.31154936  1
  O  O346  1  0.19174684  0.75018716  0.56278825  1
  O  O347  1  0.19258836  0.75024739  0.81118149  1
  O  O348  1  0.69282483  0.08406671  0.06160010  1
  O  O349  1  0.69427070  0.08399892  0.31105419  1
  O  O350  1  0.69399876  0.08331235  0.56140001  1
  O  O351  1  0.69235072  0.08403994  0.81385857  1
  O  O352  1  0.69029994  0.41662566  0.06328477  1
  O  O353  1  0.68871577  0.41638373  0.31163451  1
  O  O354  1  0.69275981  0.41702596  0.56039706  1
  O  O355  1  0.69445105  0.41646761  0.81238055  1
  O  O356  1  0.69053145  0.74900615  0.06359483  1
  O  O357  1  0.69049876  0.74915859  0.31191645  1
  O  O358  1  0.69368189  0.74960778  0.56069157  1
  O  O359  1  0.69450837  0.74975715  0.81222246  1
  O  O360  1  0.30846354  0.25026871  0.18712246  1
  O  O361  1  0.30870289  0.25001916  0.43705938  1
  O  O362  1  0.30567457  0.24964340  0.68899392  1
  O  O363  1  0.30919395  0.24945973  0.93721536  1
  O  O364  1  0.30793927  0.58358309  0.18677385  1
  O  O365  1  0.30653384  0.58354940  0.43869129  1
  O  O366  1  0.30812781  0.58366342  0.68692878  1
  O  O367  1  0.30546090  0.58337605  0.93862590  1
  O  O368  1  0.30635237  0.91651371  0.18806797  1
  O  O369  1  0.30810313  0.91634927  0.43908534  1
  O  O370  1  0.30827844  0.91693612  0.68764497  1
  O  O371  1  0.30638765  0.91667614  0.93822612  1
  O  O372  1  0.80924929  0.25004054  0.18684016  1
  O  O373  1  0.80673600  0.25082567  0.43798800  1
  O  O374  1  0.80611053  0.25056746  0.68912741  1
  O  O375  1  0.80960493  0.25042538  0.93809522  1
  O  O376  1  0.80979829  0.58342868  0.18691218  1
  O  O377  1  0.80602732  0.58298095  0.43745744  1
  O  O378  1  0.80622384  0.58300056  0.68866267  1
  O  O379  1  0.80736894  0.58304262  0.93997442  1
  O  O380  1  0.80943712  0.91638087  0.18690432  1
  O  O381  1  0.80743975  0.91609511  0.43681866  1
  O  O382  1  0.80584357  0.91650963  0.68879728  1
  O  O383  1  0.80878057  0.91667049  0.93801022  1
  O  O384  1  0.23567032  0.25048814  0.03851711  1
  O  O385  1  0.23411960  0.24989091  0.28803647  1
  O  O386  1  0.23500726  0.25056937  0.53831119  1
  O  O387  1  0.23241679  0.24983891  0.79082020  1
  O  O388  1  0.23267848  0.58309041  0.04057761  1
  O  O389  1  0.23348798  0.58364415  0.28779241  1
  O  O390  1  0.23484987  0.58341123  0.54135069  1
  O  O391  1  0.23416383  0.58324045  0.78797538  1
  O  O392  1  0.23405976  0.91682704  0.04051523  1
  O  O393  1  0.23390533  0.91636404  0.29048955  1
  O  O394  1  0.23499137  0.91686178  0.54050420  1
  O  O395  1  0.23248339  0.91653308  0.78785995  1
  O  O396  1  0.73544595  0.25005721  0.03883178  1
  O  O397  1  0.73451642  0.24969421  0.28750324  1
  O  O398  1  0.73346608  0.25020147  0.53972599  1
  O  O399  1  0.73308635  0.25056445  0.79118117  1
  O  O400  1  0.73454514  0.58279334  0.04173411  1
  O  O401  1  0.73400793  0.58338310  0.28649773  1
  O  O402  1  0.73343454  0.58372514  0.53989170  1
  O  O403  1  0.73433561  0.58302079  0.79167694  1
  O  O404  1  0.73353448  0.91702065  0.03798561  1
  O  O405  1  0.73416065  0.91643746  0.28696305  1
  O  O406  1  0.73293393  0.91604225  0.53787067  1
  O  O407  1  0.73277867  0.91658854  0.79049534  1
  O  O408  1  0.26763691  0.08378384  0.21009514  1
  O  O409  1  0.26686521  0.08303775  0.46027330  1
  O  O410  1  0.26620291  0.08415261  0.70964418  1
  O  O411  1  0.26720224  0.08316173  0.96321798  1
  O  O412  1  0.26734047  0.41635810  0.21195716  1
  O  O413  1  0.26696515  0.41725230  0.46195544  1
  O  O414  1  0.26607275  0.41586865  0.71210783  1
  O  O415  1  0.26756566  0.41699404  0.96045637  1
  O  O416  1  0.26745182  0.75012892  0.21042620  1
  O  O417  1  0.26793157  0.74957568  0.46296107  1
  O  O418  1  0.26512164  0.75061330  0.70950812  1
  O  O419  1  0.26683335  0.74956277  0.96253553  1
  O  O420  1  0.76816000  0.08280998  0.20958947  1
  O  O421  1  0.76612713  0.08256004  0.45899373  1
  O  O422  1  0.76698232  0.08343446  0.71274116  1
  O  O423  1  0.76576359  0.08341356  0.96028146  1
  O  O424  1  0.76418184  0.41625128  0.21209041  1
  O  O425  1  0.76544623  0.41699497  0.45820218  1
  O  O426  1  0.76849677  0.41609801  0.71106691  1
  O  O427  1  0.76698820  0.41690068  0.96408708  1
  O  O428  1  0.76444752  0.75081946  0.21105646  1
  O  O429  1  0.76682382  0.74988094  0.45878471  1
  O  O430  1  0.76825898  0.75053685  0.71074793  1
  O  O431  1  0.76534697  0.74995005  0.96319648  1
  O  O432  1  0.01723440  0.08291029  0.16507598  1
  O  O433  1  0.01538149  0.08343364  0.41362194  1
  O  O434  1  0.01511906  0.08356614  0.66591200  1
  O  O435  1  0.01487473  0.08366787  0.91304422  1
  O  O436  1  0.01601008  0.41682400  0.16296628  1
  O  O437  1  0.01950250  0.41653007  0.41380142  1
  O  O438  1  0.01790392  0.41729618  0.66511893  1
  O  O439  1  0.01650811  0.41585849  0.91388073  1
  O  O440  1  0.01828411  0.75024000  0.16467958  1
  O  O441  1  0.01556833  0.75009043  0.41571138  1
  O  O442  1  0.01604852  0.74965495  0.66319629  1
  O  O443  1  0.01510621  0.75035042  0.91313617  1
  O  O444  1  0.51475994  0.08359595  0.16396974  1
  O  O445  1  0.51562617  0.08359081  0.41294671  1
  O  O446  1  0.51701362  0.08220377  0.66562246  1
  O  O447  1  0.51761363  0.08412323  0.91537387  1
  O  O448  1  0.51467756  0.41682168  0.16298058  1
  O  O449  1  0.51525458  0.41677525  0.41322221  1
  O  O450  1  0.51421212  0.41658641  0.66435375  1
  O  O451  1  0.51407985  0.41620088  0.91317204  1
  O  O452  1  0.51591238  0.74955780  0.16281584  1
  O  O453  1  0.51662709  0.75006863  0.41259505  1
  O  O454  1  0.51557286  0.75005757  0.66417041  1
  O  O455  1  0.51558967  0.75039844  0.91546288  1
  O  O456  1  0.48103817  0.25091854  0.08572481  1
  O  O457  1  0.48129263  0.25083997  0.33475228  1
  O  O458  1  0.48444667  0.25033791  0.58803565  1
  O  O459  1  0.48244301  0.24921068  0.83497041  1
  O  O460  1  0.48088984  0.58305740  0.08500138  1
  O  O461  1  0.48308383  0.58328960  0.33442336  1
  O  O462  1  0.48139285  0.58362837  0.58554658  1
  O  O463  1  0.48277057  0.58305922  0.83546909  1
  O  O464  1  0.48550609  0.91661601  0.08691971  1
  O  O465  1  0.48588962  0.91634691  0.33577790  1
  O  O466  1  0.48462263  0.91640872  0.58708182  1
  O  O467  1  0.48559007  0.91670857  0.83663970  1
  O  O468  1  0.98363735  0.24931665  0.08795360  1
  O  O469  1  0.98532260  0.25044782  0.33366868  1
  O  O470  1  0.98493199  0.25054990  0.58679699  1
  O  O471  1  0.98263349  0.25059300  0.83577464  1
  O  O472  1  0.98465016  0.58322213  0.08699079  1
  O  O473  1  0.98542133  0.58340706  0.33395889  1
  O  O474  1  0.98412101  0.58270903  0.58432411  1
  O  O475  1  0.98517202  0.58288230  0.83775613  1
  O  O476  1  0.98193562  0.91685117  0.08520219  1
  O  O477  1  0.98149500  0.91596056  0.33594307  1
  O  O478  1  0.98407279  0.91656790  0.58702798  1
  O  O479  1  0.98220556  0.91684700  0.83509628  1
  O  O480  1  0.08739243  0.31374216  0.07745437  1
  O  O481  1  0.08933872  0.31592983  0.32676398  1
  O  O482  1  0.08845168  0.31629284  0.57908634  1
  O  O483  1  0.08680196  0.31590359  0.82780338  1
  O  O484  1  0.08799213  0.64948750  0.07741378  1
  O  O485  1  0.08975513  0.64759790  0.32685345  1
  O  O486  1  0.08743264  0.64873789  0.57801037  1
  O  O487  1  0.08896070  0.64701633  0.82844483  1
  O  O488  1  0.08573616  0.98214888  0.07755096  1
  O  O489  1  0.08521240  0.98126174  0.32704209  1
  O  O490  1  0.08779829  0.98097686  0.57770537  1
  O  O491  1  0.08626113  0.98205089  0.82638837  1
  O  O492  1  0.58470923  0.31640053  0.07714856  1
  O  O493  1  0.58495770  0.31627093  0.32713466  1
  O  O494  1  0.58788344  0.31524807  0.57809243  1
  O  O495  1  0.58639481  0.31434240  0.82645862  1
  O  O496  1  0.58509224  0.64778732  0.07745546  1
  O  O497  1  0.58694127  0.64827542  0.32743250  1
  O  O498  1  0.58545605  0.64814790  0.57733312  1
  O  O499  1  0.58645117  0.64819934  0.82717771  1
  O  O500  1  0.58963675  0.98068120  0.07754849  1
  O  O501  1  0.58997348  0.98060808  0.32680176  1
  O  O502  1  0.58856310  0.98117824  0.57709832  1
  O  O503  1  0.58877784  0.98322971  0.82842472  1
  O  O504  1  0.41092563  0.01899818  0.17295322  1
  O  O505  1  0.41214101  0.01906091  0.42202452  1
  O  O506  1  0.41351130  0.01644928  0.67283144  1
  O  O507  1  0.41379406  0.01883036  0.92382889  1
  O  O508  1  0.41072618  0.35217924  0.17209019  1
  O  O509  1  0.41185512  0.35061846  0.42245538  1
  O  O510  1  0.40984825  0.35284257  0.67297742  1
  O  O511  1  0.41094317  0.34970841  0.92162621  1
  O  O512  1  0.41216990  0.68404472  0.17245239  1
  O  O513  1  0.41263809  0.68525517  0.42250587  1
  O  O514  1  0.41151689  0.68557088  0.67153357  1
  O  O515  1  0.41140531  0.68559960  0.92338252  1
  O  O516  1  0.91290604  0.01811231  0.17257571  1
  O  O517  1  0.91208836  0.01732229  0.42165512  1
  O  O518  1  0.91093678  0.01862294  0.67314231  1
  O  O519  1  0.91146749  0.01827181  0.92143415  1
  O  O520  1  0.91247234  0.35161709  0.17180379  1
  O  O521  1  0.91556000  0.35185667  0.42271505  1
  O  O522  1  0.91403002  0.35201482  0.67398929  1
  O  O523  1  0.91263853  0.35044857  0.92290996  1
  O  O524  1  0.91473945  0.68448074  0.17258180  1
  O  O525  1  0.91148473  0.68545931  0.42299832  1
  O  O526  1  0.91237196  0.68451681  0.67302702  1
  O  O527  1  0.91141726  0.68601848  0.92226292  1
  O  O528  1  0.16340091  0.01907698  0.20128463  1
  O  O529  1  0.16312376  0.01803998  0.45190122  1
  O  O530  1  0.16256145  0.01865418  0.70305206  1
  O  O531  1  0.16328856  0.01838196  0.95293125  1
  O  O532  1  0.16385890  0.35114314  0.20255204  1
  O  O533  1  0.16324391  0.35219224  0.45189498  1
  O  O534  1  0.16273141  0.34978921  0.70297052  1
  O  O535  1  0.16323938  0.35269736  0.95176087  1
  O  O536  1  0.16348084  0.68472907  0.20217690  1
  O  O537  1  0.16418610  0.68500420  0.45277071  1
  O  O538  1  0.16104887  0.68601840  0.70159212  1
  O  O539  1  0.16333362  0.68405656  0.95350684  1
  O  O540  1  0.66415879  0.01775786  0.20225203  1
  O  O541  1  0.66233024  0.01738148  0.45271456  1
  O  O542  1  0.66335279  0.01862642  0.70409345  1
  O  O543  1  0.66196558  0.01783476  0.95268874  1
  O  O544  1  0.66040405  0.35126899  0.20137962  1
  O  O545  1  0.66129153  0.35199645  0.45110058  1
  O  O546  1  0.66451379  0.35066825  0.70325315  1
  O  O547  1  0.66358999  0.35160605  0.95279944  1
  O  O548  1  0.66048690  0.68594350  0.20143935  1
  O  O549  1  0.66239153  0.68553175  0.45116181  1
  O  O550  1  0.66452994  0.68536544  0.70242441  1
  O  O551  1  0.66188039  0.68513952  0.95320923  1
  O  O552  1  0.33940695  0.31529193  0.04666570  1
  O  O553  1  0.33789956  0.31493960  0.29724550  1
  O  O554  1  0.33830403  0.31611009  0.54650253  1
  O  O555  1  0.33640550  0.31546101  0.79796870  1
  O  O556  1  0.33677288  0.64817556  0.04808348  1
  O  O557  1  0.33712239  0.64884244  0.29652273  1
  O  O558  1  0.33901069  0.64831452  0.54770164  1
  O  O559  1  0.33778601  0.64774615  0.79701960  1
  O  O560  1  0.33817542  0.98153778  0.04721189  1
  O  O561  1  0.33759330  0.98185990  0.29693851  1
  O  O562  1  0.33957940  0.98035841  0.54871836  1
  O  O563  1  0.33603041  0.98190996  0.79784602  1
  O  O564  1  0.83898191  0.31619673  0.04789766  1
  O  O565  1  0.83822757  0.31405987  0.29717982  1
  O  O566  1  0.83708815  0.31576176  0.54734050  1
  O  O567  1  0.83747446  0.31527654  0.79847029  1
  O  O568  1  0.83881556  0.64732339  0.04934635  1
  O  O569  1  0.83745050  0.64863018  0.29679233  1
  O  O570  1  0.83704339  0.64931933  0.54619977  1
  O  O571  1  0.83801772  0.64841105  0.79748043  1
  O  O572  1  0.83750821  0.98172092  0.04795678  1
  O  O573  1  0.83748951  0.98262808  0.29687114  1
  O  O574  1  0.83683281  0.98021140  0.54708200  1
  O  O575  1  0.83678596  0.98165603  0.79824457  1
  O  O576  1  0.41102892  0.14914046  0.17185781  1
  O  O577  1  0.41232369  0.14945326  0.42143423  1
  O  O578  1  0.41306899  0.14672360  0.67303016  1
  O  O579  1  0.41305277  0.14879072  0.92253206  1
  O  O580  1  0.41112102  0.48232145  0.17239260  1
  O  O581  1  0.41102963  0.48067941  0.42266469  1
  O  O582  1  0.41080383  0.48291727  0.67230619  1
  O  O583  1  0.40970964  0.47977951  0.92254524  1
  O  O584  1  0.41224531  0.81417767  0.17326174  1
  O  O585  1  0.41299949  0.81519985  0.42283752  1
  O  O586  1  0.41244699  0.81593712  0.67200724  1
  O  O587  1  0.41174339  0.81557037  0.92362268  1
  O  O588  1  0.91323370  0.14816588  0.17303956  1
  O  O589  1  0.91166950  0.14780335  0.42185893  1
  O  O590  1  0.91106603  0.14857760  0.67330518  1
  O  O591  1  0.91144501  0.14872520  0.92150471  1
  O  O592  1  0.91251450  0.48198778  0.17179583  1
  O  O593  1  0.91585700  0.48194693  0.42262820  1
  O  O594  1  0.91368629  0.48185204  0.67373261  1
  O  O595  1  0.91255821  0.48052082  0.92372526  1
  O  O596  1  0.91386990  0.81464688  0.17190338  1
  O  O597  1  0.91154947  0.81553043  0.42284354  1
  O  O598  1  0.91212263  0.81450217  0.67296894  1
  O  O599  1  0.91185521  0.81634255  0.92173066  1
  O  O600  1  0.08690389  0.18345732  0.07788351  1
  O  O601  1  0.08945603  0.18589248  0.32638185  1
  O  O602  1  0.08855737  0.18596758  0.57809501  1
  O  O603  1  0.08674814  0.18599150  0.82689155  1
  O  O604  1  0.08890137  0.51930063  0.07707119  1
  O  O605  1  0.08918337  0.51747328  0.32692018  1
  O  O606  1  0.08844517  0.51843144  0.57877522  1
  O  O607  1  0.08828021  0.51670305  0.82895797  1
  O  O608  1  0.08592368  0.85186557  0.07743445  1
  O  O609  1  0.08552089  0.85125747  0.32739615  1
  O  O610  1  0.08736298  0.85056806  0.57821708  1
  O  O611  1  0.08644187  0.85208298  0.82647185  1
  O  O612  1  0.58509170  0.18626741  0.07702488  1
  O  O613  1  0.58522235  0.18612400  0.32638238  1
  O  O614  1  0.58770122  0.18495187  0.57798406  1
  O  O615  1  0.58685944  0.18433218  0.82750099  1
  O  O616  1  0.58459443  0.51760062  0.07721652  1
  O  O617  1  0.58662125  0.51796883  0.32749517  1
  O  O618  1  0.58489613  0.51803463  0.57727067  1
  O  O619  1  0.58646063  0.51786327  0.82716717  1
  O  O620  1  0.58883483  0.85052214  0.07838561  1
  O  O621  1  0.58935462  0.85046138  0.32762688  1
  O  O622  1  0.58828377  0.85120893  0.57699859  1
  O  O623  1  0.58983000  0.85303332  0.82749598  1
  O  O624  1  0.33930903  0.18501949  0.04721203  1
  O  O625  1  0.33794625  0.18475761  0.29684619  1
  O  O626  1  0.33865732  0.18590235  0.54723311  1
  O  O627  1  0.33689817  0.18563028  0.79858513  1
  O  O628  1  0.33669751  0.51812370  0.04779295  1
  O  O629  1  0.33704900  0.51859450  0.29668996  1
  O  O630  1  0.33861535  0.51816877  0.54753863  1
  O  O631  1  0.33735414  0.51745684  0.79637023  1
  O  O632  1  0.33766316  0.85135881  0.04737623  1
  O  O633  1  0.33790310  0.85151532  0.29696397  1
  O  O634  1  0.33838519  0.85037018  0.54834958  1
  O  O635  1  0.33637645  0.85188492  0.79759048  1
  O  O636  1  0.83977330  0.18617314  0.04792248  1
  O  O637  1  0.83790505  0.18376089  0.29616883  1
  O  O638  1  0.83732588  0.18554726  0.54726364  1
  O  O639  1  0.83703034  0.18525814  0.79842713  1
  O  O640  1  0.83863073  0.51731855  0.04887308  1
  O  O641  1  0.83751352  0.51840409  0.29723273  1
  O  O642  1  0.83738379  0.51905657  0.54685525  1
  O  O643  1  0.83827292  0.51801908  0.79757069  1
  O  O644  1  0.83721266  0.85185751  0.04849244  1
  O  O645  1  0.83823580  0.85251186  0.29736560  1
  O  O646  1  0.83627599  0.85010033  0.54647902  1
  O  O647  1  0.83691647  0.85158409  0.79822443  1
  O  O648  1  0.16376478  0.14918193  0.20160111  1
  O  O649  1  0.16325900  0.14820718  0.45198072  1
  O  O650  1  0.16234201  0.14908876  0.70355485  1
  O  O651  1  0.16366623  0.14841556  0.95294391  1
  O  O652  1  0.16360618  0.48129745  0.20290321  1
  O  O653  1  0.16319802  0.48212357  0.45222392  1
  O  O654  1  0.16206367  0.47989782  0.70224426  1
  O  O655  1  0.16365844  0.48268894  0.95243691  1
  O  O656  1  0.16320937  0.81470675  0.20168667  1
  O  O657  1  0.16455964  0.81504578  0.45234754  1
  O  O658  1  0.16120085  0.81608944  0.70218635  1
  O  O659  1  0.16306437  0.81427997  0.95271483  1
  O  O660  1  0.66422838  0.14785781  0.20124491  1
  O  O661  1  0.66240909  0.14759820  0.45191781  1
  O  O662  1  0.66361382  0.14907391  0.70397286  1
  O  O663  1  0.66164749  0.14795038  0.95199129  1
  O  O664  1  0.66034345  0.48126740  0.20129439  1
  O  O665  1  0.66124080  0.48195449  0.45127614  1
  O  O666  1  0.66448516  0.48080139  0.70253347  1
  O  O667  1  0.66331102  0.48167721  0.95289816  1
  O  O668  1  0.66063055  0.81598613  0.20287365  1
  O  O669  1  0.66294118  0.81551177  0.45162758  1
  O  O670  1  0.66428580  0.81552414  0.70306837  1
  O  O671  1  0.66203683  0.81550157  0.95408137  1
