# generated using pymatgen
data_Na2MnFe(PO4)2
_symmetry_space_group_name_H-M   'P 1'
_cell_length_a   21.08449586
_cell_length_b   18.93664109
_cell_length_c   20.04428193
_cell_angle_alpha   89.99926717
_cell_angle_beta   90.00278133
_cell_angle_gamma   90.00116038
_symmetry_Int_Tables_number   1
_chemical_formula_structural   Na2MnFe(PO4)2
_chemical_formula_sum   'Na96 Mn48 Fe48 P96 O384'
_cell_volume   8003.07102646
_cell_formula_units_Z   48
loop_
 _symmetry_equiv_pos_site_id
 _symmetry_equiv_pos_as_xyz
  1  'x, y, z'
loop_
 _atom_site_type_symbol
 _atom_site_label
 _atom_site_symmetry_multiplicity
 _atom_site_fract_x
 _atom_site_fract_y
 _atom_site_fract_z
 _atom_site_occupancy
  Na  Na0  1  0.00192056  0.00014182  -0.00022022  1
  Na  Na1  1  0.00031325  -0.00063103  0.25091877  1
  Na  Na2  1  -0.00001447  0.00036596  0.49957225  1
  Na  Na3  1  0.00023641  -0.00005950  0.75015633  1
  Na  Na4  1  -0.00030354  0.33350984  -0.00007743  1
  Na  Na5  1  0.00051952  0.33398094  0.24947073  1
  Na  Na6  1  -0.00143913  0.33307657  0.50039971  1
  Na  Na7  1  -0.00111582  0.33321595  0.75018895  1
  Na  Na8  1  0.00106040  0.66709110  0.00084810  1
  Na  Na9  1  0.00118779  0.66665030  0.25048334  1
  Na  Na10  1  0.00130068  0.66707607  0.49955702  1
  Na  Na11  1  -0.00029823  0.66652570  0.74953544  1
  Na  Na12  1  0.50128197  0.00047241  -0.00003076  1
  Na  Na13  1  0.49927243  -0.00010395  0.25012089  1
  Na  Na14  1  0.49949700  0.00010929  0.49973804  1
  Na  Na15  1  0.49976526  0.00004611  0.74941066  1
  Na  Na16  1  0.49765670  0.33318823  -0.00026727  1
  Na  Na17  1  0.50020473  0.33423914  0.25091311  1
  Na  Na18  1  0.50097850  0.33430332  0.50001742  1
  Na  Na19  1  0.49908224  0.33338801  0.74915960  1
  Na  Na20  1  0.49736685  0.66583565  0.00137300  1
  Na  Na21  1  0.49895285  0.66643047  0.25050624  1
  Na  Na22  1  0.49893656  0.66613511  0.49888891  1
  Na  Na23  1  0.49884178  0.66623306  0.74948533  1
  Na  Na24  1  0.25053787  -0.00032568  0.12430140  1
  Na  Na25  1  0.25147918  0.00066928  0.37601233  1
  Na  Na26  1  0.24886697  -0.00057829  0.62420225  1
  Na  Na27  1  0.24917722  -0.00019262  0.87482603  1
  Na  Na28  1  0.24941780  0.33345170  0.12470765  1
  Na  Na29  1  0.25082181  0.33438078  0.37595504  1
  Na  Na30  1  0.25206315  0.33418603  0.62480252  1
  Na  Na31  1  0.25211296  0.33425696  0.87479104  1
  Na  Na32  1  0.25081310  0.66745239  0.12562888  1
  Na  Na33  1  0.24990596  0.66618300  0.37426546  1
  Na  Na34  1  0.25058475  0.66675455  0.62569583  1
  Na  Na35  1  0.24914703  0.66587762  0.87463818  1
  Na  Na36  1  0.74841229  -0.00051292  0.12561577  1
  Na  Na37  1  0.75062780  0.00033468  0.37489347  1
  Na  Na38  1  0.75123728  0.00099885  0.62590255  1
  Na  Na39  1  0.74838437  -0.00057232  0.87389694  1
  Na  Na40  1  0.74886535  0.33349307  0.12506410  1
  Na  Na41  1  0.74954467  0.33371689  0.37546048  1
  Na  Na42  1  0.74915787  0.33283023  0.62439208  1
  Na  Na43  1  0.75073475  0.33405321  0.87519377  1
  Na  Na44  1  0.75178256  0.66715904  0.12386698  1
  Na  Na45  1  0.74964735  0.66601315  0.37512590  1
  Na  Na46  1  0.75043505  0.66631254  0.62521601  1
  Na  Na47  1  0.75122136  0.66694212  0.87518574  1
  Na  Na48  1  0.00097911  0.16705718  0.00009726  1
  Na  Na49  1  -0.00098466  0.16765743  0.24995210  1
  Na  Na50  1  -0.00174779  0.16753562  0.50027689  1
  Na  Na51  1  -0.00095075  0.16735689  0.74993866  1
  Na  Na52  1  -0.00037376  0.50056325  -0.00011922  1
  Na  Na53  1  0.00261118  0.49893648  0.25054266  1
  Na  Na54  1  0.00139192  0.49906999  0.49986489  1
  Na  Na55  1  -0.00041010  0.49991564  0.75022089  1
  Na  Na56  1  0.00161972  0.83231562  0.00045016  1
  Na  Na57  1  0.00120026  0.83246685  0.25051704  1
  Na  Na58  1  -0.00013131  0.83327292  0.49939954  1
  Na  Na59  1  -0.00003314  0.83332190  0.74976630  1
  Na  Na60  1  0.50055701  0.16682801  0.00029945  1
  Na  Na61  1  0.50009397  0.16681708  0.25135088  1
  Na  Na62  1  0.49937885  0.16727799  0.50024447  1
  Na  Na63  1  0.50063126  0.16674568  0.74863839  1
  Na  Na64  1  0.49829305  0.49958760  0.00030264  1
  Na  Na65  1  0.50025129  0.49995481  0.25052638  1
  Na  Na66  1  0.50128871  0.49937735  0.49892057  1
  Na  Na67  1  0.49935748  0.49944941  0.74977399  1
  Na  Na68  1  0.49808182  0.83364070  0.00059266  1
  Na  Na69  1  0.49715877  0.83382871  0.24949825  1
  Na  Na70  1  0.49814543  0.83304146  0.49961649  1
  Na  Na71  1  0.49847077  0.83315855  0.74989026  1
  Na  Na72  1  0.25053273  0.16728502  0.12421949  1
  Na  Na73  1  0.25240266  0.16595601  0.37652263  1
  Na  Na74  1  0.25156939  0.16664367  0.62496648  1
  Na  Na75  1  0.25023530  0.16742899  0.87384519  1
  Na  Na76  1  0.25023595  0.49940380  0.12583837  1
  Na  Na77  1  0.24970961  0.49959260  0.37471263  1
  Na  Na78  1  0.24982693  0.49968388  0.62446365  1
  Na  Na79  1  0.25089434  0.49910240  0.87457522  1
  Na  Na80  1  0.24961625  0.83319388  0.12487790  1
  Na  Na81  1  0.25062504  0.83259135  0.37488902  1
  Na  Na82  1  0.25005403  0.83307026  0.62530608  1
  Na  Na83  1  0.25006236  0.83249757  0.87551679  1
  Na  Na84  1  0.75064590  0.16633421  0.12509080  1
  Na  Na85  1  0.75044488  0.16695397  0.37485560  1
  Na  Na86  1  0.75017532  0.16734612  0.62526596  1
  Na  Na87  1  0.74869439  0.16767105  0.87460968  1
  Na  Na88  1  0.74860967  0.50061675  0.12457302  1
  Na  Na89  1  0.74797663  0.49981931  0.37498028  1
  Na  Na90  1  0.74834553  0.50014174  0.62515249  1
  Na  Na91  1  0.75107094  0.49925277  0.87566691  1
  Na  Na92  1  0.74997783  0.83301646  0.12519390  1
  Na  Na93  1  0.75244566  0.83204357  0.37534643  1
  Na  Na94  1  0.75236364  0.83283622  0.62529612  1
  Na  Na95  1  0.75037970  0.83333709  0.87383636  1
  Mn  Mn96  1  0.64172199  0.58302659  0.74804843  1
  Mn  Mn97  1  0.85737181  0.08278681  0.00221551  1
  Mn  Mn98  1  0.14257375  0.24952188  0.24869418  1
  Mn  Mn99  1  0.35779922  0.08363944  0.75238671  1
  Mn  Mn100  1  0.10810436  0.08420593  0.37286557  1
  Mn  Mn101  1  0.14245580  0.25026535  0.74752163  1
  Mn  Mn102  1  0.89230155  0.58305269  0.62643059  1
  Mn  Mn103  1  0.14325154  0.91730803  0.24807470  1
  Mn  Mn104  1  0.89258063  0.91706106  0.37774667  1
  Mn  Mn105  1  0.60706548  0.75013800  0.87346973  1
  Mn  Mn106  1  0.64192831  0.91530682  0.24849528  1
  Mn  Mn107  1  0.60776852  0.75060069  0.37278472  1
  Mn  Mn108  1  0.64191905  0.24980255  0.99738469  1
  Mn  Mn109  1  0.14297038  0.58317292  0.24781140  1
  Mn  Mn110  1  0.14190686  0.58242954  0.74779736  1
  Mn  Mn111  1  0.60723981  0.74944560  0.12273736  1
  Mn  Mn112  1  0.10788005  0.08353840  0.87248602  1
  Mn  Mn113  1  0.64174323  0.91645719  0.74740938  1
  Mn  Mn114  1  0.60745244  0.74935513  0.62216743  1
  Mn  Mn115  1  0.64287770  0.91660915  0.49754529  1
  Mn  Mn116  1  0.60772766  0.08377850  0.12286725  1
  Mn  Mn117  1  0.64216299  0.58428370  0.99784795  1
  Mn  Mn118  1  0.10905290  0.08341635  0.12303785  1
  Mn  Mn119  1  0.35770390  0.74967619  0.75267235  1
  Mn  Mn120  1  0.14207149  0.91694941  0.74761420  1
  Mn  Mn121  1  0.10747312  0.41697539  0.87307331  1
  Mn  Mn122  1  0.39285564  0.24990413  0.37775251  1
  Mn  Mn123  1  0.89239054  0.58246581  0.37736725  1
  Mn  Mn124  1  0.60697257  0.41620963  0.87313656  1
  Mn  Mn125  1  0.85748515  0.41681049  0.75150299  1
  Mn  Mn126  1  0.14241822  0.25021542  0.49809632  1
  Mn  Mn127  1  0.85809255  0.08295578  0.25222612  1
  Mn  Mn128  1  0.39145395  0.25036325  0.12763707  1
  Mn  Mn129  1  0.10785516  0.75019835  0.62193467  1
  Mn  Mn130  1  0.64228234  0.25066490  0.24786685  1
  Mn  Mn131  1  0.39141499  0.91652822  0.62715582  1
  Mn  Mn132  1  0.89313626  0.58333705  0.12747156  1
  Mn  Mn133  1  0.60772914  0.08350264  0.62174126  1
  Mn  Mn134  1  0.39115168  0.58330940  0.87805384  1
  Mn  Mn135  1  0.39251171  0.58351745  0.37760742  1
  Mn  Mn136  1  0.39171735  0.91651017  0.12715199  1
  Mn  Mn137  1  0.85770949  0.08389512  0.75235377  1
  Mn  Mn138  1  0.89299862  0.25010105  0.12686160  1
  Mn  Mn139  1  0.89268286  0.91652477  0.12652322  1
  Mn  Mn140  1  0.85759986  0.41755841  0.25192557  1
  Mn  Mn141  1  0.35795816  0.08334475  0.00182910  1
  Mn  Mn142  1  0.85838581  0.74963267  0.75250678  1
  Mn  Mn143  1  0.89236977  0.91643984  0.87837765  1
  Fe  Fe144  1  0.39246160  0.58251373  0.62568853  1
  Fe  Fe145  1  0.35769290  0.41671201  0.75103082  1
  Fe  Fe146  1  0.10719094  0.74962774  0.87402430  1
  Fe  Fe147  1  0.85799062  0.75019246  0.00189880  1
  Fe  Fe148  1  0.64217908  0.91601566  0.99804387  1
  Fe  Fe149  1  0.35690098  0.75019023  0.25209266  1
  Fe  Fe150  1  0.14315033  0.25046712  0.99766713  1
  Fe  Fe151  1  0.35768637  0.41715756  0.50202142  1
  Fe  Fe152  1  0.35719142  0.41633610  0.25208991  1
  Fe  Fe153  1  0.60679156  0.41702253  0.62299888  1
  Fe  Fe154  1  0.10744645  0.41630041  0.37403738  1
  Fe  Fe155  1  0.60690908  0.08342269  0.87343427  1
  Fe  Fe156  1  0.10784765  0.74966274  0.37361556  1
  Fe  Fe157  1  0.60749671  0.41657495  0.37323753  1
  Fe  Fe158  1  0.60714613  0.08310103  0.37404178  1
  Fe  Fe159  1  0.10677475  0.08401207  0.62294209  1
  Fe  Fe160  1  0.10755476  0.41581811  0.62283687  1
  Fe  Fe161  1  0.89211899  0.25049654  0.87729523  1
  Fe  Fe162  1  0.14301470  0.91633507  0.99800571  1
  Fe  Fe163  1  0.35745731  0.08323710  0.50223191  1
  Fe  Fe164  1  0.35649730  0.74945910  0.50128358  1
  Fe  Fe165  1  0.89225154  0.24982286  0.62657438  1
  Fe  Fe166  1  0.10804676  0.74954434  0.12288450  1
  Fe  Fe167  1  0.60617529  0.41691998  0.12322219  1
  Fe  Fe168  1  0.64237567  0.58329845  0.49874564  1
  Fe  Fe169  1  0.39186276  0.58275489  0.12691528  1
  Fe  Fe170  1  0.35612683  0.74925811  0.00169823  1
  Fe  Fe171  1  0.85803109  0.74949139  0.25154291  1
  Fe  Fe172  1  0.35666481  0.41730090  0.00234483  1
  Fe  Fe173  1  0.64321406  0.24992157  0.49844241  1
  Fe  Fe174  1  0.85740046  0.41704662  0.00224349  1
  Fe  Fe175  1  0.14315009  0.58314849  0.99855179  1
  Fe  Fe176  1  0.89278747  0.58326631  0.87709547  1
  Fe  Fe177  1  0.89334757  0.91740068  0.62580907  1
  Fe  Fe178  1  0.64213894  0.25054689  0.74816105  1
  Fe  Fe179  1  0.14316397  0.58344777  0.49881206  1
  Fe  Fe180  1  0.39254898  0.91727930  0.87694783  1
  Fe  Fe181  1  0.85804525  0.74967168  0.50129801  1
  Fe  Fe182  1  0.85677306  0.41670688  0.50167653  1
  Fe  Fe183  1  0.64252145  0.58396489  0.24784744  1
  Fe  Fe184  1  0.89215005  0.25059712  0.37679707  1
  Fe  Fe185  1  0.85747007  0.08350482  0.50176440  1
  Fe  Fe186  1  0.39209799  0.91690792  0.37690726  1
  Fe  Fe187  1  0.39345959  0.25089165  0.62643475  1
  Fe  Fe188  1  0.39303800  0.24913228  0.87617977  1
  Fe  Fe189  1  0.14278782  0.91613009  0.49840337  1
  Fe  Fe190  1  0.35837467  0.08349907  0.25227435  1
  Fe  Fe191  1  0.10831541  0.41684224  0.12258696  1
  P  P192  1  0.05505876  0.25093375  0.10937279  1
  P  P193  1  0.05201309  0.25109500  0.36044540  1
  P  P194  1  0.05218001  0.25007568  0.61017973  1
  P  P195  1  0.05323774  0.25068229  0.86089533  1
  P  P196  1  0.05501378  0.58324355  0.10983056  1
  P  P197  1  0.05543271  0.58304496  0.36168205  1
  P  P198  1  0.05418923  0.58229656  0.60918699  1
  P  P199  1  0.05343531  0.58398332  0.86147951  1
  P  P200  1  0.05488475  0.91576333  0.10969012  1
  P  P201  1  0.05527196  0.91589221  0.36141893  1
  P  P202  1  0.05309150  0.91769168  0.60917084  1
  P  P203  1  0.05476798  0.91545813  0.86117863  1
  P  P204  1  0.55292724  0.25146370  0.11027511  1
  P  P205  1  0.55518126  0.24990550  0.36200182  1
  P  P206  1  0.55416864  0.25129050  0.61024929  1
  P  P207  1  0.55258468  0.24960341  0.85918785  1
  P  P208  1  0.55272112  0.58251016  0.11131310  1
  P  P209  1  0.55561405  0.58294002  0.36056988  1
  P  P210  1  0.55239987  0.58237800  0.60914664  1
  P  P211  1  0.55229475  0.58328521  0.86023193  1
  P  P212  1  0.55364120  0.91624502  0.10947487  1
  P  P213  1  0.55174139  0.91720985  0.36028126  1
  P  P214  1  0.55274165  0.91622492  0.60921212  1
  P  P215  1  0.55287319  0.91697092  0.86102439  1
  P  P216  1  0.44608474  0.08361250  0.14086715  1
  P  P217  1  0.44589729  0.08268400  0.38992392  1
  P  P218  1  0.44526415  0.08421354  0.63862214  1
  P  P219  1  0.44774163  0.08372598  0.88960596  1
  P  P220  1  0.44512277  0.41753963  0.13992664  1
  P  P221  1  0.44628560  0.41680749  0.38963863  1
  P  P222  1  0.44584869  0.41713048  0.63854334  1
  P  P223  1  0.44424458  0.41542860  0.88941233  1
  P  P224  1  0.44394394  0.74874769  0.13955425  1
  P  P225  1  0.44459317  0.75075884  0.38930990  1
  P  P226  1  0.44467458  0.74852008  0.63833845  1
  P  P227  1  0.44538367  0.75062197  0.89123071  1
  P  P228  1  0.94758983  0.08297259  0.14005589  1
  P  P229  1  0.94614119  0.08449431  0.39071007  1
  P  P230  1  0.94625940  0.08343858  0.63861518  1
  P  P231  1  0.94666129  0.08422613  0.89023877  1
  P  P232  1  0.94754168  0.41705993  0.13902051  1
  P  P233  1  0.94694484  0.41624562  0.39050311  1
  P  P234  1  0.94650518  0.41610816  0.63852622  1
  P  P235  1  0.94554150  0.41681423  0.89043594  1
  P  P236  1  0.94698107  0.75002021  0.13973088  1
  P  P237  1  0.94648822  0.74937530  0.38936853  1
  P  P238  1  0.94552120  0.75064487  0.63837815  1
  P  P239  1  0.94742368  0.74907974  0.89089400  1
  P  P240  1  0.19925893  0.08366246  0.23540438  1
  P  P241  1  0.19655080  0.08311645  0.48656555  1
  P  P242  1  0.19598392  0.08372432  0.73363331  1
  P  P243  1  0.19681678  0.08366435  0.98460674  1
  P  P244  1  0.19615199  0.41620573  0.23595226  1
  P  P245  1  0.19636319  0.41726094  0.48590624  1
  P  P246  1  0.19722019  0.41625228  0.73417960  1
  P  P247  1  0.19672497  0.41723201  0.98599940  1
  P  P248  1  0.19628302  0.75008043  0.23578764  1
  P  P249  1  0.19713786  0.74943912  0.48467697  1
  P  P250  1  0.19521498  0.74971805  0.73612198  1
  P  P251  1  0.19584272  0.74912407  0.98590304  1
  P  P252  1  0.69536371  0.08318132  0.23644158  1
  P  P253  1  0.69763704  0.08428150  0.48475888  1
  P  P254  1  0.69471744  0.08457633  0.73599381  1
  P  P255  1  0.69566080  0.08233848  0.98414513  1
  P  P256  1  0.69452039  0.41788909  0.23534900  1
  P  P257  1  0.69543677  0.41639038  0.48613556  1
  P  P258  1  0.69533982  0.41576460  0.73442294  1
  P  P259  1  0.69639019  0.41705474  0.98616095  1
  P  P260  1  0.69786304  0.74883684  0.23490108  1
  P  P261  1  0.69816254  0.74943404  0.48522849  1
  P  P262  1  0.69652647  0.74968720  0.73478538  1
  P  P263  1  0.69799177  0.75071061  0.98489210  1
  P  P264  1  0.30360376  0.25082633  0.01328530  1
  P  P265  1  0.30369207  0.25046522  0.26558866  1
  P  P266  1  0.30463116  0.25046675  0.51567345  1
  P  P267  1  0.30558019  0.25123064  0.76398963  1
  P  P268  1  0.30252364  0.58323329  0.01572102  1
  P  P269  1  0.30497878  0.58291632  0.26390544  1
  P  P270  1  0.30286431  0.58322892  0.51492890  1
  P  P271  1  0.30438798  0.58196208  0.76362795  1
  P  P272  1  0.30332434  0.91580781  0.01341691  1
  P  P273  1  0.30436369  0.91672884  0.26565076  1
  P  P274  1  0.30324234  0.91614404  0.51358347  1
  P  P275  1  0.30378127  0.91680083  0.76602740  1
  P  P276  1  0.80430537  0.25080081  0.01412311  1
  P  P277  1  0.80415271  0.25072040  0.26561295  1
  P  P278  1  0.80422870  0.25032850  0.51416599  1
  P  P279  1  0.80371910  0.25048134  0.76442026  1
  P  P280  1  0.80515311  0.58341065  0.01391936  1
  P  P281  1  0.80242189  0.58383068  0.26480675  1
  P  P282  1  0.80213387  0.58253543  0.51464195  1
  P  P283  1  0.80397414  0.58286482  0.76585610  1
  P  P284  1  0.80179435  0.91599553  0.01503729  1
  P  P285  1  0.80382249  0.91534736  0.26500054  1
  P  P286  1  0.80435185  0.91707317  0.51562600  1
  P  P287  1  0.80494607  0.91704773  0.76387305  1
  O  O288  1  0.05768304  0.25034206  0.18620782  1
  O  O289  1  0.05597450  0.25033636  0.43709234  1
  O  O290  1  0.05589454  0.25025554  0.68684786  1
  O  O291  1  0.05900394  0.25077488  0.93749597  1
  O  O292  1  0.05775217  0.58308649  0.18659737  1
  O  O293  1  0.05941686  0.58334326  0.43840883  1
  O  O294  1  0.05664504  0.58286788  0.68603256  1
  O  O295  1  0.05857388  0.58327773  0.93809176  1
  O  O296  1  0.05762990  0.91647187  0.18653908  1
  O  O297  1  0.05951106  0.91646083  0.43816361  1
  O  O298  1  0.05637829  0.91681336  0.68593668  1
  O  O299  1  0.05942323  0.91611183  0.93791723  1
  O  O300  1  0.55613317  0.25091193  0.18705307  1
  O  O301  1  0.55896458  0.24996839  0.43875030  1
  O  O302  1  0.55837745  0.25048894  0.68691569  1
  O  O303  1  0.55604652  0.25053800  0.93595636  1
  O  O304  1  0.55763040  0.58374629  0.18795771  1
  O  O305  1  0.55995079  0.58376548  0.43735891  1
  O  O306  1  0.55582744  0.58310591  0.68586022  1
  O  O307  1  0.55580252  0.58333893  0.93703076  1
  O  O308  1  0.55674632  0.91575408  0.18626224  1
  O  O309  1  0.55595735  0.91626666  0.43694190  1
  O  O310  1  0.55600019  0.91612702  0.68602136  1
  O  O311  1  0.55776777  0.91601926  0.93769465  1
  O  O312  1  0.44285770  0.08378077  0.06406731  1
  O  O313  1  0.44151174  0.08349270  0.31318712  1
  O  O314  1  0.44092836  0.08330059  0.56183485  1
  O  O315  1  0.44431356  0.08351607  0.81290763  1
  O  O316  1  0.44020784  0.41696821  0.06317961  1
  O  O317  1  0.44128667  0.41675086  0.31299844  1
  O  O318  1  0.44156579  0.41726831  0.56179806  1
  O  O319  1  0.44099281  0.41670786  0.81262363  1
  O  O320  1  0.43947159  0.74945199  0.06282010  1
  O  O321  1  0.44059350  0.74989892  0.31252480  1
  O  O322  1  0.44032661  0.74921725  0.56158125  1
  O  O323  1  0.44290049  0.74968077  0.81436333  1
  O  O324  1  0.94415048  0.08278749  0.06332036  1
  O  O325  1  0.94334995  0.08344588  0.31391041  1
  O  O326  1  0.94162565  0.08361709  0.56195501  1
  O  O327  1  0.94354638  0.08360984  0.81341788  1
  O  O328  1  0.94204293  0.41729686  0.06244185  1
  O  O329  1  0.94345448  0.41726207  0.31378524  1
  O  O330  1  0.94121698  0.41686344  0.56191958  1
  O  O331  1  0.94290937  0.41666830  0.81361120  1
  O  O332  1  0.94162915  0.75015879  0.06308060  1
  O  O333  1  0.94177738  0.74909039  0.31267643  1
  O  O334  1  0.94125385  0.74961124  0.56159116  1
  O  O335  1  0.94396974  0.74978608  0.81410916  1
  O  O336  1  0.19446421  0.08368532  0.06142282  1
  O  O337  1  0.19503771  0.08391613  0.31210749  1
  O  O338  1  0.19107955  0.08389919  0.56315275  1
  O  O339  1  0.19270493  0.08400028  0.81043167  1
  O  O340  1  0.19245438  0.41695707  0.06270938  1
  O  O341  1  0.19125729  0.41615639  0.31264467  1
  O  O342  1  0.19135764  0.41604359  0.56256643  1
  O  O343  1  0.19305226  0.41613708  0.81089505  1
  O  O344  1  0.19199337  0.74954517  0.06267419  1
  O  O345  1  0.19150413  0.74969440  0.31244118  1
  O  O346  1  0.19392723  0.74977290  0.56147360  1
  O  O347  1  0.19088778  0.74945741  0.81285221  1
  O  O348  1  0.69309464  0.08347031  0.06101980  1
  O  O349  1  0.69088842  0.08321159  0.31318321  1
  O  O350  1  0.69396027  0.08384565  0.56151889  1
  O  O351  1  0.69016409  0.08385719  0.81270931  1
  O  O352  1  0.69098233  0.41696806  0.06276566  1
  O  O353  1  0.69075364  0.41667543  0.31217892  1
  O  O354  1  0.69088125  0.41661774  0.56282470  1
  O  O355  1  0.69257949  0.41628590  0.81122509  1
  O  O356  1  0.69371161  0.74985532  0.06155257  1
  O  O357  1  0.69396916  0.74961828  0.31160070  1
  O  O358  1  0.69423418  0.75000062  0.56187445  1
  O  O359  1  0.69285889  0.74988750  0.81152636  1
  O  O360  1  0.30572334  0.25072661  0.18876944  1
  O  O361  1  0.30748596  0.25052784  0.43887111  1
  O  O362  1  0.30982250  0.25042286  0.68727379  1
  O  O363  1  0.30841895  0.24987895  0.93666793  1
  O  O364  1  0.30817170  0.58284055  0.18714232  1
  O  O365  1  0.30629650  0.58279124  0.43825732  1
  O  O366  1  0.30843029  0.58257976  0.68693761  1
  O  O367  1  0.30554480  0.58304591  0.93894842  1
  O  O368  1  0.30647200  0.91672571  0.18874242  1
  O  O369  1  0.30776173  0.91663353  0.43694301  1
  O  O370  1  0.30668745  0.91679572  0.68917309  1
  O  O371  1  0.30823082  0.91681337  0.93680600  1
  O  O372  1  0.80746004  0.25071241  0.18880070  1
  O  O373  1  0.80861651  0.25058959  0.43747870  1
  O  O374  1  0.80880841  0.25020761  0.68766433  1
  O  O375  1  0.80826603  0.25046374  0.93731566  1
  O  O376  1  0.80655382  0.58304104  0.18812198  1
  O  O377  1  0.80578125  0.58216016  0.43797330  1
  O  O378  1  0.80725040  0.58282068  0.68906861  1
  O  O379  1  0.80910242  0.58324266  0.93719219  1
  O  O380  1  0.80665274  0.91628813  0.18826151  1
  O  O381  1  0.80689794  0.91703116  0.43876662  1
  O  O382  1  0.80987645  0.91737415  0.68719583  1
  O  O383  1  0.80558967  0.91658811  0.93829409  1
  O  O384  1  0.23333757  0.25068748  0.03725105  1
  O  O385  1  0.23443530  0.25027560  0.29204323  1
  O  O386  1  0.23484384  0.25047129  0.54062941  1
  O  O387  1  0.23549021  0.25067662  0.78804610  1
  O  O388  1  0.23263848  0.58336407  0.04077298  1
  O  O389  1  0.23517841  0.58275929  0.28874403  1
  O  O390  1  0.23281070  0.58334666  0.53968913  1
  O  O391  1  0.23449693  0.58216690  0.78826885  1
  O  O392  1  0.23301243  0.91595178  0.03728997  1
  O  O393  1  0.23483358  0.91672606  0.29130840  1
  O  O394  1  0.23294432  0.91598948  0.53778405  1
  O  O395  1  0.23403005  0.91656768  0.79076137  1
  O  O396  1  0.73432485  0.25010656  0.03851607  1
  O  O397  1  0.73430844  0.25064249  0.29018208  1
  O  O398  1  0.73377996  0.25031711  0.53793482  1
  O  O399  1  0.73326527  0.25080346  0.78771043  1
  O  O400  1  0.73516953  0.58370061  0.03835062  1
  O  O401  1  0.73243742  0.58338691  0.28932090  1
  O  O402  1  0.73207571  0.58288512  0.53945224  1
  O  O403  1  0.73420575  0.58284642  0.79071900  1
  O  O404  1  0.73188399  0.91610037  0.03989539  1
  O  O405  1  0.73427339  0.91558457  0.29066808  1
  O  O406  1  0.73473183  0.91708530  0.54117653  1
  O  O407  1  0.73473040  0.91660404  0.78735156  1
  O  O408  1  0.26920316  0.08340468  0.21074121  1
  O  O409  1  0.26716956  0.08350939  0.46355658  1
  O  O410  1  0.26584989  0.08325461  0.70921086  1
  O  O411  1  0.26634258  0.08360444  0.95878215  1
  O  O412  1  0.26659075  0.41656007  0.21253844  1
  O  O413  1  0.26696746  0.41691484  0.46271458  1
  O  O414  1  0.26741192  0.41660660  0.71022064  1
  O  O415  1  0.26696024  0.41727638  0.96185711  1
  O  O416  1  0.26674341  0.75026998  0.21244598  1
  O  O417  1  0.26719454  0.74919543  0.45995485  1
  O  O418  1  0.26523499  0.75006307  0.71209005  1
  O  O419  1  0.26612537  0.74894776  0.96166107  1
  O  O420  1  0.76538015  0.08313416  0.21223994  1
  O  O421  1  0.76782983  0.08381644  0.46058467  1
  O  O422  1  0.76482797  0.08435695  0.71209639  1
  O  O423  1  0.76521905  0.08324996  0.95858000  1
  O  O424  1  0.76455501  0.41717488  0.21106539  1
  O  O425  1  0.76589260  0.41627473  0.46233411  1
  O  O426  1  0.76502918  0.41638548  0.70923128  1
  O  O427  1  0.76677201  0.41705409  0.96272365  1
  O  O428  1  0.76786941  0.74933922  0.21025110  1
  O  O429  1  0.76833277  0.74934266  0.46083080  1
  O  O430  1  0.76641751  0.74952363  0.71036757  1
  O  O431  1  0.76810274  0.75023924  0.96052919  1
  O  O432  1  0.01727606  0.08344179  0.16526545  1
  O  O433  1  0.01590664  0.08410201  0.41573840  1
  O  O434  1  0.01649872  0.08380170  0.66284717  1
  O  O435  1  0.01639200  0.08396785  0.91519936  1
  O  O436  1  0.01799580  0.41681676  0.16224592  1
  O  O437  1  0.01708314  0.41647727  0.41495957  1
  O  O438  1  0.01685409  0.41630190  0.66235777  1
  O  O439  1  0.01532990  0.41676704  0.91550348  1
  O  O440  1  0.01756224  0.74941759  0.16272569  1
  O  O441  1  0.01690894  0.74974522  0.41291448  1
  O  O442  1  0.01555095  0.74996456  0.66257717  1
  O  O443  1  0.01748570  0.74958871  0.91543899  1
  O  O444  1  0.51582637  0.08351815  0.16569902  1
  O  O445  1  0.51623615  0.08344200  0.41382504  1
  O  O446  1  0.51529721  0.08366051  0.66258986  1
  O  O447  1  0.51763998  0.08386150  0.91468996  1
  O  O448  1  0.51543566  0.41712912  0.16361029  1
  O  O449  1  0.51683982  0.41683177  0.41269089  1
  O  O450  1  0.51614971  0.41674553  0.66253457  1
  O  O451  1  0.51414590  0.41639100  0.91419850  1
  O  O452  1  0.51407940  0.74974955  0.16351373  1
  O  O453  1  0.51469293  0.74978397  0.41337949  1
  O  O454  1  0.51457842  0.74936927  0.66283623  1
  O  O455  1  0.51492115  0.74965443  0.91685059  1
  O  O456  1  0.48324089  0.25062284  0.08522183  1
  O  O457  1  0.48523756  0.25027536  0.33737125  1
  O  O458  1  0.48378487  0.25121315  0.58643713  1
  O  O459  1  0.48262381  0.24987129  0.83438301  1
  O  O460  1  0.48238045  0.58253285  0.08756910  1
  O  O461  1  0.48533485  0.58339861  0.33712099  1
  O  O462  1  0.48242864  0.58228021  0.58423865  1
  O  O463  1  0.48254309  0.58302791  0.83547213  1
  O  O464  1  0.48369646  0.91684491  0.08495555  1
  O  O465  1  0.48170140  0.91701069  0.33580801  1
  O  O466  1  0.48295944  0.91655366  0.58449044  1
  O  O467  1  0.48255526  0.91685127  0.83706350  1
  O  O468  1  0.98533085  0.25038156  0.08429353  1
  O  O469  1  0.98205418  0.25089830  0.33572096  1
  O  O470  1  0.98208114  0.25006468  0.58566672  1
  O  O471  1  0.98273399  0.25080833  0.83778986  1
  O  O472  1  0.98529124  0.58361497  0.08480634  1
  O  O473  1  0.98555293  0.58268744  0.33689689  1
  O  O474  1  0.98456392  0.58295976  0.58380518  1
  O  O475  1  0.98315759  0.58330053  0.83756955  1
  O  O476  1  0.98526279  0.91622805  0.08426984  1
  O  O477  1  0.98524702  0.91609536  0.33719794  1
  O  O478  1  0.98309236  0.91710544  0.58444949  1
  O  O479  1  0.98474267  0.91613611  0.83709243  1
  O  O480  1  0.08898128  0.31620145  0.07705465  1
  O  O481  1  0.08593928  0.31626686  0.32812767  1
  O  O482  1  0.08601860  0.31508336  0.57728686  1
  O  O483  1  0.08636575  0.31571976  0.82728081  1
  O  O484  1  0.08940197  0.64826955  0.07758009  1
  O  O485  1  0.08892450  0.64820280  0.32858703  1
  O  O486  1  0.08894797  0.64707482  0.57673048  1
  O  O487  1  0.08653286  0.64919212  0.82831050  1
  O  O488  1  0.08961303  0.98051709  0.07719470  1
  O  O489  1  0.08871736  0.98108961  0.32833626  1
  O  O490  1  0.08695076  0.98289447  0.57686797  1
  O  O491  1  0.08841019  0.98041909  0.82785018  1
  O  O492  1  0.58645590  0.31678485  0.07773232  1
  O  O493  1  0.58876848  0.31505888  0.32908880  1
  O  O494  1  0.58769927  0.31635773  0.57729805  1
  O  O495  1  0.58661539  0.31459270  0.82626446  1
  O  O496  1  0.58597828  0.64746373  0.07752009  1
  O  O497  1  0.58920207  0.64777684  0.32695921  1
  O  O498  1  0.58643124  0.64725246  0.57599899  1
  O  O499  1  0.58610162  0.64839252  0.82764351  1
  O  O500  1  0.58803387  0.98114986  0.07720790  1
  O  O501  1  0.58556719  0.98242104  0.32805796  1
  O  O502  1  0.58692145  0.98129591  0.57690869  1
  O  O503  1  0.58618569  0.98220088  0.82805021  1
  O  O504  1  0.41184982  0.01851534  0.17311580  1
  O  O505  1  0.41248869  0.01749586  0.42286692  1
  O  O506  1  0.41149077  0.01945770  0.67198275  1
  O  O507  1  0.41380901  0.01878066  0.92249577  1
  O  O508  1  0.41157394  0.35260337  0.17346163  1
  O  O509  1  0.41303083  0.35196664  0.42332370  1
  O  O510  1  0.41222946  0.35216947  0.67177475  1
  O  O511  1  0.41106904  0.34975510  0.92166300  1
  O  O512  1  0.41084348  0.68348180  0.17261894  1
  O  O513  1  0.41048232  0.68600391  0.42256979  1
  O  O514  1  0.41161150  0.68293397  0.67098748  1
  O  O515  1  0.41032466  0.68595213  0.92365417  1
  O  O516  1  0.91378441  0.01777266  0.17256179  1
  O  O517  1  0.91172991  0.01966111  0.42345678  1
  O  O518  1  0.91320832  0.01815550  0.67177179  1
  O  O519  1  0.91275998  0.01907857  0.92285596  1
  O  O520  1  0.91410654  0.35213569  0.17233390  1
  O  O521  1  0.91284857  0.35121854  0.42292683  1
  O  O522  1  0.91314665  0.35097622  0.67163125  1
  O  O523  1  0.91118813  0.35188339  0.92292054  1
  O  O524  1  0.91349397  0.68511915  0.17333575  1
  O  O525  1  0.91324407  0.68437608  0.42294236  1
  O  O526  1  0.91183621  0.68568481  0.67161160  1
  O  O527  1  0.91371447  0.68393298  0.92340309  1
  O  O528  1  0.16530158  0.01865968  0.20275944  1
  O  O529  1  0.16372994  0.01799957  0.45312026  1
  O  O530  1  0.16155116  0.01883236  0.70131542  1
  O  O531  1  0.16254673  0.01840772  0.95272580  1
  O  O532  1  0.16297512  0.35122928  0.20247607  1
  O  O533  1  0.16293956  0.35243741  0.45202475  1
  O  O534  1  0.16365694  0.35121625  0.70102110  1
  O  O535  1  0.16334775  0.35234257  0.95245985  1
  O  O536  1  0.16313742  0.68506079  0.20223950  1
  O  O537  1  0.16317557  0.68428900  0.45223337  1
  O  O538  1  0.16190244  0.68465996  0.70290299  1
  O  O539  1  0.16240742  0.68382986  0.95297931  1
  O  O540  1  0.66175071  0.01811333  0.20356752  1
  O  O541  1  0.66344063  0.01939757  0.45188589  1
  O  O542  1  0.66124090  0.01962813  0.70254146  1
  O  O543  1  0.66174733  0.01679771  0.95241010  1
  O  O544  1  0.66029004  0.35329296  0.20199399  1
  O  O545  1  0.66213345  0.35123033  0.45284540  1
  O  O546  1  0.66137683  0.35061414  0.70204903  1
  O  O547  1  0.66321836  0.35201362  0.95253369  1
  O  O548  1  0.66419010  0.68362362  0.20216905  1
  O  O549  1  0.66410116  0.68449441  0.45275399  1
  O  O550  1  0.66266172  0.68444303  0.70235140  1
  O  O551  1  0.66402107  0.68575704  0.95195249  1
  O  O552  1  0.33677140  0.31607980  0.04649952  1
  O  O553  1  0.33809564  0.31564995  0.29761072  1
  O  O554  1  0.33884603  0.31563917  0.54786813  1
  O  O555  1  0.33896267  0.31647478  0.79670330  1
  O  O556  1  0.33682386  0.64818262  0.04808757  1
  O  O557  1  0.33849712  0.64818103  0.29658777  1
  O  O558  1  0.33684770  0.64829162  0.54743575  1
  O  O559  1  0.33790272  0.64687965  0.79709408  1
  O  O560  1  0.33671837  0.98073746  0.04698931  1
  O  O561  1  0.33880185  0.98170665  0.29789840  1
  O  O562  1  0.33657211  0.98111673  0.54706743  1
  O  O563  1  0.33787052  0.98195480  0.79841912  1
  O  O564  1  0.83766883  0.31608324  0.04704265  1
  O  O565  1  0.83803959  0.31584062  0.29826155  1
  O  O566  1  0.83756313  0.31539284  0.54765340  1
  O  O567  1  0.83723286  0.31548404  0.79755915  1
  O  O568  1  0.83890734  0.64863705  0.04660714  1
  O  O569  1  0.83634834  0.64891927  0.29726544  1
  O  O570  1  0.83632432  0.64754538  0.54700545  1
  O  O571  1  0.83842426  0.64772683  0.79839315  1
  O  O572  1  0.83564122  0.98108583  0.04784294  1
  O  O573  1  0.83821494  0.98021635  0.29763599  1
  O  O574  1  0.83857412  0.98232451  0.54777800  1
  O  O575  1  0.83791823  0.98213603  0.79746473  1
  O  O576  1  0.41196887  0.14853733  0.17358300  1
  O  O577  1  0.41203981  0.14748344  0.42334106  1
  O  O578  1  0.41232481  0.14978442  0.67122402  1
  O  O579  1  0.41386878  0.14898214  0.92202812  1
  O  O580  1  0.41179394  0.48257674  0.17317553  1
  O  O581  1  0.41300254  0.48178645  0.42315550  1
  O  O582  1  0.41248872  0.48220750  0.67183931  1
  O  O583  1  0.40971885  0.47981129  0.92302596  1
  O  O584  1  0.40986160  0.81360094  0.17268877  1
  O  O585  1  0.41130763  0.81604203  0.42208617  1
  O  O586  1  0.41062466  0.81326544  0.67158970  1
  O  O587  1  0.41139338  0.81599343  0.92304144  1
  O  O588  1  0.91315524  0.14796414  0.17222414  1
  O  O589  1  0.91203756  0.14973158  0.42272361  1
  O  O590  1  0.91255202  0.14848170  0.67174001  1
  O  O591  1  0.91265457  0.14939880  0.92227293  1
  O  O592  1  0.91465998  0.48212659  0.17290113  1
  O  O593  1  0.91292342  0.48106021  0.42374277  1
  O  O594  1  0.91325600  0.48113119  0.67207134  1
  O  O595  1  0.91154778  0.48195861  0.92286986  1
  O  O596  1  0.91402501  0.81510546  0.17327282  1
  O  O597  1  0.91278222  0.81424323  0.42262791  1
  O  O598  1  0.91256164  0.81614548  0.67104360  1
  O  O599  1  0.91328186  0.81389953  0.92399891  1
  O  O600  1  0.08965552  0.18611685  0.07689949  1
  O  O601  1  0.08600454  0.18610050  0.32748568  1
  O  O602  1  0.08592569  0.18506684  0.57726052  1
  O  O603  1  0.08634292  0.18568947  0.82724893  1
  O  O604  1  0.08911338  0.51821975  0.07718708  1
  O  O605  1  0.08925119  0.51779223  0.32916171  1
  O  O606  1  0.08837739  0.51710245  0.57721505  1
  O  O607  1  0.08689971  0.51900889  0.82789062  1
  O  O608  1  0.08895813  0.85042747  0.07769786  1
  O  O609  1  0.08867948  0.85065530  0.32869199  1
  O  O610  1  0.08743259  0.85286986  0.57623845  1
  O  O611  1  0.08779663  0.85001394  0.82837859  1
  O  O612  1  0.58739007  0.18657423  0.07784812  1
  O  O613  1  0.58841392  0.18459827  0.32918348  1
  O  O614  1  0.58769738  0.18644577  0.57652888  1
  O  O615  1  0.58663560  0.18453487  0.82687600  1
  O  O616  1  0.58605497  0.51734442  0.07827243  1
  O  O617  1  0.58872028  0.51757791  0.32777636  1
  O  O618  1  0.58671364  0.51735635  0.57682847  1
  O  O619  1  0.58632678  0.51820856  0.82778643  1
  O  O620  1  0.58730842  0.85113466  0.07656785  1
  O  O621  1  0.58540734  0.85211519  0.32712673  1
  O  O622  1  0.58657173  0.85117593  0.57657508  1
  O  O623  1  0.58610217  0.85192296  0.82740031  1
  O  O624  1  0.33705572  0.18597516  0.04692480  1
  O  O625  1  0.33840615  0.18539783  0.29731606  1
  O  O626  1  0.33895610  0.18548053  0.54794196  1
  O  O627  1  0.33940253  0.18639587  0.79755341  1
  O  O628  1  0.33674825  0.51823548  0.04832571  1
  O  O629  1  0.33875487  0.51791641  0.29684329  1
  O  O630  1  0.33690267  0.51827248  0.54783045  1
  O  O631  1  0.33787785  0.51671271  0.79635196  1
  O  O632  1  0.33635184  0.85059097  0.04661791  1
  O  O633  1  0.33866207  0.85156123  0.29770346  1
  O  O634  1  0.33638657  0.85079182  0.54650331  1
  O  O635  1  0.33821426  0.85200695  0.79845094  1
  O  O636  1  0.83810112  0.18574812  0.04702247  1
  O  O637  1  0.83840458  0.18583716  0.29820542  1
  O  O638  1  0.83752123  0.18521751  0.54756346  1
  O  O639  1  0.83704081  0.18561206  0.79804503  1
  O  O640  1  0.83853655  0.51827462  0.04723921  1
  O  O641  1  0.83627782  0.51885888  0.29788106  1
  O  O642  1  0.83564839  0.51735191  0.54760953  1
  O  O643  1  0.83814628  0.51783189  0.79820930  1
  O  O644  1  0.83603763  0.85092252  0.04733065  1
  O  O645  1  0.83802987  0.85002794  0.29680115  1
  O  O646  1  0.83885928  0.85197995  0.54753943  1
  O  O647  1  0.83851216  0.85203747  0.79705217  1
  O  O648  1  0.16544697  0.14868814  0.20269166  1
  O  O649  1  0.16369557  0.14824680  0.45267800  1
  O  O650  1  0.16209880  0.14883785  0.70098878  1
  O  O651  1  0.16272799  0.14886616  0.95234366  1
  O  O652  1  0.16271854  0.48113159  0.20246771  1
  O  O653  1  0.16333853  0.48247467  0.45276901  1
  O  O654  1  0.16303093  0.48102419  0.70139752  1
  O  O655  1  0.16351276  0.48261374  0.95303872  1
  O  O656  1  0.16292170  0.81499616  0.20243274  1
  O  O657  1  0.16315335  0.81438765  0.45191887  1
  O  O658  1  0.16168038  0.81472507  0.70293109  1
  O  O659  1  0.16225991  0.81399025  0.95252775  1
  O  O660  1  0.66209580  0.14837109  0.20319153  1
  O  O661  1  0.66382061  0.14942224  0.45229219  1
  O  O662  1  0.66156707  0.14995237  0.70307699  1
  O  O663  1  0.66067034  0.14698503  0.95161075  1
  O  O664  1  0.66112449  0.48333277  0.20282847  1
  O  O665  1  0.66201092  0.48135979  0.45271930  1
  O  O666  1  0.66067398  0.48058686  0.70192387  1
  O  O667  1  0.66312508  0.48205817  0.95269105  1
  O  O668  1  0.66361166  0.81367777  0.20219515  1
  O  O669  1  0.66468927  0.81459757  0.45205077  1
  O  O670  1  0.66267402  0.81463307  0.70192871  1
  O  O671  1  0.66430890  0.81590938  0.95227182  1
