# generated using pymatgen
data_Na2MnFe(PO4)2
_symmetry_space_group_name_H-M   'P 1'
_cell_length_a   21.08370134
_cell_length_b   18.93575145
_cell_length_c   20.04250535
_cell_angle_alpha   89.99987076
_cell_angle_beta   90.00038946
_cell_angle_gamma   90.00115314
_symmetry_Int_Tables_number   1
_chemical_formula_structural   Na2MnFe(PO4)2
_chemical_formula_sum   'Na96 Mn48 Fe48 P96 O384'
_cell_volume   8001.68421496
_cell_formula_units_Z   48
loop_
 _symmetry_equiv_pos_site_id
 _symmetry_equiv_pos_as_xyz
  1  'x, y, z'
loop_
 _atom_site_type_symbol
 _atom_site_label
 _atom_site_symmetry_multiplicity
 _atom_site_fract_x
 _atom_site_fract_y
 _atom_site_fract_z
 _atom_site_occupancy
  Na  Na0  1  0.00252047  -0.00018148  0.00008750  1
  Na  Na1  1  0.00209912  0.00031998  0.24952289  1
  Na  Na2  1  -0.00110421  -0.00095123  0.50061344  1
  Na  Na3  1  0.00082846  -0.00023535  0.75004687  1
  Na  Na4  1  0.00088496  0.33377688  0.00040112  1
  Na  Na5  1  -0.00015046  0.33328021  0.25081331  1
  Na  Na6  1  -0.00009067  0.33358726  0.49887397  1
  Na  Na7  1  0.00069465  0.33397531  0.74948125  1
  Na  Na8  1  0.00002023  0.66715316  0.00034034  1
  Na  Na9  1  0.00059017  0.66770094  0.24919296  1
  Na  Na10  1  -0.00234859  0.66620912  0.50037564  1
  Na  Na11  1  -0.00162293  0.66675619  0.74947231  1
  Na  Na12  1  0.50119215  -0.00058499  -0.00015467  1
  Na  Na13  1  0.49981384  -0.00143979  0.25093900  1
  Na  Na14  1  0.49999259  -0.00088890  0.50031062  1
  Na  Na15  1  0.50198354  0.00045145  0.75022771  1
  Na  Na16  1  0.49971875  0.33358599  0.00051698  1
  Na  Na17  1  0.50014192  0.33301349  0.25024404  1
  Na  Na18  1  0.50119530  0.33381610  0.49844812  1
  Na  Na19  1  0.49878191  0.33308547  0.75060240  1
  Na  Na20  1  0.49896193  0.66652430  0.00049848  1
  Na  Na21  1  0.49884832  0.66645314  0.25048509  1
  Na  Na22  1  0.49738427  0.66599963  0.49969116  1
  Na  Na23  1  0.49852820  0.66644248  0.74874785  1
  Na  Na24  1  0.24835596  -0.00062042  0.12648869  1
  Na  Na25  1  0.24856166  -0.00056159  0.37418068  1
  Na  Na26  1  0.25048229  -0.00034766  0.62366662  1
  Na  Na27  1  0.25009760  -0.00063333  0.87630870  1
  Na  Na28  1  0.24956799  0.33423773  0.12563293  1
  Na  Na29  1  0.24644074  0.33337219  0.37523201  1
  Na  Na30  1  0.24816217  0.33322801  0.62451697  1
  Na  Na31  1  0.25171723  0.33428101  0.87544584  1
  Na  Na32  1  0.25098079  0.66762793  0.12484548  1
  Na  Na33  1  0.25073284  0.66731779  0.37382804  1
  Na  Na34  1  0.25219997  0.66780703  0.62592281  1
  Na  Na35  1  0.25117619  0.66701889  0.87534330  1
  Na  Na36  1  0.74859212  -0.00093365  0.12489212  1
  Na  Na37  1  0.75147326  -0.00069523  0.37578429  1
  Na  Na38  1  0.75130116  -0.00008342  0.62507601  1
  Na  Na39  1  0.74662970  -0.00165474  0.87436880  1
  Na  Na40  1  0.74885058  0.33276987  0.12511071  1
  Na  Na41  1  0.75242894  0.33377246  0.37553933  1
  Na  Na42  1  0.75090391  0.33316661  0.62481892  1
  Na  Na43  1  0.74862246  0.33306176  0.87385734  1
  Na  Na44  1  0.74976014  0.66660653  0.12425686  1
  Na  Na45  1  0.75155934  0.66675156  0.37565420  1
  Na  Na46  1  0.75229282  0.66700773  0.62515516  1
  Na  Na47  1  0.74960950  0.66650559  0.87448485  1
  Na  Na48  1  0.00119599  0.16643704  0.00052356  1
  Na  Na49  1  0.00151812  0.16626954  0.25025202  1
  Na  Na50  1  -0.00073103  0.16674905  0.49999880  1
  Na  Na51  1  -0.00153416  0.16721198  0.74936087  1
  Na  Na52  1  -0.00079174  0.50069034  0.00003355  1
  Na  Na53  1  -0.00055613  0.49986827  0.25040645  1
  Na  Na54  1  -0.00088152  0.49975922  0.49922158  1
  Na  Na55  1  -0.00033727  0.50020580  0.74947076  1
  Na  Na56  1  0.00243933  0.83298112  0.00021173  1
  Na  Na57  1  0.00160608  0.83297355  0.24886365  1
  Na  Na58  1  -0.00129334  0.83408594  0.50077914  1
  Na  Na59  1  0.00123545  0.83270957  0.75018449  1
  Na  Na60  1  0.50223230  0.16581352  0.00041242  1
  Na  Na61  1  0.50232693  0.16643396  0.25050410  1
  Na  Na62  1  0.50129072  0.16638190  0.49913342  1
  Na  Na63  1  0.49928217  0.16727041  0.75024509  1
  Na  Na64  1  0.49704777  0.50113934  0.00050154  1
  Na  Na65  1  0.49868524  0.50002904  0.25007698  1
  Na  Na66  1  0.49843041  0.50024142  0.49945485  1
  Na  Na67  1  0.49783066  0.50063103  0.74988376  1
  Na  Na68  1  0.50091282  0.83296976  -0.00018046  1
  Na  Na69  1  0.49898180  0.83393915  0.25111417  1
  Na  Na70  1  0.49956728  0.83350354  0.49983251  1
  Na  Na71  1  0.50104901  0.83305025  0.74920073  1
  Na  Na72  1  0.24788583  0.16706420  0.12630698  1
  Na  Na73  1  0.24617005  0.16762907  0.37435386  1
  Na  Na74  1  0.24914663  0.16656193  0.62474926  1
  Na  Na75  1  0.25088889  0.16574357  0.87585951  1
  Na  Na76  1  0.25085336  0.49964137  0.12507240  1
  Na  Na77  1  0.24857886  0.50011610  0.37477988  1
  Na  Na78  1  0.25102567  0.49954525  0.62456563  1
  Na  Na79  1  0.25395261  0.49925144  0.87531332  1
  Na  Na80  1  0.24880108  0.83359015  0.12586531  1
  Na  Na81  1  0.24984281  0.83328099  0.37417210  1
  Na  Na82  1  0.25116869  0.83263861  0.62472185  1
  Na  Na83  1  0.24864537  0.83373031  0.87578659  1
  Na  Na84  1  0.74801444  0.16712825  0.12510846  1
  Na  Na85  1  0.75134562  0.16687958  0.37540977  1
  Na  Na86  1  0.75182081  0.16651340  0.62550510  1
  Na  Na87  1  0.74786595  0.16725761  0.87385074  1
  Na  Na88  1  0.75120668  0.50021016  0.12391537  1
  Na  Na89  1  0.75291146  0.49960648  0.37601129  1
  Na  Na90  1  0.75194991  0.50034251  0.62425676  1
  Na  Na91  1  0.74956921  0.50094242  0.87485752  1
  Na  Na92  1  0.74833637  0.83347152  0.12513129  1
  Na  Na93  1  0.75116861  0.83334707  0.37545382  1
  Na  Na94  1  0.74981652  0.83379141  0.62534723  1
  Na  Na95  1  0.74766172  0.83358924  0.87396821  1
  Mn  Mn96  1  0.14165391  0.91637351  0.49739733  1
  Mn  Mn97  1  0.14186594  0.58350129  0.24767891  1
  Mn  Mn98  1  0.89269136  0.91694472  0.12629776  1
  Mn  Mn99  1  0.39246218  0.24947543  0.12829986  1
  Mn  Mn100  1  0.39233527  0.91688314  0.62742310  1
  Mn  Mn101  1  0.10752075  0.08367199  0.62295372  1
  Mn  Mn102  1  0.14296695  0.58371679  0.74798715  1
  Mn  Mn103  1  0.35834747  0.08321330  0.00324714  1
  Mn  Mn104  1  0.14253628  0.25008948  0.99763663  1
  Mn  Mn105  1  0.89199234  0.25024137  0.87795372  1
  Mn  Mn106  1  0.85811818  0.41703263  0.75217472  1
  Mn  Mn107  1  0.60725147  0.74955467  0.12357756  1
  Mn  Mn108  1  0.60680416  0.41751069  0.87264711  1
  Mn  Mn109  1  0.39163230  0.58357258  0.37709038  1
  Mn  Mn110  1  0.85691379  0.08259077  0.00173641  1
  Mn  Mn111  1  0.10850596  0.41775986  0.87259629  1
  Mn  Mn112  1  0.64159059  0.58350935  0.99744234  1
  Mn  Mn113  1  0.35699228  0.08373561  0.50163304  1
  Mn  Mn114  1  0.89224000  0.24976399  0.12681170  1
  Mn  Mn115  1  0.60823397  0.08283476  0.12327931  1
  Mn  Mn116  1  0.85837031  0.08334599  0.25191248  1
  Mn  Mn117  1  0.35794249  0.75049330  0.00247921  1
  Mn  Mn118  1  0.60805606  0.08391696  0.62202861  1
  Mn  Mn119  1  0.35674658  0.08392053  0.25273809  1
  Mn  Mn120  1  0.39231883  0.24995986  0.87777499  1
  Mn  Mn121  1  0.14164767  0.58373065  0.49798785  1
  Mn  Mn122  1  0.60760064  0.41727770  0.12358044  1
  Mn  Mn123  1  0.64317235  0.58326654  0.49800006  1
  Mn  Mn124  1  0.85751105  0.08289961  0.75290609  1
  Mn  Mn125  1  0.39144165  0.25010935  0.62613885  1
  Mn  Mn126  1  0.35646983  0.41662889  0.50185156  1
  Mn  Mn127  1  0.89229795  0.58330808  0.12719223  1
  Mn  Mn128  1  0.14259430  0.24949116  0.74776261  1
  Mn  Mn129  1  0.64175785  0.25064060  0.74662727  1
  Mn  Mn130  1  0.60800645  0.74957116  0.37342217  1
  Mn  Mn131  1  0.10863098  0.08306749  0.87208563  1
  Mn  Mn132  1  0.39174541  0.24929601  0.37721776  1
  Mn  Mn133  1  0.85764502  0.41636237  0.00201486  1
  Mn  Mn134  1  0.60911824  0.08288041  0.37313891  1
  Mn  Mn135  1  0.89249278  0.91617398  0.87759489  1
  Mn  Mn136  1  0.60731463  0.41683227  0.62256679  1
  Mn  Mn137  1  0.85733165  0.75008537  0.75266533  1
  Mn  Mn138  1  0.60904863  0.41712669  0.37258073  1
  Mn  Mn139  1  0.39293297  0.91642960  0.87708305  1
  Mn  Mn140  1  0.60717277  0.74930637  0.62210949  1
  Mn  Mn141  1  0.14298778  0.58357726  0.99741835  1
  Mn  Mn142  1  0.85836489  0.74986379  0.25195502  1
  Mn  Mn143  1  0.10781826  0.74932839  0.62283327  1
  Fe  Fe144  1  0.85788741  0.41673342  0.25109599  1
  Fe  Fe145  1  0.64435073  0.24983650  0.49833290  1
  Fe  Fe146  1  0.60731276  0.08300549  0.87293711  1
  Fe  Fe147  1  0.85829560  0.08305325  0.50150362  1
  Fe  Fe148  1  0.64246847  0.91604433  0.74751844  1
  Fe  Fe149  1  0.10724591  0.41705283  0.12319855  1
  Fe  Fe150  1  0.89260266  0.58404055  0.37609591  1
  Fe  Fe151  1  0.60730861  0.74947663  0.87292277  1
  Fe  Fe152  1  0.39239323  0.91642455  0.12728378  1
  Fe  Fe153  1  0.89318996  0.25024587  0.62628327  1
  Fe  Fe154  1  0.14345957  0.91666318  0.74857567  1
  Fe  Fe155  1  0.35694831  0.75019747  0.50112541  1
  Fe  Fe156  1  0.89262878  0.91658666  0.62746931  1
  Fe  Fe157  1  0.10727175  0.41701113  0.62346740  1
  Fe  Fe158  1  0.39308491  0.58391509  0.87645127  1
  Fe  Fe159  1  0.14318329  0.91669783  0.99838945  1
  Fe  Fe160  1  0.14070350  0.24988019  0.49809160  1
  Fe  Fe161  1  0.35650559  0.75028466  0.25183400  1
  Fe  Fe162  1  0.14140310  0.25026203  0.24826439  1
  Fe  Fe163  1  0.35738550  0.75064038  0.75242553  1
  Fe  Fe164  1  0.89293551  0.24949307  0.37670979  1
  Fe  Fe165  1  0.10568602  0.41719413  0.37286653  1
  Fe  Fe166  1  0.10704180  0.75003613  0.37386231  1
  Fe  Fe167  1  0.64378513  0.25058169  0.24906394  1
  Fe  Fe168  1  0.10771629  0.08351012  0.12303395  1
  Fe  Fe169  1  0.85840871  0.41642873  0.50224032  1
  Fe  Fe170  1  0.64213510  0.58342820  0.74770857  1
  Fe  Fe171  1  0.64206544  0.24990210  0.99819539  1
  Fe  Fe172  1  0.64418427  0.91693157  0.49833819  1
  Fe  Fe173  1  0.10722271  0.74944452  0.87322475  1
  Fe  Fe174  1  0.39189955  0.58293754  0.62699537  1
  Fe  Fe175  1  0.10791098  0.74962641  0.12259859  1
  Fe  Fe176  1  0.35723248  0.41621324  0.75132340  1
  Fe  Fe177  1  0.89285991  0.91644423  0.37593954  1
  Fe  Fe178  1  0.64266464  0.91616917  0.24891167  1
  Fe  Fe179  1  0.35601186  0.41626785  0.25206610  1
  Fe  Fe180  1  0.89278921  0.58311260  0.62714361  1
  Fe  Fe181  1  0.10628203  0.08278933  0.37388435  1
  Fe  Fe182  1  0.39243408  0.91694593  0.37668692  1
  Fe  Fe183  1  0.64328460  0.58308485  0.24884257  1
  Fe  Fe184  1  0.85832924  0.75051156  0.50155080  1
  Fe  Fe185  1  0.39223460  0.58388276  0.12764607  1
  Fe  Fe186  1  0.35762622  0.41627168  0.00289969  1
  Fe  Fe187  1  0.85690082  0.75068457  0.00077314  1
  Fe  Fe188  1  0.35771735  0.08305574  0.75162547  1
  Fe  Fe189  1  0.89239803  0.58384670  0.87627845  1
  Fe  Fe190  1  0.14230935  0.91666802  0.24858796  1
  Fe  Fe191  1  0.64180107  0.91645439  0.99832252  1
  P  P192  1  0.05481246  0.25053499  0.11140002  1
  P  P193  1  0.05339826  0.24988517  0.36098532  1
  P  P194  1  0.05273895  0.25069867  0.60947830  1
  P  P195  1  0.05329515  0.25024612  0.85956730  1
  P  P196  1  0.05380161  0.58302860  0.10998132  1
  P  P197  1  0.05176745  0.58394558  0.36027249  1
  P  P198  1  0.05201393  0.58291832  0.61010616  1
  P  P199  1  0.05228217  0.58457919  0.85985776  1
  P  P200  1  0.05595539  0.91664918  0.11064766  1
  P  P201  1  0.05247643  0.91623910  0.35983129  1
  P  P202  1  0.05349317  0.91649770  0.61146769  1
  P  P203  1  0.05555786  0.91540553  0.86038340  1
  P  P204  1  0.55550890  0.25035753  0.11105566  1
  P  P205  1  0.55590950  0.25001993  0.36051790  1
  P  P206  1  0.55352996  0.25046656  0.60833215  1
  P  P207  1  0.55451293  0.24957944  0.86109088  1
  P  P208  1  0.55286553  0.58329866  0.11152864  1
  P  P209  1  0.55404229  0.58334969  0.35934081  1
  P  P210  1  0.55238951  0.58312786  0.61032764  1
  P  P211  1  0.55240631  0.58428052  0.85915063  1
  P  P212  1  0.55375605  0.91602937  0.11107423  1
  P  P213  1  0.55456075  0.91625231  0.36115935  1
  P  P214  1  0.55532000  0.91644935  0.60985221  1
  P  P215  1  0.55553065  0.91608828  0.86035981  1
  P  P216  1  0.44701100  0.08213026  0.14093865  1
  P  P217  1  0.44691675  0.08243140  0.39002695  1
  P  P218  1  0.44616456  0.08349150  0.64054513  1
  P  P219  1  0.44700737  0.08286049  0.88930857  1
  P  P220  1  0.44456817  0.41719854  0.14031394  1
  P  P221  1  0.44538291  0.41626652  0.38876562  1
  P  P222  1  0.44546817  0.41687886  0.64010598  1
  P  P223  1  0.44437634  0.41762911  0.88969076  1
  P  P224  1  0.44547354  0.75043443  0.14100940  1
  P  P225  1  0.44447517  0.75099088  0.38938559  1
  P  P226  1  0.44422882  0.74949570  0.63909186  1
  P  P227  1  0.44684021  0.74973943  0.88871061  1
  P  P228  1  0.94825377  0.08308157  0.13965010  1
  P  P229  1  0.94714302  0.08289596  0.38994904  1
  P  P230  1  0.94500536  0.08320997  0.63883662  1
  P  P231  1  0.94726623  0.08280881  0.89049798  1
  P  P232  1  0.94731972  0.41647017  0.14061739  1
  P  P233  1  0.94518707  0.41664563  0.38866309  1
  P  P234  1  0.94660182  0.41641577  0.63842870  1
  P  P235  1  0.94703252  0.41775511  0.89009352  1
  P  P236  1  0.94700757  0.75064456  0.13820307  1
  P  P237  1  0.94745485  0.75052487  0.38995997  1
  P  P238  1  0.94505686  0.75031278  0.63903408  1
  P  P239  1  0.94715393  0.74972065  0.89059723  1
  P  P240  1  0.19353519  0.08317650  0.23644533  1
  P  P241  1  0.19508477  0.08374989  0.48406931  1
  P  P242  1  0.19834954  0.08196164  0.73488429  1
  P  P243  1  0.19596041  0.08250069  0.98652027  1
  P  P244  1  0.19474776  0.41647431  0.23584390  1
  P  P245  1  0.19335776  0.41649759  0.48531346  1
  P  P246  1  0.19752134  0.41717453  0.73452335  1
  P  P247  1  0.19737896  0.41718461  0.98604335  1
  P  P248  1  0.19525959  0.75062331  0.23591792  1
  P  P249  1  0.19716385  0.74971169  0.48411310  1
  P  P250  1  0.19690522  0.75065631  0.73644769  1
  P  P251  1  0.19517080  0.75061872  0.98560538  1
  P  P252  1  0.69718123  0.08300297  0.23564720  1
  P  P253  1  0.69890831  0.08327429  0.48561399  1
  P  P254  1  0.69511563  0.08250017  0.73553692  1
  P  P255  1  0.69534509  0.08299266  0.98430416  1
  P  P256  1  0.69862484  0.41738078  0.23543407  1
  P  P257  1  0.69876524  0.41614247  0.48551989  1
  P  P258  1  0.69642205  0.41832208  0.73445476  1
  P  P259  1  0.69619298  0.41631950  0.98479673  1
  P  P260  1  0.69679990  0.74943651  0.23560154  1
  P  P261  1  0.69851750  0.75048719  0.48557527  1
  P  P262  1  0.69474820  0.74917850  0.73572010  1
  P  P263  1  0.69634894  0.75041339  0.98427384  1
  P  P264  1  0.30361760  0.25032550  0.01598011  1
  P  P265  1  0.30115222  0.25085574  0.26525288  1
  P  P266  1  0.30048586  0.25009239  0.51438286  1
  P  P267  1  0.30352981  0.24966388  0.76488421  1
  P  P268  1  0.30577540  0.58316409  0.01462917  1
  P  P269  1  0.30410791  0.58329289  0.26353757  1
  P  P270  1  0.30345727  0.58429762  0.51532143  1
  P  P271  1  0.30545518  0.58343858  0.76443144  1
  P  P272  1  0.30307698  0.91644979  0.01629716  1
  P  P273  1  0.30364100  0.91611468  0.26436766  1
  P  P274  1  0.30420583  0.91599073  0.51333307  1
  P  P275  1  0.30278676  0.91676395  0.76517165  1
  P  P276  1  0.80142569  0.24951822  0.01491081  1
  P  P277  1  0.80355355  0.25057746  0.26530488  1
  P  P278  1  0.80537246  0.24972511  0.51419389  1
  P  P279  1  0.80452517  0.25031567  0.76383087  1
  P  P280  1  0.80454719  0.58476229  0.01338317  1
  P  P281  1  0.80319956  0.58286481  0.26536164  1
  P  P282  1  0.80642704  0.58369423  0.51426696  1
  P  P283  1  0.80382067  0.58341929  0.76457227  1
  P  P284  1  0.80148950  0.91555182  0.01452738  1
  P  P285  1  0.80296424  0.91642923  0.26519331  1
  P  P286  1  0.80525749  0.91652246  0.51426869  1
  P  P287  1  0.80305049  0.91629752  0.76426359  1
  O  O288  1  0.05803064  0.25054426  0.18825135  1
  O  O289  1  0.05724976  0.24992511  0.43772319  1
  O  O290  1  0.05655522  0.24998533  0.68619843  1
  O  O291  1  0.05680851  0.25007089  0.93638462  1
  O  O292  1  0.05639048  0.58329778  0.18678319  1
  O  O293  1  0.05504145  0.58390397  0.43690978  1
  O  O294  1  0.05627461  0.58365379  0.68674902  1
  O  O295  1  0.05643209  0.58388549  0.93650853  1
  O  O296  1  0.05937523  0.91638597  0.18748346  1
  O  O297  1  0.05548119  0.91618070  0.43659936  1
  O  O298  1  0.05899307  0.91645919  0.68806617  1
  O  O299  1  0.05964080  0.91646002  0.93714278  1
  O  O300  1  0.56041748  0.25064944  0.18783634  1
  O  O301  1  0.56106071  0.25013041  0.43724133  1
  O  O302  1  0.55639603  0.25048419  0.68519346  1
  O  O303  1  0.55843172  0.25018402  0.93790419  1
  O  O304  1  0.55855662  0.58294789  0.18807113  1
  O  O305  1  0.55760542  0.58322252  0.43615240  1
  O  O306  1  0.55752212  0.58327190  0.68692780  1
  O  O307  1  0.55581876  0.58371802  0.93596452  1
  O  O308  1  0.55890340  0.91605859  0.18776858  1
  O  O309  1  0.56027349  0.91641735  0.43781252  1
  O  O310  1  0.55944628  0.91641075  0.68665540  1
  O  O311  1  0.55884967  0.91594982  0.93726335  1
  O  O312  1  0.44440613  0.08289141  0.06408239  1
  O  O313  1  0.44324913  0.08330821  0.31329680  1
  O  O314  1  0.44264299  0.08321384  0.56375778  1
  O  O315  1  0.44173509  0.08288813  0.81266285  1
  O  O316  1  0.44098817  0.41625841  0.06345420  1
  O  O317  1  0.44037171  0.41579681  0.31207358  1
  O  O318  1  0.44249378  0.41621298  0.56327729  1
  O  O319  1  0.44053041  0.41630959  0.81290696  1
  O  O320  1  0.44336577  0.75074276  0.06407815  1
  O  O321  1  0.44026342  0.75039483  0.31266489  1
  O  O322  1  0.44039536  0.75034605  0.56231029  1
  O  O323  1  0.44196573  0.75079475  0.81208304  1
  O  O324  1  0.94374644  0.08287526  0.06302526  1
  O  O325  1  0.94416213  0.08309123  0.31320530  1
  O  O326  1  0.94143757  0.08285381  0.56201271  1
  O  O327  1  0.94358212  0.08259722  0.81367501  1
  O  O328  1  0.94328214  0.41644539  0.06391057  1
  O  O329  1  0.94085151  0.41654877  0.31194853  1
  O  O330  1  0.94236262  0.41632100  0.56166891  1
  O  O331  1  0.94393026  0.41698763  0.81329202  1
  O  O332  1  0.94154066  0.75094771  0.06168013  1
  O  O333  1  0.94443914  0.75062456  0.31317500  1
  O  O334  1  0.94138660  0.75077770  0.56226335  1
  O  O335  1  0.94316048  0.75059703  0.81384577  1
  O  O336  1  0.19173559  0.08336067  0.06328334  1
  O  O337  1  0.18923162  0.08295980  0.31321724  1
  O  O338  1  0.19259022  0.08291225  0.56090723  1
  O  O339  1  0.19492600  0.08256910  0.81162864  1
  O  O340  1  0.19200818  0.41754045  0.06267040  1
  O  O341  1  0.18936853  0.41745203  0.31256440  1
  O  O342  1  0.18957257  0.41731166  0.56214480  1
  O  O343  1  0.19422925  0.41764356  0.81131485  1
  O  O344  1  0.19125059  0.74941661  0.06241788  1
  O  O345  1  0.19026526  0.74978561  0.31261120  1
  O  O346  1  0.19339465  0.74972074  0.56088281  1
  O  O347  1  0.19192728  0.74948180  0.81306439  1
  O  O348  1  0.69311922  0.08279988  0.06114737  1
  O  O349  1  0.69514946  0.08275104  0.31245310  1
  O  O350  1  0.69527161  0.08335061  0.56226973  1
  O  O351  1  0.69083152  0.08313077  0.81228716  1
  O  O352  1  0.69330960  0.41727874  0.06159095  1
  O  O353  1  0.69573480  0.41748588  0.31215204  1
  O  O354  1  0.69440901  0.41681038  0.56212382  1
  O  O355  1  0.69279921  0.41788234  0.81120469  1
  O  O356  1  0.69265042  0.74950313  0.06100487  1
  O  O357  1  0.69421940  0.74952993  0.31234523  1
  O  O358  1  0.69434363  0.74967098  0.56222833  1
  O  O359  1  0.69086546  0.74889266  0.81246293  1
  O  O360  1  0.30559264  0.25013882  0.18862648  1
  O  O361  1  0.30462560  0.25011766  0.43773082  1
  O  O362  1  0.30569857  0.24976212  0.68810272  1
  O  O363  1  0.30683048  0.24957531  0.93917121  1
  O  O364  1  0.30760850  0.58349697  0.18676841  1
  O  O365  1  0.30602285  0.58328287  0.43848048  1
  O  O366  1  0.30849565  0.58350348  0.68758674  1
  O  O367  1  0.30979688  0.58420624  0.93783093  1
  O  O368  1  0.30820331  0.91668725  0.18770531  1
  O  O369  1  0.30802511  0.91679889  0.43659798  1
  O  O370  1  0.30607206  0.91657398  0.68843579  1
  O  O371  1  0.30749539  0.91628470  0.93961525  1
  O  O372  1  0.80674963  0.24976311  0.18856304  1
  O  O373  1  0.80988151  0.24969383  0.43741925  1
  O  O374  1  0.80955376  0.25048215  0.68707958  1
  O  O375  1  0.80529344  0.24975280  0.93818780  1
  O  O376  1  0.80648365  0.58368038  0.18856976  1
  O  O377  1  0.81033955  0.58383931  0.43743569  1
  O  O378  1  0.80918774  0.58329289  0.68786005  1
  O  O379  1  0.80877123  0.58413273  0.93664356  1
  O  O380  1  0.80691353  0.91637933  0.18850804  1
  O  O381  1  0.80990967  0.91632969  0.43752870  1
  O  O382  1  0.80839999  0.91640287  0.68761390  1
  O  O383  1  0.80541160  0.91604792  0.93786641  1
  O  O384  1  0.23395147  0.25039096  0.04099543  1
  O  O385  1  0.23082678  0.25048526  0.28900298  1
  O  O386  1  0.23042439  0.24995578  0.53881864  1
  O  O387  1  0.23411449  0.24990897  0.79112467  1
  O  O388  1  0.23571192  0.58393666  0.03874510  1
  O  O389  1  0.23420815  0.58345213  0.28839032  1
  O  O390  1  0.23385236  0.58384233  0.54082240  1
  O  O391  1  0.23562322  0.58344900  0.78958832  1
  O  O392  1  0.23285920  0.91637655  0.04010468  1
  O  O393  1  0.23304715  0.91654730  0.28772116  1
  O  O394  1  0.23427566  0.91615034  0.53791928  1
  O  O395  1  0.23297108  0.91645298  0.79042794  1
  O  O396  1  0.73141043  0.24956253  0.03940707  1
  O  O397  1  0.73351795  0.25032144  0.29007998  1
  O  O398  1  0.73498540  0.24982654  0.53809749  1
  O  O399  1  0.73426487  0.25028083  0.78703080  1
  O  O400  1  0.73450703  0.58388232  0.03760203  1
  O  O401  1  0.73336242  0.58330038  0.29053224  1
  O  O402  1  0.73632805  0.58367342  0.53850997  1
  O  O403  1  0.73340057  0.58377086  0.78773007  1
  O  O404  1  0.73137771  0.91613193  0.03898891  1
  O  O405  1  0.73281430  0.91621443  0.28953099  1
  O  O406  1  0.73479389  0.91677179  0.53800844  1
  O  O407  1  0.73256642  0.91580268  0.78719796  1
  O  O408  1  0.26371411  0.08323446  0.21251168  1
  O  O409  1  0.26462570  0.08342793  0.45847229  1
  O  O410  1  0.26814894  0.08273547  0.70968856  1
  O  O411  1  0.26594909  0.08253144  0.96229940  1
  O  O412  1  0.26526650  0.41680194  0.21273292  1
  O  O413  1  0.26340746  0.41709844  0.46108458  1
  O  O414  1  0.26755982  0.41654124  0.70997973  1
  O  O415  1  0.26780078  0.41690388  0.96279453  1
  O  O416  1  0.26574984  0.75037963  0.21254312  1
  O  O417  1  0.26717246  0.74998749  0.45969375  1
  O  O418  1  0.26727436  0.75038855  0.71287440  1
  O  O419  1  0.26531993  0.75022768  0.96165337  1
  O  O420  1  0.76656015  0.08309329  0.20936492  1
  O  O421  1  0.76899154  0.08310672  0.46090868  1
  O  O422  1  0.76515425  0.08296824  0.71148208  1
  O  O423  1  0.76482689  0.08273069  0.95828549  1
  O  O424  1  0.76847819  0.41682983  0.20995162  1
  O  O425  1  0.76909213  0.41652467  0.46169020  1
  O  O426  1  0.76619185  0.41750545  0.70964588  1
  O  O427  1  0.76578135  0.41686109  0.95930523  1
  O  O428  1  0.76631457  0.74984528  0.20978331  1
  O  O429  1  0.76869787  0.75021579  0.46134093  1
  O  O430  1  0.76474636  0.74974413  0.71142666  1
  O  O431  1  0.76635380  0.75022517  0.95948817  1
  O  O432  1  0.01837400  0.08319046  0.16377970  1
  O  O433  1  0.01717198  0.08285896  0.41495276  1
  O  O434  1  0.01490612  0.08333210  0.66362797  1
  O  O435  1  0.01708426  0.08284843  0.91497859  1
  O  O436  1  0.01737874  0.41675147  0.16495936  1
  O  O437  1  0.01571215  0.41657642  0.41224625  1
  O  O438  1  0.01680123  0.41678798  0.66276634  1
  O  O439  1  0.01669887  0.41754824  0.91533434  1
  O  O440  1  0.01752650  0.75034597  0.16143156  1
  O  O441  1  0.01740492  0.75038275  0.41523482  1
  O  O442  1  0.01496448  0.74995522  0.66365434  1
  O  O443  1  0.01730869  0.75005961  0.91471578  1
  O  O444  1  0.51657253  0.08235019  0.16638563  1
  O  O445  1  0.51674253  0.08244856  0.41481462  1
  O  O446  1  0.51601510  0.08378971  0.66505848  1
  O  O447  1  0.51737454  0.08241224  0.91277232  1
  O  O448  1  0.51461712  0.41664295  0.16461167  1
  O  O449  1  0.51559670  0.41707782  0.41237018  1
  O  O450  1  0.51508934  0.41667850  0.66548299  1
  O  O451  1  0.51437626  0.41748270  0.91412110  1
  O  O452  1  0.51501205  0.75009176  0.16663873  1
  O  O453  1  0.51454902  0.74987031  0.41362925  1
  O  O454  1  0.51433020  0.75007638  0.66309918  1
  O  O455  1  0.51704885  0.74983835  0.91278092  1
  O  O456  1  0.48528374  0.24988473  0.08754498  1
  O  O457  1  0.48561372  0.24971833  0.33711313  1
  O  O458  1  0.48382702  0.25017867  0.58321569  1
  O  O459  1  0.48451537  0.25010600  0.83678547  1
  O  O460  1  0.48240990  0.58395817  0.08832386  1
  O  O461  1  0.48407396  0.58327737  0.33519028  1
  O  O462  1  0.48200477  0.58303506  0.58684523  1
  O  O463  1  0.48230529  0.58370924  0.83474464  1
  O  O464  1  0.48336139  0.91595319  0.08751461  1
  O  O465  1  0.48397360  0.91641773  0.33829281  1
  O  O466  1  0.48511574  0.91624530  0.58631224  1
  O  O467  1  0.48557362  0.91633904  0.83567226  1
  O  O468  1  0.98507082  0.25029751  0.08619538  1
  O  O469  1  0.98297039  0.24995729  0.33700829  1
  O  O470  1  0.98267656  0.25017015  0.58497642  1
  O  O471  1  0.98361726  0.25046908  0.83461180  1
  O  O472  1  0.98420581  0.58344651  0.08464896  1
  O  O473  1  0.98178944  0.58384111  0.33514280  1
  O  O474  1  0.98192819  0.58311403  0.58579495  1
  O  O475  1  0.98222957  0.58419806  0.83530011  1
  O  O476  1  0.98601142  0.91647812  0.08590832  1
  O  O477  1  0.98247243  0.91642365  0.33472683  1
  O  O478  1  0.98305466  0.91654433  0.58820314  1
  O  O479  1  0.98547349  0.91598193  0.83623916  1
  O  O480  1  0.08844237  0.31590509  0.07885225  1
  O  O481  1  0.08688001  0.31494543  0.32775797  1
  O  O482  1  0.08643412  0.31581831  0.57688339  1
  O  O483  1  0.08754257  0.31532348  0.82738275  1
  O  O484  1  0.08831191  0.64791249  0.07772150  1
  O  O485  1  0.08569841  0.64902384  0.32773346  1
  O  O486  1  0.08561497  0.64800198  0.57699569  1
  O  O487  1  0.08588803  0.64983022  0.82716635  1
  O  O488  1  0.08958197  0.98190784  0.07795406  1
  O  O489  1  0.08668878  0.98124841  0.32743953  1
  O  O490  1  0.08656095  0.98152765  0.57789050  1
  O  O491  1  0.08969730  0.97999043  0.82675735  1
  O  O492  1  0.58867256  0.31541079  0.07754382  1
  O  O493  1  0.58920862  0.31507755  0.32699294  1
  O  O494  1  0.58786006  0.31546999  0.57601542  1
  O  O495  1  0.58808932  0.31461366  0.82786246  1
  O  O496  1  0.58617611  0.64827249  0.07796203  1
  O  O497  1  0.58792460  0.64845016  0.32678521  1
  O  O498  1  0.58557172  0.64814900  0.57669490  1
  O  O499  1  0.58608726  0.64938544  0.82646603  1
  O  O500  1  0.58722384  0.98096351  0.07762945  1
  O  O501  1  0.58790980  0.98105365  0.32734424  1
  O  O502  1  0.58884062  0.98149345  0.57667472  1
  O  O503  1  0.58946728  0.98112849  0.82763895  1
  O  O504  1  0.41272198  0.01693251  0.17270385  1
  O  O505  1  0.41286508  0.01727630  0.42220828  1
  O  O506  1  0.41240899  0.01836841  0.67351468  1
  O  O507  1  0.41366673  0.01785426  0.92276246  1
  O  O508  1  0.41053241  0.35246057  0.17370874  1
  O  O509  1  0.41235315  0.35117471  0.42236644  1
  O  O510  1  0.41114677  0.35191081  0.67272139  1
  O  O511  1  0.41056700  0.35289204  0.92337283  1
  O  O512  1  0.41072936  0.68547025  0.17294457  1
  O  O513  1  0.41020040  0.68629752  0.42255223  1
  O  O514  1  0.41082652  0.68423361  0.67182719  1
  O  O515  1  0.41338255  0.68456620  0.92159022  1
  O  O516  1  0.91473408  0.01801022  0.17267780  1
  O  O517  1  0.91318084  0.01779370  0.42240325  1
  O  O518  1  0.91138414  0.01812119  0.67190449  1
  O  O519  1  0.91346409  0.01759779  0.92306246  1
  O  O520  1  0.91340781  0.35149424  0.17343486  1
  O  O521  1  0.91206518  0.35151074  0.42210965  1
  O  O522  1  0.91340524  0.35123774  0.67151590  1
  O  O523  1  0.91289434  0.35279727  0.92289986  1
  O  O524  1  0.91386796  0.68559903  0.17179332  1
  O  O525  1  0.91312344  0.68553753  0.42226930  1
  O  O526  1  0.91127710  0.68501884  0.67147085  1
  O  O527  1  0.91325247  0.68457852  0.92293201  1
  O  O528  1  0.16019246  0.01803416  0.20329993  1
  O  O529  1  0.16051446  0.01883390  0.45161814  1
  O  O530  1  0.16453873  0.01677178  0.70245003  1
  O  O531  1  0.16252514  0.01715990  0.95387846  1
  O  O532  1  0.16163024  0.35130463  0.20271962  1
  O  O533  1  0.15979508  0.35125865  0.45270785  1
  O  O534  1  0.16296966  0.35232716  0.70217854  1
  O  O535  1  0.16410000  0.35219939  0.95267026  1
  O  O536  1  0.16198655  0.68573121  0.20202622  1
  O  O537  1  0.16329711  0.68468425  0.45129791  1
  O  O538  1  0.16369523  0.68572629  0.70248455  1
  O  O539  1  0.16141064  0.68595635  0.95184700  1
  O  O540  1  0.66275150  0.01788278  0.20360613  1
  O  O541  1  0.66501357  0.01820422  0.45292280  1
  O  O542  1  0.66196417  0.01712758  0.70273632  1
  O  O543  1  0.66066570  0.01790915  0.95241725  1
  O  O544  1  0.66418199  0.35235746  0.20337135  1
  O  O545  1  0.66545582  0.35098318  0.45260702  1
  O  O546  1  0.66216479  0.35338020  0.70186684  1
  O  O547  1  0.66223226  0.35103758  0.95282567  1
  O  O548  1  0.66283557  0.68412036  0.20327451  1
  O  O549  1  0.66466713  0.68556030  0.45256599  1
  O  O550  1  0.66154195  0.68387385  0.70247342  1
  O  O551  1  0.66214145  0.68556721  0.95117607  1
  O  O552  1  0.33774367  0.31546431  0.04806782  1
  O  O553  1  0.33458331  0.31594306  0.29812805  1
  O  O554  1  0.33417782  0.31516608  0.54719037  1
  O  O555  1  0.33793427  0.31487494  0.79683469  1
  O  O556  1  0.33977246  0.64798060  0.04793748  1
  O  O557  1  0.33780054  0.64847370  0.29623122  1
  O  O558  1  0.33760677  0.64958669  0.54709954  1
  O  O559  1  0.33941005  0.64855290  0.79725356  1
  O  O560  1  0.33692583  0.98127901  0.04943971  1
  O  O561  1  0.33717654  0.98089600  0.29807438  1
  O  O562  1  0.33793515  0.98089248  0.54661716  1
  O  O563  1  0.33664426  0.98199805  0.79761994  1
  O  O564  1  0.83533520  0.31454946  0.04766454  1
  O  O565  1  0.83757296  0.31564137  0.29764640  1
  O  O566  1  0.83881832  0.31484698  0.54740010  1
  O  O567  1  0.83759323  0.31545685  0.79719417  1
  O  O568  1  0.83755302  0.65027502  0.04622353  1
  O  O569  1  0.83767535  0.64774050  0.29806460  1
  O  O570  1  0.84002076  0.64875205  0.54725631  1
  O  O571  1  0.83739248  0.64832361  0.79802891  1
  O  O572  1  0.83548100  0.98046642  0.04754340  1
  O  O573  1  0.83690266  0.98140552  0.29804449  1
  O  O574  1  0.83867080  0.98160916  0.54747279  1
  O  O575  1  0.83589950  0.98128218  0.79801188  1
  O  O576  1  0.41272797  0.14713528  0.17349763  1
  O  O577  1  0.41300246  0.14752604  0.42280570  1
  O  O578  1  0.41184762  0.14845691  0.67292143  1
  O  O579  1  0.41404073  0.14795526  0.92297530  1
  O  O580  1  0.41095452  0.48255266  0.17267692  1
  O  O581  1  0.41156097  0.48125770  0.42168272  1
  O  O582  1  0.41118984  0.48198481  0.67225667  1
  O  O583  1  0.41086858  0.48308481  0.92196442  1
  O  O584  1  0.41119626  0.81551622  0.17328125  1
  O  O585  1  0.41133484  0.81633675  0.42235103  1
  O  O586  1  0.41044111  0.81429027  0.67273878  1
  O  O587  1  0.41344960  0.81456872  0.92256324  1
  O  O588  1  0.91464961  0.14815293  0.17259364  1
  O  O589  1  0.91312373  0.14793957  0.42256620  1
  O  O590  1  0.91142996  0.14861600  0.67114458  1
  O  O591  1  0.91328129  0.14789256  0.92292966  1
  O  O592  1  0.91320109  0.48144875  0.17331714  1
  O  O593  1  0.91211550  0.48177988  0.42195077  1
  O  O594  1  0.91296579  0.48147106  0.67143244  1
  O  O595  1  0.91295848  0.48305637  0.92193482  1
  O  O596  1  0.91407399  0.81559168  0.17206141  1
  O  O597  1  0.91340575  0.81559310  0.42252474  1
  O  O598  1  0.91154876  0.81532900  0.67231651  1
  O  O599  1  0.91323470  0.81458176  0.92390385  1
  O  O600  1  0.08880988  0.18542141  0.07889058  1
  O  O601  1  0.08676951  0.18480122  0.32795797  1
  O  O602  1  0.08676859  0.18574202  0.57656372  1
  O  O603  1  0.08715283  0.18503761  0.82698643  1
  O  O604  1  0.08765213  0.51761489  0.07783180  1
  O  O605  1  0.08571217  0.51890815  0.32761455  1
  O  O606  1  0.08561176  0.51786188  0.57740725  1
  O  O607  1  0.08632571  0.51971523  0.82686944  1
  O  O608  1  0.08997291  0.85173986  0.07775402  1
  O  O609  1  0.08668135  0.85124224  0.32730921  1
  O  O610  1  0.08656298  0.85146390  0.57778948  1
  O  O611  1  0.08888980  0.84990090  0.82781387  1
  O  O612  1  0.58916942  0.18533055  0.07799418  1
  O  O613  1  0.58960284  0.18504147  0.32739489  1
  O  O614  1  0.58818719  0.18556354  0.57607029  1
  O  O615  1  0.58777033  0.18430418  0.82824092  1
  O  O616  1  0.58556318  0.51822149  0.07756860  1
  O  O617  1  0.58820016  0.51852811  0.32644307  1
  O  O618  1  0.58577742  0.51819614  0.57683408  1
  O  O619  1  0.58650745  0.51944172  0.82616044  1
  O  O620  1  0.58716298  0.85107389  0.07759805  1
  O  O621  1  0.58746594  0.85113407  0.32747612  1
  O  O622  1  0.58903704  0.85157063  0.57662402  1
  O  O623  1  0.58910253  0.85091390  0.82744666  1
  O  O624  1  0.33752523  0.18519842  0.04866389  1
  O  O625  1  0.33474703  0.18576723  0.29836405  1
  O  O626  1  0.33449232  0.18516476  0.54709264  1
  O  O627  1  0.33772828  0.18438688  0.79703077  1
  O  O628  1  0.33913399  0.51791363  0.04741448  1
  O  O629  1  0.33757373  0.51810206  0.29642006  1
  O  O630  1  0.33812288  0.51947818  0.54781820  1
  O  O631  1  0.33939931  0.51824783  0.79680196  1
  O  O632  1  0.33675990  0.85135578  0.04926105  1
  O  O633  1  0.33679131  0.85093682  0.29755557  1
  O  O634  1  0.33773650  0.85076806  0.54606889  1
  O  O635  1  0.33689556  0.85177058  0.79795864  1
  O  O636  1  0.83519207  0.18440495  0.04762202  1
  O  O637  1  0.83775993  0.18568361  0.29821195  1
  O  O638  1  0.83872633  0.18462821  0.54731100  1
  O  O639  1  0.83769082  0.18524918  0.79718848  1
  O  O640  1  0.83851543  0.51995308  0.04663691  1
  O  O641  1  0.83740727  0.51780211  0.29751812  1
  O  O642  1  0.83997889  0.51844028  0.54714353  1
  O  O643  1  0.83719473  0.51851795  0.79805830  1
  O  O644  1  0.83507423  0.85032908  0.04718402  1
  O  O645  1  0.83708753  0.85159305  0.29812010  1
  O  O646  1  0.83834122  0.85139484  0.54777671  1
  O  O647  1  0.83629170  0.85136659  0.79779126  1
  O  O648  1  0.16002546  0.14833297  0.20345709  1
  O  O649  1  0.16056448  0.14886822  0.45232169  1
  O  O650  1  0.16377767  0.14687412  0.70244567  1
  O  O651  1  0.16246154  0.14738365  0.95299134  1
  O  O652  1  0.16160627  0.48139266  0.20190727  1
  O  O653  1  0.15945869  0.48134874  0.45195586  1
  O  O654  1  0.16380109  0.48225386  0.70162434  1
  O  O655  1  0.16462227  0.48229658  0.95215296  1
  O  O656  1  0.16207100  0.81580882  0.20291417  1
  O  O657  1  0.16289432  0.81452491  0.45133276  1
  O  O658  1  0.16376058  0.81586455  0.70325287  1
  O  O659  1  0.16181742  0.81599748  0.95318265  1
  O  O660  1  0.66275806  0.14823915  0.20398640  1
  O  O661  1  0.66516487  0.14831915  0.45288502  1
  O  O662  1  0.66157018  0.14750364  0.70224073  1
  O  O663  1  0.66096148  0.14815285  0.95224858  1
  O  O664  1  0.66479178  0.48259883  0.20280276  1
  O  O665  1  0.66512278  0.48112562  0.45233246  1
  O  O666  1  0.66290425  0.48374846  0.70197917  1
  O  O667  1  0.66174950  0.48128117  0.95229575  1
  O  O668  1  0.66225736  0.81448411  0.20353854  1
  O  O669  1  0.66491707  0.81563480  0.45293985  1
  O  O670  1  0.66092631  0.81423248  0.70297692  1
  O  O671  1  0.66222737  0.81550756  0.95203071  1
